MODEL 1
REMARK VINA RESULT:      -6.0      0.000      0.000
REMARK  Name = 45783555
REMARK  11 active torsions:
REMARK  status: ('A' for Active; 'I' for Inactive)
REMARK    1  A    between atoms: O_2  and  C_22
REMARK    2  A    between atoms: O_2  and  C_23
REMARK    3  A    between atoms: O_3  and  C_24
REMARK    4  A    between atoms: O_3  and  C_25
REMARK    5  A    between atoms: N_4  and  C_12
REMARK    6  A    between atoms: C_8  and  C_14
REMARK    7  A    between atoms: C_12  and  C_13
REMARK    8  A    between atoms: C_13  and  C_15
REMARK    9  A    between atoms: C_13  and  C_16
REMARK   10  A    between atoms: C_17  and  C_18
REMARK   11  A    between atoms: C_23  and  C_24
REMARK                            x       y       z     vdW  Elec       q    Type
REMARK                         _______ _______ _______ _____ _____    ______ ____
ROOT
ATOM      1  O   UNL     1      15.591   8.644  19.927  0.00  0.00    -0.336 OA
ATOM      5  N   UNL     1      16.261   6.579  19.378  0.00  0.00    -0.190 NA
ATOM      6  N   UNL     1      16.824   8.452  20.564  0.00  0.00    -0.056 NA
ATOM     14  C   UNL     1      15.335   7.495  19.251  0.00  0.00    +0.245 A 
ATOM     17  C   UNL     1      17.155   7.213  20.192  0.00  0.00    +0.204 A 
ENDROOT
BRANCH  17  18
ATOM      7  N   UNL     1      20.217   6.484  22.172  0.00  0.00    -0.221 NA
ATOM     18  C   UNL     1      18.369   6.576  20.617  0.00  0.00    +0.041 A 
ATOM     19  C   UNL     1      18.880   5.479  19.932  0.00  0.00    +0.018 A 
ATOM     20  C   UNL     1      19.069   7.036  21.720  0.00  0.00    +0.126 A 
ATOM     21  C   UNL     1      20.059   4.884  20.366  0.00  0.00    +0.068 A 
ATOM     22  C   UNL     1      20.684   5.419  21.481  0.00  0.00    +0.215 A 
BRANCH  22   2
ATOM      2  O   UNL     1      21.847   4.851  21.928  0.00  0.00    -0.474 OA
BRANCH   2  23
ATOM     23  C   UNL     1      22.412   3.827  21.118  0.00  0.00    +0.258 C 
BRANCH  23  24
ATOM     24  C   UNL     1      23.720   4.323  20.532  0.00  0.00    +0.200 C 
BRANCH  24   3
ATOM      3  O   UNL     1      24.570   3.210  20.284  0.00  0.00    -0.380 OA
ATOM     25  C   UNL     1      23.986   1.997  20.737  0.00  0.00    +0.194 C 
ENDBRANCH  24   3
ENDBRANCH  23  24
ENDBRANCH   2  23
ENDBRANCH  22   2
ENDBRANCH  17  18
BRANCH  14   8
ATOM      4  N   UNL     1      12.876   7.879  19.268  0.00  0.00    -0.291 NA
ATOM      8  C   UNL     1      14.039   7.449  18.467  0.00  0.00    +0.146 C 
ATOM      9  C   UNL     1      14.047   8.392  17.250  0.00  0.00    +0.030 C 
ATOM     10  C   UNL     1      11.917   8.458  18.327  0.00  0.00    +0.085 C 
ATOM     11  C   UNL     1      12.819   9.274  17.423  0.00  0.00    +0.017 C 
BRANCH   4  12
ATOM     12  C   UNL     1      12.289   6.802  20.055  0.00  0.00    +0.088 C 
BRANCH  12  13
ATOM     13  C   UNL     1      12.073   7.199  21.525  0.00  0.00    -0.003 C 
ATOM     15  C   UNL     1      12.797   8.516  21.817  0.00  0.00    +0.008 C 
ATOM     16  C   UNL     1      10.590   7.337  21.883  0.00  0.00    +0.008 C 
ENDBRANCH  12  13
ENDBRANCH   4  12
ENDBRANCH  14   8
TORSDOF 8
ENDMDL
MODEL 2
REMARK VINA RESULT:      -5.9      1.284      2.967
REMARK  Name = 45783555
REMARK  11 active torsions:
REMARK  status: ('A' for Active; 'I' for Inactive)
REMARK    1  A    between atoms: O_2  and  C_22
REMARK    2  A    between atoms: O_2  and  C_23
REMARK    3  A    between atoms: O_3  and  C_24
REMARK    4  A    between atoms: O_3  and  C_25
REMARK    5  A    between atoms: N_4  and  C_12
REMARK    6  A    between atoms: C_8  and  C_14
REMARK    7  A    between atoms: C_12  and  C_13
REMARK    8  A    between atoms: C_13  and  C_15
REMARK    9  A    between atoms: C_13  and  C_16
REMARK   10  A    between atoms: C_17  and  C_18
REMARK   11  A    between atoms: C_23  and  C_24
REMARK                            x       y       z     vdW  Elec       q    Type
REMARK                         _______ _______ _______ _____ _____    ______ ____
ROOT
ATOM      1  O   UNL     1      14.482   6.743  19.459  0.00  0.00    -0.336 OA
ATOM      5  N   UNL     1      15.694   7.875  20.964  0.00  0.00    -0.190 NA
ATOM      6  N   UNL     1      15.775   6.206  19.402  0.00  0.00    -0.056 NA
ATOM     14  C   UNL     1      14.522   7.718  20.403  0.00  0.00    +0.245 A 
ATOM     17  C   UNL     1      16.430   6.925  20.318  0.00  0.00    +0.204 A 
ENDROOT
BRANCH  17  18
ATOM      7  N   UNL     1      19.836   5.434  20.264  0.00  0.00    -0.221 NA
ATOM     18  C   UNL     1      17.820   6.722  20.610  0.00  0.00    +0.041 A 
ATOM     19  C   UNL     1      18.498   7.563  21.485  0.00  0.00    +0.018 A 
ATOM     20  C   UNL     1      18.528   5.681  20.031  0.00  0.00    +0.126 A 
ATOM     21  C   UNL     1      19.845   7.341  21.751  0.00  0.00    +0.068 A 
ATOM     22  C   UNL     1      20.462   6.272  21.120  0.00  0.00    +0.215 A 
BRANCH  22   2
ATOM      2  O   UNL     1      21.789   6.033  21.366  0.00  0.00    -0.474 OA
BRANCH   2  23
ATOM     23  C   UNL     1      22.411   5.019  20.585  0.00  0.00    +0.258 C 
BRANCH  23  24
ATOM     24  C   UNL     1      22.975   3.958  21.509  0.00  0.00    +0.200 C 
BRANCH  24   3
ATOM      3  O   UNL     1      22.742   2.675  20.940  0.00  0.00    -0.380 OA
ATOM     25  C   UNL     1      23.912   1.870  20.975  0.00  0.00    +0.194 C 
ENDBRANCH  24   3
ENDBRANCH  23  24
ENDBRANCH   2  23
ENDBRANCH  22   2
ENDBRANCH  17  18
BRANCH  14   8
ATOM      4  N   UNL     1      12.265   8.326  19.546  0.00  0.00    -0.291 NA
ATOM      8  C   UNL     1      13.227   8.462  20.659  0.00  0.00    +0.146 C 
ATOM      9  C   UNL     1      12.473   7.935  21.894  0.00  0.00    +0.030 C 
ATOM     10  C   UNL     1      10.931   8.426  20.138  0.00  0.00    +0.085 C 
ATOM     11  C   UNL     1      11.080   7.585  21.390  0.00  0.00    +0.017 C 
BRANCH   4  12
ATOM     12  C   UNL     1      12.470   9.306  18.487  0.00  0.00    +0.088 C 
BRANCH  12  13
ATOM     13  C   UNL     1      12.482   8.665  17.089  0.00  0.00    -0.003 C 
ATOM     15  C   UNL     1      11.170   8.980  16.365  0.00  0.00    +0.008 C 
ATOM     16  C   UNL     1      13.665   9.135  16.237  0.00  0.00    +0.008 C 
ENDBRANCH  12  13
ENDBRANCH   4  12
ENDBRANCH  14   8
TORSDOF 8
ENDMDL
MODEL 3
REMARK VINA RESULT:      -5.8      2.011      9.451
REMARK  Name = 45783555
REMARK  11 active torsions:
REMARK  status: ('A' for Active; 'I' for Inactive)
REMARK    1  A    between atoms: O_2  and  C_22
REMARK    2  A    between atoms: O_2  and  C_23
REMARK    3  A    between atoms: O_3  and  C_24
REMARK    4  A    between atoms: O_3  and  C_25
REMARK    5  A    between atoms: N_4  and  C_12
REMARK    6  A    between atoms: C_8  and  C_14
REMARK    7  A    between atoms: C_12  and  C_13
REMARK    8  A    between atoms: C_13  and  C_15
REMARK    9  A    between atoms: C_13  and  C_16
REMARK   10  A    between atoms: C_17  and  C_18
REMARK   11  A    between atoms: C_23  and  C_24
REMARK                            x       y       z     vdW  Elec       q    Type
REMARK                         _______ _______ _______ _____ _____    ______ ____
ROOT
ATOM      1  O   UNL     1      21.186   6.432  22.825  0.00  0.00    -0.336 OA
ATOM      5  N   UNL     1      20.710   5.693  20.766  0.00  0.00    -0.190 NA
ATOM      6  N   UNL     1      19.867   6.825  22.566  0.00  0.00    -0.056 NA
ATOM     14  C   UNL     1      21.607   5.771  21.715  0.00  0.00    +0.245 A 
ATOM     17  C   UNL     1      19.659   6.353  21.334  0.00  0.00    +0.204 A 
ENDROOT
BRANCH  17  18
ATOM      7  N   UNL     1      16.885   5.777  18.924  0.00  0.00    -0.221 NA
ATOM     18  C   UNL     1      18.414   6.526  20.640  0.00  0.00    +0.041 A 
ATOM     19  C   UNL     1      17.546   7.560  20.974  0.00  0.00    +0.018 A 
ATOM     20  C   UNL     1      18.041   5.670  19.617  0.00  0.00    +0.126 A 
ATOM     21  C   UNL     1      16.348   7.703  20.284  0.00  0.00    +0.068 A 
ATOM     22  C   UNL     1      16.067   6.794  19.277  0.00  0.00    +0.215 A 
BRANCH  22   2
ATOM      2  O   UNL     1      14.892   6.915  18.582  0.00  0.00    -0.474 OA
BRANCH   2  23
ATOM     23  C   UNL     1      13.957   7.871  19.066  0.00  0.00    +0.258 C 
BRANCH  23  24
ATOM     24  C   UNL     1      12.565   7.480  18.607  0.00  0.00    +0.200 C 
BRANCH  24   3
ATOM      3  O   UNL     1      12.095   6.406  19.413  0.00  0.00    -0.380 OA
ATOM     25  C   UNL     1      11.952   6.798  20.771  0.00  0.00    +0.194 C 
ENDBRANCH  24   3
ENDBRANCH  23  24
ENDBRANCH   2  23
ENDBRANCH  22   2
ENDBRANCH  17  18
BRANCH  14   8
ATOM      4  N   UNL     1      23.260   4.198  20.722  0.00  0.00    -0.291 NA
ATOM      8  C   UNL     1      23.024   5.236  21.745  0.00  0.00    +0.146 C 
ATOM      9  C   UNL     1      24.075   6.322  21.452  0.00  0.00    +0.030 C 
ATOM     10  C   UNL     1      24.677   4.281  20.369  0.00  0.00    +0.085 C 
ATOM     11  C   UNL     1      24.893   5.779  20.289  0.00  0.00    +0.017 C 
BRANCH   4  12
ATOM     12  C   UNL     1      22.881   2.861  21.161  0.00  0.00    +0.088 C 
BRANCH  12  13
ATOM     13  C   UNL     1      23.940   2.220  22.073  0.00  0.00    -0.003 C 
ATOM     15  C   UNL     1      23.361   2.020  23.476  0.00  0.00    +0.008 C 
ATOM     16  C   UNL     1      24.450   0.883  21.531  0.00  0.00    +0.008 C 
ENDBRANCH  12  13
ENDBRANCH   4  12
ENDBRANCH  14   8
TORSDOF 8
ENDMDL
MODEL 4
REMARK VINA RESULT:      -5.7      1.936      9.423
REMARK  Name = 45783555
REMARK  11 active torsions:
REMARK  status: ('A' for Active; 'I' for Inactive)
REMARK    1  A    between atoms: O_2  and  C_22
REMARK    2  A    between atoms: O_2  and  C_23
REMARK    3  A    between atoms: O_3  and  C_24
REMARK    4  A    between atoms: O_3  and  C_25
REMARK    5  A    between atoms: N_4  and  C_12
REMARK    6  A    between atoms: C_8  and  C_14
REMARK    7  A    between atoms: C_12  and  C_13
REMARK    8  A    between atoms: C_13  and  C_15
REMARK    9  A    between atoms: C_13  and  C_16
REMARK   10  A    between atoms: C_17  and  C_18
REMARK   11  A    between atoms: C_23  and  C_24
REMARK                            x       y       z     vdW  Elec       q    Type
REMARK                         _______ _______ _______ _____ _____    ______ ____
ROOT
ATOM      1  O   UNL     1      20.008   4.671  20.011  0.00  0.00    -0.336 OA
ATOM      5  N   UNL     1      19.504   6.582  21.065  0.00  0.00    -0.190 NA
ATOM      6  N   UNL     1      18.711   5.011  19.604  0.00  0.00    -0.056 NA
ATOM     14  C   UNL     1      20.399   5.648  20.870  0.00  0.00    +0.245 A 
ATOM     17  C   UNL     1      18.485   6.148  20.267  0.00  0.00    +0.204 A 
ENDROOT
BRANCH  17  18
ATOM      7  N   UNL     1      15.970   8.856  20.677  0.00  0.00    -0.221 NA
ATOM     18  C   UNL     1      17.253   6.875  20.157  0.00  0.00    +0.041 A 
ATOM     19  C   UNL     1      16.170   6.347  19.461  0.00  0.00    +0.018 A 
ATOM     20  C   UNL     1      17.103   8.121  20.742  0.00  0.00    +0.126 A 
ATOM     21  C   UNL     1      14.988   7.073  19.373  0.00  0.00    +0.068 A 
ATOM     22  C   UNL     1      14.939   8.311  19.992  0.00  0.00    +0.215 A 
BRANCH  22   2
ATOM      2  O   UNL     1      13.785   9.046  19.919  0.00  0.00    -0.474 OA
BRANCH   2  23
ATOM     23  C   UNL     1      12.639   8.387  19.393  0.00  0.00    +0.258 C 
BRANCH  23  24
ATOM     24  C   UNL     1      11.408   8.861  20.142  0.00  0.00    +0.200 C 
BRANCH  24   3
ATOM      3  O   UNL     1      10.635   7.730  20.525  0.00  0.00    -0.380 OA
ATOM     25  C   UNL     1      11.327   6.919  21.464  0.00  0.00    +0.194 C 
ENDBRANCH  24   3
ENDBRANCH  23  24
ENDBRANCH   2  23
ENDBRANCH  22   2
ENDBRANCH  17  18
BRANCH  14   8
ATOM      4  N   UNL     1      22.609   4.508  20.750  0.00  0.00    -0.291 NA
ATOM      8  C   UNL     1      21.788   5.510  21.459  0.00  0.00    +0.146 C 
ATOM      9  C   UNL     1      22.602   6.815  21.373  0.00  0.00    +0.030 C 
ATOM     10  C   UNL     1      24.000   4.941  20.888  0.00  0.00    +0.085 C 
ATOM     11  C   UNL     1      23.888   6.434  20.654  0.00  0.00    +0.017 C 
BRANCH   4  12
ATOM     12  C   UNL     1      22.406   3.150  21.237  0.00  0.00    +0.088 C 
BRANCH  12  13
ATOM     13  C   UNL     1      23.651   2.587  21.944  0.00  0.00    -0.003 C 
ATOM     15  C   UNL     1      23.326   2.298  23.411  0.00  0.00    +0.008 C 
ATOM     16  C   UNL     1      24.182   1.317  21.274  0.00  0.00    +0.008 C 
ENDBRANCH  12  13
ENDBRANCH   4  12
ENDBRANCH  14   8
TORSDOF 8
ENDMDL
MODEL 5
REMARK VINA RESULT:      -5.7      1.128      2.531
REMARK  Name = 45783555
REMARK  11 active torsions:
REMARK  status: ('A' for Active; 'I' for Inactive)
REMARK    1  A    between atoms: O_2  and  C_22
REMARK    2  A    between atoms: O_2  and  C_23
REMARK    3  A    between atoms: O_3  and  C_24
REMARK    4  A    between atoms: O_3  and  C_25
REMARK    5  A    between atoms: N_4  and  C_12
REMARK    6  A    between atoms: C_8  and  C_14
REMARK    7  A    between atoms: C_12  and  C_13
REMARK    8  A    between atoms: C_13  and  C_15
REMARK    9  A    between atoms: C_13  and  C_16
REMARK   10  A    between atoms: C_17  and  C_18
REMARK   11  A    between atoms: C_23  and  C_24
REMARK                            x       y       z     vdW  Elec       q    Type
REMARK                         _______ _______ _______ _____ _____    ______ ____
ROOT
ATOM      1  O   UNL     1      16.517   9.191  20.969  0.00  0.00    -0.336 OA
ATOM      5  N   UNL     1      16.587   6.954  20.881  0.00  0.00    -0.190 NA
ATOM      6  N   UNL     1      17.843   8.832  21.240  0.00  0.00    -0.056 NA
ATOM     14  C   UNL     1      15.846   8.027  20.770  0.00  0.00    +0.245 A 
ATOM     17  C   UNL     1      17.805   7.498  21.170  0.00  0.00    +0.204 A 
ENDROOT
BRANCH  17  18
ATOM      7  N   UNL     1      20.724   5.942  22.868  0.00  0.00    -0.221 NA
ATOM     18  C   UNL     1      18.964   6.680  21.385  0.00  0.00    +0.041 A 
ATOM     19  C   UNL     1      19.456   5.856  20.378  0.00  0.00    +0.018 A 
ATOM     20  C   UNL     1      19.628   6.686  22.601  0.00  0.00    +0.126 A 
ATOM     21  C   UNL     1      20.581   5.075  20.615  0.00  0.00    +0.068 A 
ATOM     22  C   UNL     1      21.174   5.153  21.865  0.00  0.00    +0.215 A 
BRANCH  22   2
ATOM      2  O   UNL     1      22.284   4.393  22.123  0.00  0.00    -0.474 OA
BRANCH   2  23
ATOM     23  C   UNL     1      23.056   3.986  21.000  0.00  0.00    +0.258 C 
BRANCH  23  24
ATOM     24  C   UNL     1      23.204   2.477  21.021  0.00  0.00    +0.200 C 
BRANCH  24   3
ATOM      3  O   UNL     1      24.584   2.145  20.920  0.00  0.00    -0.380 OA
ATOM     25  C   UNL     1      24.870   0.909  21.558  0.00  0.00    +0.194 C 
ENDBRANCH  24   3
ENDBRANCH  23  24
ENDBRANCH   2  23
ENDBRANCH  22   2
ENDBRANCH  17  18
BRANCH  14   8
ATOM      4  N   UNL     1      13.942   7.225  19.381  0.00  0.00    -0.291 NA
ATOM      8  C   UNL     1      14.369   8.146  20.454  0.00  0.00    +0.146 C 
ATOM      9  C   UNL     1      13.474   7.788  21.655  0.00  0.00    +0.030 C 
ATOM     10  C   UNL     1      12.538   6.908  19.642  0.00  0.00    +0.085 C 
ATOM     11  C   UNL     1      12.538   6.702  21.143  0.00  0.00    +0.017 C 
BRANCH   4  12
ATOM     12  C   UNL     1      14.142   7.770  18.043  0.00  0.00    +0.088 C 
BRANCH  12  13
ATOM     13  C   UNL     1      13.510   9.163  17.876  0.00  0.00    -0.003 C 
ATOM     15  C   UNL     1      14.592  10.179  17.505  0.00  0.00    +0.008 C 
ATOM     16  C   UNL     1      12.401   9.181  16.821  0.00  0.00    +0.008 C 
ENDBRANCH  12  13
ENDBRANCH   4  12
ENDBRANCH  14   8
TORSDOF 8
ENDMDL
MODEL 6
REMARK VINA RESULT:      -5.7     26.741     29.589
REMARK  Name = 45783555
REMARK  11 active torsions:
REMARK  status: ('A' for Active; 'I' for Inactive)
REMARK    1  A    between atoms: O_2  and  C_22
REMARK    2  A    between atoms: O_2  and  C_23
REMARK    3  A    between atoms: O_3  and  C_24
REMARK    4  A    between atoms: O_3  and  C_25
REMARK    5  A    between atoms: N_4  and  C_12
REMARK    6  A    between atoms: C_8  and  C_14
REMARK    7  A    between atoms: C_12  and  C_13
REMARK    8  A    between atoms: C_13  and  C_15
REMARK    9  A    between atoms: C_13  and  C_16
REMARK   10  A    between atoms: C_17  and  C_18
REMARK   11  A    between atoms: C_23  and  C_24
REMARK                            x       y       z     vdW  Elec       q    Type
REMARK                         _______ _______ _______ _____ _____    ______ ____
ROOT
ATOM      1  O   UNL     1      -2.231 -10.534  14.618  0.00  0.00    -0.336 OA
ATOM      5  N   UNL     1      -4.455 -10.733  14.453  0.00  0.00    -0.190 NA
ATOM      6  N   UNL     1      -2.721 -10.523  15.930  0.00  0.00    -0.056 NA
ATOM     14  C   UNL     1      -3.316 -10.661  13.812  0.00  0.00    +0.245 A 
ATOM     17  C   UNL     1      -4.039 -10.644  15.750  0.00  0.00    +0.204 A 
ENDROOT
BRANCH  17  18
ATOM      7  N   UNL     1      -7.099 -10.004  17.763  0.00  0.00    -0.221 NA
ATOM     18  C   UNL     1      -4.969 -10.678  16.843  0.00  0.00    +0.041 A 
ATOM     19  C   UNL     1      -4.677 -11.379  18.009  0.00  0.00    +0.018 A 
ATOM     20  C   UNL     1      -6.182 -10.013  16.771  0.00  0.00    +0.126 A 
ATOM     21  C   UNL     1      -5.596 -11.392  19.052  0.00  0.00    +0.068 A 
ATOM     22  C   UNL     1      -6.782 -10.696  18.881  0.00  0.00    +0.215 A 
BRANCH  22   2
ATOM      2  O   UNL     1      -7.704 -10.694  19.895  0.00  0.00    -0.474 OA
BRANCH   2  23
ATOM     23  C   UNL     1      -8.870 -11.485  19.701  0.00  0.00    +0.258 C 
BRANCH  23  24
ATOM     24  C   UNL     1     -10.090 -10.671  20.089  0.00  0.00    +0.200 C 
BRANCH  24   3
ATOM      3  O   UNL     1     -10.478  -9.861  18.986  0.00  0.00    -0.380 OA
ATOM     25  C   UNL     1     -10.668 -10.637  17.811  0.00  0.00    +0.194 C 
ENDBRANCH  24   3
ENDBRANCH  23  24
ENDBRANCH   2  23
ENDBRANCH  22   2
ENDBRANCH  17  18
BRANCH  14   8
ATOM      4  N   UNL     1      -3.886  -9.743  11.570  0.00  0.00    -0.291 NA
ATOM      8  C   UNL     1      -3.049 -10.700  12.322  0.00  0.00    +0.146 C 
ATOM      9  C   UNL     1      -1.601 -10.314  11.968  0.00  0.00    +0.030 C 
ATOM     10  C   UNL     1      -3.115  -9.359  10.388  0.00  0.00    +0.085 C 
ATOM     11  C   UNL     1      -1.726  -9.175  10.966  0.00  0.00    +0.017 C 
BRANCH   4  12
ATOM     12  C   UNL     1      -5.196 -10.278  11.219  0.00  0.00    +0.088 C 
BRANCH  12  13
ATOM     13  C   UNL     1      -6.335  -9.293  11.531  0.00  0.00    -0.003 C 
ATOM     15  C   UNL     1      -6.960  -8.795  10.226  0.00  0.00    +0.008 C 
ATOM     16  C   UNL     1      -7.419  -9.911  12.418  0.00  0.00    +0.008 C 
ENDBRANCH  12  13
ENDBRANCH   4  12
ENDBRANCH  14   8
TORSDOF 8
ENDMDL
MODEL 7
REMARK VINA RESULT:      -5.4     28.634     31.160
REMARK  Name = 45783555
REMARK  11 active torsions:
REMARK  status: ('A' for Active; 'I' for Inactive)
REMARK    1  A    between atoms: O_2  and  C_22
REMARK    2  A    between atoms: O_2  and  C_23
REMARK    3  A    between atoms: O_3  and  C_24
REMARK    4  A    between atoms: O_3  and  C_25
REMARK    5  A    between atoms: N_4  and  C_12
REMARK    6  A    between atoms: C_8  and  C_14
REMARK    7  A    between atoms: C_12  and  C_13
REMARK    8  A    between atoms: C_13  and  C_15
REMARK    9  A    between atoms: C_13  and  C_16
REMARK   10  A    between atoms: C_17  and  C_18
REMARK   11  A    between atoms: C_23  and  C_24
REMARK                            x       y       z     vdW  Elec       q    Type
REMARK                         _______ _______ _______ _____ _____    ______ ____
ROOT
ATOM      1  O   UNL     1     -13.001   9.558  18.918  0.00  0.00    -0.336 OA
ATOM      5  N   UNL     1     -12.011   7.647  19.536  0.00  0.00    -0.190 NA
ATOM      6  N   UNL     1     -13.954   8.848  19.660  0.00  0.00    -0.056 NA
ATOM     14  C   UNL     1     -11.888   8.781  18.895  0.00  0.00    +0.245 A 
ATOM     17  C   UNL     1     -13.295   7.733  19.989  0.00  0.00    +0.204 A 
ENDROOT
BRANCH  17  18
ATOM      7  N   UNL     1     -15.843   5.362  21.299  0.00  0.00    -0.221 NA
ATOM     18  C   UNL     1     -13.891   6.685  20.767  0.00  0.00    +0.041 A 
ATOM     19  C   UNL     1     -13.151   5.988  21.716  0.00  0.00    +0.018 A 
ATOM     20  C   UNL     1     -15.222   6.337  20.599  0.00  0.00    +0.126 A 
ATOM     21  C   UNL     1     -13.756   4.978  22.457  0.00  0.00    +0.068 A 
ATOM     22  C   UNL     1     -15.092   4.706  22.212  0.00  0.00    +0.215 A 
BRANCH  22   2
ATOM      2  O   UNL     1     -15.711   3.716  22.929  0.00  0.00    -0.474 OA
BRANCH   2  23
ATOM     23  C   UNL     1     -16.401   4.114  24.107  0.00  0.00    +0.258 C 
BRANCH  23  24
ATOM     24  C   UNL     1     -15.961   3.234  25.261  0.00  0.00    +0.200 C 
BRANCH  24   3
ATOM      3  O   UNL     1     -16.011   1.873  24.852  0.00  0.00    -0.380 OA
ATOM     25  C   UNL     1     -16.925   1.125  25.641  0.00  0.00    +0.194 C 
ENDBRANCH  24   3
ENDBRANCH  23  24
ENDBRANCH   2  23
ENDBRANCH  22   2
ENDBRANCH  17  18
BRANCH  14   8
ATOM      4  N   UNL     1     -10.958   9.493  16.698  0.00  0.00    -0.291 NA
ATOM      8  C   UNL     1     -10.695   9.335  18.143  0.00  0.00    +0.146 C 
ATOM      9  C   UNL     1     -10.291  10.741  18.623  0.00  0.00    +0.030 C 
ATOM     10  C   UNL     1     -10.122  10.605  16.246  0.00  0.00    +0.085 C 
ATOM     11  C   UNL     1     -10.296  11.605  17.371  0.00  0.00    +0.017 C 
BRANCH   4  12
ATOM     12  C   UNL     1     -10.713   8.277  15.934  0.00  0.00    +0.088 C 
BRANCH  12  13
ATOM     13  C   UNL     1     -11.077   8.435  14.448  0.00  0.00    -0.003 C 
ATOM     15  C   UNL     1     -10.295   7.418  13.613  0.00  0.00    +0.008 C 
ATOM     16  C   UNL     1     -12.577   8.267  14.190  0.00  0.00    +0.008 C 
ENDBRANCH  12  13
ENDBRANCH   4  12
ENDBRANCH  14   8
TORSDOF 8
ENDMDL
MODEL 8
REMARK VINA RESULT:      -5.4      2.378      9.166
REMARK  Name = 45783555
REMARK  11 active torsions:
REMARK  status: ('A' for Active; 'I' for Inactive)
REMARK    1  A    between atoms: O_2  and  C_22
REMARK    2  A    between atoms: O_2  and  C_23
REMARK    3  A    between atoms: O_3  and  C_24
REMARK    4  A    between atoms: O_3  and  C_25
REMARK    5  A    between atoms: N_4  and  C_12
REMARK    6  A    between atoms: C_8  and  C_14
REMARK    7  A    between atoms: C_12  and  C_13
REMARK    8  A    between atoms: C_13  and  C_15
REMARK    9  A    between atoms: C_13  and  C_16
REMARK   10  A    between atoms: C_17  and  C_18
REMARK   11  A    between atoms: C_23  and  C_24
REMARK                            x       y       z     vdW  Elec       q    Type
REMARK                         _______ _______ _______ _____ _____    ______ ____
ROOT
ATOM      1  O   UNL     1      19.047   6.188  20.249  0.00  0.00    -0.336 OA
ATOM      5  N   UNL     1      18.081   7.951  21.237  0.00  0.00    -0.190 NA
ATOM      6  N   UNL     1      17.693   6.141  19.892  0.00  0.00    -0.056 NA
ATOM     14  C   UNL     1      19.189   7.283  21.040  0.00  0.00    +0.245 A 
ATOM     17  C   UNL     1      17.191   7.212  20.512  0.00  0.00    +0.204 A 
ENDROOT
BRANCH  17  18
ATOM      7  N   UNL     1      13.499   6.877  20.215  0.00  0.00    -0.221 NA
ATOM     18  C   UNL     1      15.804   7.573  20.431  0.00  0.00    +0.041 A 
ATOM     19  C   UNL     1      15.406   8.904  20.479  0.00  0.00    +0.018 A 
ATOM     20  C   UNL     1      14.821   6.606  20.299  0.00  0.00    +0.126 A 
ATOM     21  C   UNL     1      14.055   9.223  20.396  0.00  0.00    +0.068 A 
ATOM     22  C   UNL     1      13.150   8.183  20.266  0.00  0.00    +0.215 A 
BRANCH  22   2
ATOM      2  O   UNL     1      11.813   8.471  20.182  0.00  0.00    -0.474 OA
BRANCH   2  23
ATOM     23  C   UNL     1      10.945   7.742  21.042  0.00  0.00    +0.258 C 
BRANCH  23  24
ATOM     24  C   UNL     1      10.924   8.406  22.405  0.00  0.00    +0.200 C 
BRANCH  24   3
ATOM      3  O   UNL     1      10.730   9.805  22.236  0.00  0.00    -0.380 OA
ATOM     25  C   UNL     1      10.984  10.515  23.440  0.00  0.00    +0.194 C 
ENDBRANCH  24   3
ENDBRANCH  23  24
ENDBRANCH   2  23
ENDBRANCH  22   2
ENDBRANCH  17  18
BRANCH  14   8
ATOM      4  N   UNL     1      21.511   6.434  21.331  0.00  0.00    -0.291 NA
ATOM      8  C   UNL     1      20.583   7.559  21.565  0.00  0.00    +0.146 C 
ATOM      9  C   UNL     1      21.249   8.764  20.876  0.00  0.00    +0.030 C 
ATOM     10  C   UNL     1      22.845   7.019  21.200  0.00  0.00    +0.085 C 
ATOM     11  C   UNL     1      22.571   8.235  20.339  0.00  0.00    +0.017 C 
BRANCH   4  12
ATOM     12  C   UNL     1      21.457   5.418  22.375  0.00  0.00    +0.088 C 
BRANCH  12  13
ATOM     13  C   UNL     1      22.166   4.116  21.965  0.00  0.00    -0.003 C 
ATOM     15  C   UNL     1      22.500   3.295  23.212  0.00  0.00    +0.008 C 
ATOM     16  C   UNL     1      21.329   3.271  21.000  0.00  0.00    +0.008 C 
ENDBRANCH  12  13
ENDBRANCH   4  12
ENDBRANCH  14   8
TORSDOF 8
ENDMDL
MODEL 9
REMARK VINA RESULT:      -5.3     30.764     33.184
REMARK  Name = 45783555
REMARK  11 active torsions:
REMARK  status: ('A' for Active; 'I' for Inactive)
REMARK    1  A    between atoms: O_2  and  C_22
REMARK    2  A    between atoms: O_2  and  C_23
REMARK    3  A    between atoms: O_3  and  C_24
REMARK    4  A    between atoms: O_3  and  C_25
REMARK    5  A    between atoms: N_4  and  C_12
REMARK    6  A    between atoms: C_8  and  C_14
REMARK    7  A    between atoms: C_12  and  C_13
REMARK    8  A    between atoms: C_13  and  C_15
REMARK    9  A    between atoms: C_13  and  C_16
REMARK   10  A    between atoms: C_17  and  C_18
REMARK   11  A    between atoms: C_23  and  C_24
REMARK                            x       y       z     vdW  Elec       q    Type
REMARK                         _______ _______ _______ _____ _____    ______ ____
ROOT
ATOM      1  O   UNL     1     -15.587   5.860  31.531  0.00  0.00    -0.336 OA
ATOM      5  N   UNL     1     -13.769   5.412  32.760  0.00  0.00    -0.190 NA
ATOM      6  N   UNL     1     -14.967   7.092  31.772  0.00  0.00    -0.056 NA
ATOM     14  C   UNL     1     -14.818   4.925  32.147  0.00  0.00    +0.245 A 
ATOM     17  C   UNL     1     -13.903   6.746  32.502  0.00  0.00    +0.204 A 
ENDROOT
BRANCH  17  18
ATOM      7  N   UNL     1     -11.997   8.891  34.868  0.00  0.00    -0.221 NA
ATOM     18  C   UNL     1     -12.956   7.706  32.992  0.00  0.00    +0.041 A 
ATOM     19  C   UNL     1     -12.101   8.376  32.122  0.00  0.00    +0.018 A 
ATOM     20  C   UNL     1     -12.865   7.997  34.343  0.00  0.00    +0.126 A 
ATOM     21  C   UNL     1     -11.195   9.303  32.625  0.00  0.00    +0.068 A 
ATOM     22  C   UNL     1     -11.182   9.522  33.993  0.00  0.00    +0.215 A 
BRANCH  22   2
ATOM      2  O   UNL     1     -10.298  10.431  34.512  0.00  0.00    -0.474 OA
BRANCH   2  23
ATOM     23  C   UNL     1      -8.937  10.025  34.592  0.00  0.00    +0.258 C 
BRANCH  23  24
ATOM     24  C   UNL     1      -8.486  10.086  36.039  0.00  0.00    +0.200 C 
BRANCH  24   3
ATOM      3  O   UNL     1      -8.052   8.793  36.444  0.00  0.00    -0.380 OA
ATOM     25  C   UNL     1      -9.091   8.075  37.094  0.00  0.00    +0.194 C 
ENDBRANCH  24   3
ENDBRANCH  23  24
ENDBRANCH   2  23
ENDBRANCH  22   2
ENDBRANCH  17  18
BRANCH  14   8
ATOM      4  N   UNL     1     -14.283   2.621  31.373  0.00  0.00    -0.291 NA
ATOM      8  C   UNL     1     -15.281   3.488  32.031  0.00  0.00    +0.146 C 
ATOM      9  C   UNL     1     -15.526   2.831  33.402  0.00  0.00    +0.030 C 
ATOM     10  C   UNL     1     -14.473   1.279  31.924  0.00  0.00    +0.085 C 
ATOM     11  C   UNL     1     -14.672   1.571  33.398  0.00  0.00    +0.017 C 
BRANCH   4  12
ATOM     12  C   UNL     1     -14.380   2.635  29.918  0.00  0.00    +0.088 C 
BRANCH  12  13
ATOM     13  C   UNL     1     -15.837   2.608  29.427  0.00  0.00    -0.003 C 
ATOM     15  C   UNL     1     -16.072   3.755  28.441  0.00  0.00    +0.008 C 
ATOM     16  C   UNL     1     -16.208   1.277  28.766  0.00  0.00    +0.008 C 
ENDBRANCH  12  13
ENDBRANCH   4  12
ENDBRANCH  14   8
TORSDOF 8
ENDMDL
MODEL 10
REMARK VINA RESULT:      -5.3     27.023     29.210
REMARK  Name = 45783555
REMARK  11 active torsions:
REMARK  status: ('A' for Active; 'I' for Inactive)
REMARK    1  A    between atoms: O_2  and  C_22
REMARK    2  A    between atoms: O_2  and  C_23
REMARK    3  A    between atoms: O_3  and  C_24
REMARK    4  A    between atoms: O_3  and  C_25
REMARK    5  A    between atoms: N_4  and  C_12
REMARK    6  A    between atoms: C_8  and  C_14
REMARK    7  A    between atoms: C_12  and  C_13
REMARK    8  A    between atoms: C_13  and  C_15
REMARK    9  A    between atoms: C_13  and  C_16
REMARK   10  A    between atoms: C_17  and  C_18
REMARK   11  A    between atoms: C_23  and  C_24
REMARK                            x       y       z     vdW  Elec       q    Type
REMARK                         _______ _______ _______ _____ _____    ______ ____
ROOT
ATOM      1  O   UNL     1      -2.406 -10.062  10.845  0.00  0.00    -0.336 OA
ATOM      5  N   UNL     1      -4.291  -9.963  12.050  0.00  0.00    -0.190 NA
ATOM      6  N   UNL     1      -2.052 -10.426  12.151  0.00  0.00    -0.056 NA
ATOM     14  C   UNL     1      -3.739  -9.807  10.873  0.00  0.00    +0.245 A 
ATOM     17  C   UNL     1      -3.216 -10.343  12.801  0.00  0.00    +0.204 A 
ENDROOT
BRANCH  17  18
ATOM      7  N   UNL     1      -4.758 -11.201  16.075  0.00  0.00    -0.221 NA
ATOM     18  C   UNL     1      -3.341 -10.632  14.201  0.00  0.00    +0.041 A 
ATOM     19  C   UNL     1      -2.227 -10.626  15.035  0.00  0.00    +0.018 A 
ATOM     20  C   UNL     1      -4.572 -10.923  14.765  0.00  0.00    +0.126 A 
ATOM     21  C   UNL     1      -2.379 -10.908  16.388  0.00  0.00    +0.068 A 
ATOM     22  C   UNL     1      -3.653 -11.187  16.854  0.00  0.00    +0.215 A 
BRANCH  22   2
ATOM      2  O   UNL     1      -3.828 -11.467  18.184  0.00  0.00    -0.474 OA
BRANCH   2  23
ATOM     23  C   UNL     1      -4.965 -12.249  18.529  0.00  0.00    +0.258 C 
BRANCH  23  24
ATOM     24  C   UNL     1      -5.687 -11.589  19.687  0.00  0.00    +0.200 C 
BRANCH  24   3
ATOM      3  O   UNL     1      -6.143 -10.305  19.279  0.00  0.00    -0.380 OA
ATOM     25  C   UNL     1      -7.318 -10.395  18.488  0.00  0.00    +0.194 C 
ENDBRANCH  24   3
ENDBRANCH  23  24
ENDBRANCH   2  23
ENDBRANCH  22   2
ENDBRANCH  17  18
BRANCH  14   8
ATOM      4  N   UNL     1      -5.218 -10.450   8.977  0.00  0.00    -0.291 NA
ATOM      8  C   UNL     1      -4.374  -9.389   9.563  0.00  0.00    +0.146 C 
ATOM      9  C   UNL     1      -5.316  -8.181   9.718  0.00  0.00    +0.030 C 
ATOM     10  C   UNL     1      -6.261  -9.771   8.209  0.00  0.00    +0.085 C 
ATOM     11  C   UNL     1      -6.647  -8.638   9.137  0.00  0.00    +0.017 C 
BRANCH   4  12
ATOM     12  C   UNL     1      -4.466 -11.398   8.164  0.00  0.00    +0.088 C 
BRANCH  12  13
ATOM     13  C   UNL     1      -4.731 -12.858   8.569  0.00  0.00    -0.003 C 
ATOM     15  C   UNL     1      -4.233 -13.798   7.469  0.00  0.00    +0.008 C 
ATOM     16  C   UNL     1      -4.070 -13.226   9.900  0.00  0.00    +0.008 C 
ENDBRANCH  12  13
ENDBRANCH   4  12
ENDBRANCH  14   8
TORSDOF 8
ENDMDL
