MODEL 1
REMARK VINA RESULT:      -6.6      0.000      0.000
REMARK  Name = 51136635
REMARK  11 active torsions:
REMARK  status: ('A' for Active; 'I' for Inactive)
REMARK    1  A    between atoms: S_2  and  N_9
REMARK    2  A    between atoms: S_2  and  C_21
REMARK    3  A    between atoms: O_5  and  C_19
REMARK    4  A    between atoms: O_7  and  C_29
REMARK    5  A    between atoms: O_7  and  C_34
REMARK    6  A    between atoms: O_8  and  C_30
REMARK    7  A    between atoms: O_8  and  C_35
REMARK    8  A    between atoms: C_11  and  C_16
REMARK    9  A    between atoms: C_12  and  C_17
REMARK   10  A    between atoms: C_16  and  C_18
REMARK   11  A    between atoms: C_17  and  C_19
REMARK                            x       y       z     vdW  Elec       q    Type
REMARK                         _______ _______ _______ _____ _____    ______ ____
ROOT
ATOM      9  N   UNL     1      10.478   8.497   6.577  0.00  0.00    -0.176 NA
ATOM     11  C   UNL     1      10.458   6.022   6.800  0.00  0.00    +0.014 C 
ATOM     12  C   UNL     1       9.968   6.180   8.260  0.00  0.00    +0.006 C 
ATOM     13  C   UNL     1      11.283   7.253   6.391  0.00  0.00    +0.113 C 
ATOM     14  C   UNL     1       9.229   7.511   8.463  0.00  0.00    +0.021 C 
ATOM     15  C   UNL     1      10.073   8.693   7.997  0.00  0.00    +0.110 C 
ENDROOT
BRANCH   9   2
ATOM      2  S   UNL     1      11.089   9.890   5.788  0.00  0.00    +0.061 S 
ATOM      3  O   UNL     1      11.248  10.950   6.759  0.00  0.00    -0.153 OA
ATOM      4  O   UNL     1      10.345  10.102   4.565  0.00  0.00    -0.153 OA
BRANCH   2  21
ATOM      1 CL   UNL     1      16.813   7.839   4.233  0.00  0.00    -0.084 Cl
ATOM     21  C   UNL     1      12.700   9.313   5.350  0.00  0.00    +0.106 A 
ATOM     26  C   UNL     1      12.920   8.747   4.095  0.00  0.00    +0.030 A 
ATOM     27  C   UNL     1      13.751   9.424   6.260  0.00  0.00    +0.030 A 
ATOM     31  C   UNL     1      14.192   8.291   3.749  0.00  0.00    +0.022 A 
ATOM     32  C   UNL     1      15.023   8.968   5.915  0.00  0.00    +0.022 A 
ATOM     33  C   UNL     1      15.244   8.401   4.659  0.00  0.00    +0.041 A 
ENDBRANCH   2  21
ENDBRANCH   9   2
BRANCH  11  16
ATOM     16  C   UNL     1       9.336   5.764   5.787  0.00  0.00    +0.060 C 
BRANCH  16  18
ATOM     10  N   UNL     1      10.640   4.465   4.244  0.00  0.00    -0.287 NA
ATOM     18  C   UNL     1       9.926   5.529   4.417  0.00  0.00    +0.044 C 
ATOM     20  C   UNL     1       9.667   6.524   3.346  0.00  0.00    +0.003 A 
ATOM     22  C   UNL     1      10.518   6.491   2.235  0.00  0.00    -0.033 A 
ATOM     23  C   UNL     1      11.626   5.480   2.206  0.00  0.00    +0.059 C 
ATOM     24  C   UNL     1      11.161   4.205   2.898  0.00  0.00    +0.146 C 
ATOM     25  C   UNL     1       8.640   7.468   3.424  0.00  0.00    +0.059 A 
ATOM     28  C   UNL     1      10.353   7.428   1.211  0.00  0.00    +0.053 A 
ATOM     29  C   UNL     1       8.474   8.388   2.389  0.00  0.00    +0.162 A 
ATOM     30  C   UNL     1       9.329   8.371   1.287  0.00  0.00    +0.162 A 
BRANCH  29   7
ATOM      7  O   UNL     1       7.470   9.307   2.467  0.00  0.00    -0.491 OA
ATOM     34  C   UNL     1       6.896   9.530   3.753  0.00  0.00    +0.277 C 
ENDBRANCH  29   7
BRANCH  30   8
ATOM      8  O   UNL     1       9.174   9.272   0.277  0.00  0.00    -0.491 OA
ATOM     35  C   UNL     1      10.337   9.988  -0.136  0.00  0.00    +0.277 C 
ENDBRANCH  30   8
ENDBRANCH  16  18
ENDBRANCH  11  16
BRANCH  12  17
ATOM     17  C   UNL     1       9.107   5.009   8.734  0.00  0.00    +0.124 C 
BRANCH  17  19
ATOM      6  O   UNL     1      10.374   4.518  10.759  0.00  0.00    -0.251 OA
ATOM     19  C   UNL     1       9.308   4.729  10.198  0.00  0.00    +0.305 C 
BRANCH  19   5
ATOM      5  O   UNL     1       8.111   4.748  10.837  0.00  0.00    -0.481 OA
ATOM     36  H   UNL     1       8.093   5.408  11.562  0.00  0.00    +0.295 HD
ENDBRANCH  19   5
ENDBRANCH  17  19
ENDBRANCH  12  17
TORSDOF 9
ENDMDL
MODEL 2
REMARK VINA RESULT:      -6.5     23.732     27.740
REMARK  Name = 51136635
REMARK  11 active torsions:
REMARK  status: ('A' for Active; 'I' for Inactive)
REMARK    1  A    between atoms: S_2  and  N_9
REMARK    2  A    between atoms: S_2  and  C_21
REMARK    3  A    between atoms: O_5  and  C_19
REMARK    4  A    between atoms: O_7  and  C_29
REMARK    5  A    between atoms: O_7  and  C_34
REMARK    6  A    between atoms: O_8  and  C_30
REMARK    7  A    between atoms: O_8  and  C_35
REMARK    8  A    between atoms: C_11  and  C_16
REMARK    9  A    between atoms: C_12  and  C_17
REMARK   10  A    between atoms: C_16  and  C_18
REMARK   11  A    between atoms: C_17  and  C_19
REMARK                            x       y       z     vdW  Elec       q    Type
REMARK                         _______ _______ _______ _____ _____    ______ ____
ROOT
ATOM      9  N   UNL     1      -6.921 -12.531  18.143  0.00  0.00    -0.176 NA
ATOM     11  C   UNL     1      -4.817 -12.840  16.856  0.00  0.00    +0.014 C 
ATOM     12  C   UNL     1      -5.397 -14.147  16.265  0.00  0.00    +0.006 C 
ATOM     13  C   UNL     1      -5.431 -12.576  18.241  0.00  0.00    +0.113 C 
ATOM     14  C   UNL     1      -6.933 -14.130  16.264  0.00  0.00    +0.021 C 
ATOM     15  C   UNL     1      -7.488 -13.818  17.651  0.00  0.00    +0.110 C 
ENDROOT
BRANCH   9   2
ATOM      2  S   UNL     1      -7.722 -11.843  19.492  0.00  0.00    +0.061 S 
ATOM      3  O   UNL     1      -6.746 -11.206  20.347  0.00  0.00    -0.153 OA
ATOM      4  O   UNL     1      -8.662 -12.809  20.022  0.00  0.00    -0.153 OA
BRANCH   2  21
ATOM      1 CL   UNL     1     -11.008  -7.327  16.630  0.00  0.00    -0.084 Cl
ATOM     21  C   UNL     1      -8.647 -10.573  18.686  0.00  0.00    +0.106 A 
ATOM     26  C   UNL     1      -8.018  -9.725  17.775  0.00  0.00    +0.030 A 
ATOM     27  C   UNL     1     -10.006 -10.418  18.962  0.00  0.00    +0.030 A 
ATOM     31  C   UNL     1      -8.749  -8.721  17.139  0.00  0.00    +0.022 A 
ATOM     32  C   UNL     1     -10.736  -9.414  18.326  0.00  0.00    +0.022 A 
ATOM     33  C   UNL     1     -10.107  -8.565  17.414  0.00  0.00    +0.041 A 
ENDBRANCH   2  21
ENDBRANCH   9   2
BRANCH  11  16
ATOM     16  C   UNL     1      -4.985 -11.615  15.950  0.00  0.00    +0.060 C 
BRANCH  16  18
ATOM     10  N   UNL     1      -2.607 -11.282  15.950  0.00  0.00    -0.287 NA
ATOM     18  C   UNL     1      -3.686 -11.321  15.239  0.00  0.00    +0.044 C 
ATOM     20  C   UNL     1      -3.710 -11.085  13.773  0.00  0.00    +0.003 A 
ATOM     22  C   UNL     1      -2.593 -10.446  13.219  0.00  0.00    -0.033 A 
ATOM     23  C   UNL     1      -1.473 -10.036  14.128  0.00  0.00    +0.059 C 
ATOM     24  C   UNL     1      -1.337 -11.056  15.251  0.00  0.00    +0.146 C 
ATOM     25  C   UNL     1      -4.786 -11.458  12.965  0.00  0.00    +0.059 A 
ATOM     28  C   UNL     1      -2.571 -10.158  11.851  0.00  0.00    +0.053 A 
ATOM     29  C   UNL     1      -4.747 -11.180  11.599  0.00  0.00    +0.162 A 
ATOM     30  C   UNL     1      -3.645 -10.530  11.043  0.00  0.00    +0.162 A 
BRANCH  29   7
ATOM      7  O   UNL     1      -5.798 -11.547  10.812  0.00  0.00    -0.491 OA
ATOM     34  C   UNL     1      -7.020 -10.833  10.990  0.00  0.00    +0.277 C 
ENDBRANCH  29   7
BRANCH  30   8
ATOM      8  O   UNL     1      -3.606 -10.250   9.710  0.00  0.00    -0.491 OA
ATOM     35  C   UNL     1      -4.065  -8.962   9.304  0.00  0.00    +0.277 C 
ENDBRANCH  30   8
ENDBRANCH  16  18
ENDBRANCH  11  16
BRANCH  12  17
ATOM     17  C   UNL     1      -4.862 -14.465  14.869  0.00  0.00    +0.124 C 
BRANCH  17  19
ATOM      6  O   UNL     1      -3.438 -16.437  15.033  0.00  0.00    -0.251 OA
ATOM     19  C   UNL     1      -3.566 -15.226  14.931  0.00  0.00    +0.305 C 
BRANCH  19   5
ATOM      5  O   UNL     1      -2.523 -14.361  14.852  0.00  0.00    -0.481 OA
ATOM     36  H   UNL     1      -2.496 -13.899  13.987  0.00  0.00    +0.295 HD
ENDBRANCH  19   5
ENDBRANCH  17  19
ENDBRANCH  12  17
TORSDOF 9
ENDMDL
MODEL 3
REMARK VINA RESULT:      -6.5     24.027     27.546
REMARK  Name = 51136635
REMARK  11 active torsions:
REMARK  status: ('A' for Active; 'I' for Inactive)
REMARK    1  A    between atoms: S_2  and  N_9
REMARK    2  A    between atoms: S_2  and  C_21
REMARK    3  A    between atoms: O_5  and  C_19
REMARK    4  A    between atoms: O_7  and  C_29
REMARK    5  A    between atoms: O_7  and  C_34
REMARK    6  A    between atoms: O_8  and  C_30
REMARK    7  A    between atoms: O_8  and  C_35
REMARK    8  A    between atoms: C_11  and  C_16
REMARK    9  A    between atoms: C_12  and  C_17
REMARK   10  A    between atoms: C_16  and  C_18
REMARK   11  A    between atoms: C_17  and  C_19
REMARK                            x       y       z     vdW  Elec       q    Type
REMARK                         _______ _______ _______ _____ _____    ______ ____
ROOT
ATOM      9  N   UNL     1      -3.297 -11.132  13.745  0.00  0.00    -0.176 NA
ATOM     11  C   UNL     1      -4.910 -11.369  15.620  0.00  0.00    +0.014 C 
ATOM     12  C   UNL     1      -3.720 -11.576  16.588  0.00  0.00    +0.006 C 
ATOM     13  C   UNL     1      -4.524 -11.845  14.210  0.00  0.00    +0.113 C 
ATOM     14  C   UNL     1      -2.438 -10.925  16.048  0.00  0.00    +0.021 C 
ATOM     15  C   UNL     1      -2.128 -11.395  14.631  0.00  0.00    +0.110 C 
ENDROOT
BRANCH   9   2
ATOM      2  S   UNL     1      -2.982 -11.237  12.064  0.00  0.00    +0.061 S 
ATOM      3  O   UNL     1      -2.935 -12.630  11.678  0.00  0.00    -0.153 OA
ATOM      4  O   UNL     1      -1.902 -10.333  11.731  0.00  0.00    -0.153 OA
BRANCH   2  21
ATOM      1 CL   UNL     1      -8.304  -8.798   9.803  0.00  0.00    -0.084 Cl
ATOM     21  C   UNL     1      -4.480 -10.550  11.427  0.00  0.00    +0.106 A 
ATOM     26  C   UNL     1      -4.684  -9.171  11.463  0.00  0.00    +0.030 A 
ATOM     27  C   UNL     1      -5.457 -11.387  10.889  0.00  0.00    +0.030 A 
ATOM     31  C   UNL     1      -5.868  -8.629  10.960  0.00  0.00    +0.022 A 
ATOM     32  C   UNL     1      -6.640 -10.846  10.387  0.00  0.00    +0.022 A 
ATOM     33  C   UNL     1      -6.845  -9.466  10.423  0.00  0.00    +0.041 A 
ENDBRANCH   2  21
ENDBRANCH   9   2
BRANCH  11  16
ATOM     16  C   UNL     1      -5.440  -9.931  15.578  0.00  0.00    +0.060 C 
BRANCH  16  18
ATOM     10  N   UNL     1      -7.329  -9.805  14.100  0.00  0.00    -0.287 NA
ATOM     18  C   UNL     1      -6.928  -9.939  15.322  0.00  0.00    +0.044 C 
ATOM     20  C   UNL     1      -7.852 -10.093  16.475  0.00  0.00    +0.003 A 
ATOM     22  C   UNL     1      -9.184  -9.714  16.269  0.00  0.00    -0.033 A 
ATOM     23  C   UNL     1      -9.582  -9.174  14.927  0.00  0.00    +0.059 C 
ATOM     24  C   UNL     1      -8.772  -9.874  13.844  0.00  0.00    +0.146 C 
ATOM     25  C   UNL     1      -7.435 -10.574  17.717  0.00  0.00    +0.059 A 
ATOM     28  C   UNL     1     -10.096  -9.795  17.326  0.00  0.00    +0.053 A 
ATOM     29  C   UNL     1      -8.356 -10.666  18.761  0.00  0.00    +0.162 A 
ATOM     30  C   UNL     1      -9.682 -10.276  18.568  0.00  0.00    +0.162 A 
BRANCH  29   7
ATOM      7  O   UNL     1      -7.947 -11.138  19.973  0.00  0.00    -0.491 OA
ATOM     34  C   UNL     1      -7.756 -12.547  20.088  0.00  0.00    +0.277 C 
ENDBRANCH  29   7
BRANCH  30   8
ATOM      8  O   UNL     1     -10.582 -10.357  19.587  0.00  0.00    -0.491 OA
ATOM     35  C   UNL     1     -11.451 -11.488  19.596  0.00  0.00    +0.277 C 
ENDBRANCH  30   8
ENDBRANCH  16  18
ENDBRANCH  11  16
BRANCH  12  17
ATOM     17  C   UNL     1      -4.011 -11.095  18.010  0.00  0.00    +0.124 C 
BRANCH  17  19
ATOM      6  O   UNL     1      -3.332 -12.172  20.088  0.00  0.00    -0.251 OA
ATOM     19  C   UNL     1      -3.902 -12.214  19.008  0.00  0.00    +0.305 C 
BRANCH  19   5
ATOM      5  O   UNL     1      -4.545 -13.312  18.537  0.00  0.00    -0.481 OA
ATOM     36  H   UNL     1      -3.937 -14.076  18.434  0.00  0.00    +0.295 HD
ENDBRANCH  19   5
ENDBRANCH  17  19
ENDBRANCH  12  17
TORSDOF 9
ENDMDL
MODEL 4
REMARK VINA RESULT:      -6.3     24.034     28.072
REMARK  Name = 51136635
REMARK  11 active torsions:
REMARK  status: ('A' for Active; 'I' for Inactive)
REMARK    1  A    between atoms: S_2  and  N_9
REMARK    2  A    between atoms: S_2  and  C_21
REMARK    3  A    between atoms: O_5  and  C_19
REMARK    4  A    between atoms: O_7  and  C_29
REMARK    5  A    between atoms: O_7  and  C_34
REMARK    6  A    between atoms: O_8  and  C_30
REMARK    7  A    between atoms: O_8  and  C_35
REMARK    8  A    between atoms: C_11  and  C_16
REMARK    9  A    between atoms: C_12  and  C_17
REMARK   10  A    between atoms: C_16  and  C_18
REMARK   11  A    between atoms: C_17  and  C_19
REMARK                            x       y       z     vdW  Elec       q    Type
REMARK                         _______ _______ _______ _____ _____    ______ ____
ROOT
ATOM      9  N   UNL     1      -3.871 -11.713  15.433  0.00  0.00    -0.176 NA
ATOM     11  C   UNL     1      -5.734 -12.130  17.024  0.00  0.00    +0.014 C 
ATOM     12  C   UNL     1      -5.158 -11.032  17.951  0.00  0.00    +0.006 C 
ATOM     13  C   UNL     1      -4.601 -12.765  16.202  0.00  0.00    +0.113 C 
ATOM     14  C   UNL     1      -4.323 -10.012  17.162  0.00  0.00    +0.021 C 
ATOM     15  C   UNL     1      -3.246 -10.699  16.329  0.00  0.00    +0.110 C 
ENDROOT
BRANCH   9   2
ATOM      2  S   UNL     1      -2.869 -12.293  14.169  0.00  0.00    +0.061 S 
ATOM      3  O   UNL     1      -3.291 -13.628  13.807  0.00  0.00    -0.153 OA
ATOM      4  O   UNL     1      -1.488 -12.009  14.496  0.00  0.00    -0.153 OA
BRANCH   2  21
ATOM      1 CL   UNL     1      -4.591  -8.416   9.544  0.00  0.00    -0.084 Cl
ATOM     21  C   UNL     1      -3.354 -11.201  12.868  0.00  0.00    +0.106 A 
ATOM     26  C   UNL     1      -4.648 -10.683  12.839  0.00  0.00    +0.030 A 
ATOM     27  C   UNL     1      -2.442 -10.859  11.870  0.00  0.00    +0.030 A 
ATOM     31  C   UNL     1      -5.031  -9.821  11.811  0.00  0.00    +0.022 A 
ATOM     32  C   UNL     1      -2.825  -9.997  10.842  0.00  0.00    +0.022 A 
ATOM     33  C   UNL     1      -4.120  -9.478  10.812  0.00  0.00    +0.041 A 
ENDBRANCH   2  21
ENDBRANCH   9   2
BRANCH  11  16
ATOM     16  C   UNL     1      -6.861 -11.644  16.104  0.00  0.00    +0.060 C 
BRANCH  16  18
ATOM     10  N   UNL     1      -8.252 -13.474  16.799  0.00  0.00    -0.287 NA
ATOM     18  C   UNL     1      -8.183 -12.203  16.573  0.00  0.00    +0.044 C 
ATOM     20  C   UNL     1      -9.331 -11.277  16.744  0.00  0.00    +0.003 A 
ATOM     22  C   UNL     1     -10.605 -11.856  16.796  0.00  0.00    -0.033 A 
ATOM     23  C   UNL     1     -10.726 -13.345  16.663  0.00  0.00    +0.059 C 
ATOM     24  C   UNL     1      -9.518 -14.007  17.313  0.00  0.00    +0.146 C 
ATOM     25  C   UNL     1      -9.177  -9.892  16.836  0.00  0.00    +0.059 A 
ATOM     28  C   UNL     1     -11.731 -11.036  16.914  0.00  0.00    +0.053 A 
ATOM     29  C   UNL     1     -10.306  -9.084  16.969  0.00  0.00    +0.162 A 
ATOM     30  C   UNL     1     -11.580  -9.653  17.005  0.00  0.00    +0.162 A 
BRANCH  29   7
ATOM      7  O   UNL     1     -10.153  -7.732  17.060  0.00  0.00    -0.491 OA
ATOM     34  C   UNL     1     -10.125  -7.000  15.837  0.00  0.00    +0.277 C 
ENDBRANCH  29   7
BRANCH  30   8
ATOM      8  O   UNL     1     -12.685  -8.866  17.129  0.00  0.00    -0.491 OA
ATOM     35  C   UNL     1     -13.481  -8.678  15.960  0.00  0.00    +0.277 C 
ENDBRANCH  30   8
ENDBRANCH  16  18
ENDBRANCH  11  16
BRANCH  12  17
ATOM     17  C   UNL     1      -6.229 -10.324  18.781  0.00  0.00    +0.124 C 
BRANCH  17  19
ATOM      6  O   UNL     1      -7.885 -11.664  19.966  0.00  0.00    -0.251 OA
ATOM     19  C   UNL     1      -6.755 -11.207  19.879  0.00  0.00    +0.305 C 
BRANCH  19   5
ATOM      5  O   UNL     1      -5.775 -11.439  20.789  0.00  0.00    -0.481 OA
ATOM     36  H   UNL     1      -5.298 -10.616  21.031  0.00  0.00    +0.295 HD
ENDBRANCH  19   5
ENDBRANCH  17  19
ENDBRANCH  12  17
TORSDOF 9
ENDMDL
MODEL 5
REMARK VINA RESULT:      -6.2      2.794      5.437
REMARK  Name = 51136635
REMARK  11 active torsions:
REMARK  status: ('A' for Active; 'I' for Inactive)
REMARK    1  A    between atoms: S_2  and  N_9
REMARK    2  A    between atoms: S_2  and  C_21
REMARK    3  A    between atoms: O_5  and  C_19
REMARK    4  A    between atoms: O_7  and  C_29
REMARK    5  A    between atoms: O_7  and  C_34
REMARK    6  A    between atoms: O_8  and  C_30
REMARK    7  A    between atoms: O_8  and  C_35
REMARK    8  A    between atoms: C_11  and  C_16
REMARK    9  A    between atoms: C_12  and  C_17
REMARK   10  A    between atoms: C_16  and  C_18
REMARK   11  A    between atoms: C_17  and  C_19
REMARK                            x       y       z     vdW  Elec       q    Type
REMARK                         _______ _______ _______ _____ _____    ______ ____
ROOT
ATOM      9  N   UNL     1       9.469   7.454   5.466  0.00  0.00    -0.176 NA
ATOM     11  C   UNL     1       8.375   8.055   3.317  0.00  0.00    +0.014 C 
ATOM     12  C   UNL     1       7.479   9.059   4.080  0.00  0.00    +0.006 C 
ATOM     13  C   UNL     1       8.788   6.908   4.254  0.00  0.00    +0.113 C 
ATOM     14  C   UNL     1       8.147   9.535   5.378  0.00  0.00    +0.021 C 
ATOM     15  C   UNL     1       8.579   8.358   6.247  0.00  0.00    +0.110 C 
ENDROOT
BRANCH   9   2
ATOM      2  S   UNL     1      10.346   6.309   6.391  0.00  0.00    +0.061 S 
ATOM      3  O   UNL     1      10.104   4.986   5.858  0.00  0.00    -0.153 OA
ATOM      4  O   UNL     1      10.153   6.594   7.797  0.00  0.00    -0.153 OA
BRANCH   2  21
ATOM      1 CL   UNL     1      16.212   7.947   4.877  0.00  0.00    -0.084 Cl
ATOM     21  C   UNL     1      11.997   6.770   5.966  0.00  0.00    +0.106 A 
ATOM     26  C   UNL     1      12.978   6.839   6.954  0.00  0.00    +0.030 A 
ATOM     27  C   UNL     1      12.319   7.064   4.641  0.00  0.00    +0.030 A 
ATOM     31  C   UNL     1      14.282   7.203   6.618  0.00  0.00    +0.022 A 
ATOM     32  C   UNL     1      13.622   7.428   4.304  0.00  0.00    +0.022 A 
ATOM     33  C   UNL     1      14.604   7.498   5.293  0.00  0.00    +0.041 A 
ENDBRANCH   2  21
ENDBRANCH   9   2
BRANCH  11  16
ATOM     16  C   UNL     1       9.610   8.688   2.664  0.00  0.00    +0.060 C 
BRANCH  16  18
ATOM     10  N   UNL     1       9.148   9.500   0.452  0.00  0.00    -0.287 NA
ATOM     18  C   UNL     1       9.552   8.502   1.167  0.00  0.00    +0.044 C 
ATOM     20  C   UNL     1       9.950   7.191   0.593  0.00  0.00    +0.003 A 
ATOM     22  C   UNL     1       9.526   6.921  -0.714  0.00  0.00    -0.033 A 
ATOM     23  C   UNL     1       8.701   7.948  -1.432  0.00  0.00    +0.059 C 
ATOM     24  C   UNL     1       9.150   9.340  -1.006  0.00  0.00    +0.146 C 
ATOM     25  C   UNL     1      10.697   6.250   1.305  0.00  0.00    +0.059 A 
ATOM     28  C   UNL     1       9.833   5.688  -1.298  0.00  0.00    +0.053 A 
ATOM     29  C   UNL     1      11.011   5.029   0.708  0.00  0.00    +0.162 A 
ATOM     30  C   UNL     1      10.579   4.747  -0.588  0.00  0.00    +0.162 A 
BRANCH  29   7
ATOM      7  O   UNL     1      11.741   4.113   1.405  0.00  0.00    -0.491 OA
ATOM     34  C   UNL     1      11.231   3.708   2.673  0.00  0.00    +0.277 C 
ENDBRANCH  29   7
BRANCH  30   8
ATOM      8  O   UNL     1      10.877   3.553  -1.173  0.00  0.00    -0.491 OA
ATOM     35  C   UNL     1      11.949   3.542  -2.114  0.00  0.00    +0.277 C 
ENDBRANCH  30   8
ENDBRANCH  16  18
ENDBRANCH  11  16
BRANCH  12  17
ATOM     17  C   UNL     1       7.051  10.253   3.225  0.00  0.00    +0.124 C 
BRANCH  17  19
ATOM      6  O   UNL     1       4.675   9.898   2.814  0.00  0.00    -0.251 OA
ATOM     19  C   UNL     1       5.827   9.941   2.409  0.00  0.00    +0.305 C 
BRANCH  19   5
ATOM      5  O   UNL     1       6.183   9.711   1.120  0.00  0.00    -0.481 OA
ATOM     36  H   UNL     1       6.355  10.545   0.632  0.00  0.00    +0.295 HD
ENDBRANCH  19   5
ENDBRANCH  17  19
ENDBRANCH  12  17
TORSDOF 9
ENDMDL
MODEL 6
REMARK VINA RESULT:      -6.1     23.446     27.243
REMARK  Name = 51136635
REMARK  11 active torsions:
REMARK  status: ('A' for Active; 'I' for Inactive)
REMARK    1  A    between atoms: S_2  and  N_9
REMARK    2  A    between atoms: S_2  and  C_21
REMARK    3  A    between atoms: O_5  and  C_19
REMARK    4  A    between atoms: O_7  and  C_29
REMARK    5  A    between atoms: O_7  and  C_34
REMARK    6  A    between atoms: O_8  and  C_30
REMARK    7  A    between atoms: O_8  and  C_35
REMARK    8  A    between atoms: C_11  and  C_16
REMARK    9  A    between atoms: C_12  and  C_17
REMARK   10  A    between atoms: C_16  and  C_18
REMARK   11  A    between atoms: C_17  and  C_19
REMARK                            x       y       z     vdW  Elec       q    Type
REMARK                         _______ _______ _______ _____ _____    ______ ____
ROOT
ATOM      9  N   UNL     1      -3.653 -11.578  15.365  0.00  0.00    -0.176 NA
ATOM     11  C   UNL     1      -6.013 -12.087  15.955  0.00  0.00    +0.014 C 
ATOM     12  C   UNL     1      -5.771 -11.477  17.356  0.00  0.00    +0.006 C 
ATOM     13  C   UNL     1      -4.695 -12.647  15.395  0.00  0.00    +0.113 C 
ATOM     14  C   UNL     1      -4.628 -10.452  17.333  0.00  0.00    +0.021 C 
ATOM     15  C   UNL     1      -3.360 -11.045  16.726  0.00  0.00    +0.110 C 
ENDROOT
BRANCH   9   2
ATOM      2  S   UNL     1      -2.280 -11.920  14.399  0.00  0.00    +0.061 S 
ATOM      3  O   UNL     1      -2.266 -13.332  14.083  0.00  0.00    -0.153 OA
ATOM      4  O   UNL     1      -1.123 -11.274  14.981  0.00  0.00    -0.153 OA
BRANCH   2  21
ATOM      1 CL   UNL     1      -3.810  -8.796   9.175  0.00  0.00    -0.084 Cl
ATOM     21  C   UNL     1      -2.711 -11.041  12.930  0.00  0.00    +0.106 A 
ATOM     26  C   UNL     1      -4.018 -11.091  12.445  0.00  0.00    +0.030 A 
ATOM     27  C   UNL     1      -1.744 -10.297  12.253  0.00  0.00    +0.030 A 
ATOM     31  C   UNL     1      -4.358 -10.397  11.284  0.00  0.00    +0.022 A 
ATOM     32  C   UNL     1      -2.084  -9.603  11.093  0.00  0.00    +0.022 A 
ATOM     33  C   UNL     1      -3.391  -9.653  10.607  0.00  0.00    +0.041 A 
ENDBRANCH   2  21
ENDBRANCH   9   2
BRANCH  11  16
ATOM     16  C   UNL     1      -6.656 -11.120  14.954  0.00  0.00    +0.060 C 
BRANCH  16  18
ATOM     10  N   UNL     1      -8.150 -12.872  14.271  0.00  0.00    -0.287 NA
ATOM     18  C   UNL     1      -8.027 -11.619  14.565  0.00  0.00    +0.044 C 
ATOM     20  C   UNL     1      -9.157 -10.656  14.534  0.00  0.00    +0.003 A 
ATOM     22  C   UNL     1     -10.295 -11.043  13.815  0.00  0.00    -0.033 A 
ATOM     23  C   UNL     1     -10.293 -12.374  13.124  0.00  0.00    +0.059 C 
ATOM     24  C   UNL     1      -9.492 -13.370  13.953  0.00  0.00    +0.146 C 
ATOM     25  C   UNL     1      -9.108  -9.413  15.169  0.00  0.00    +0.059 A 
ATOM     28  C   UNL     1     -11.378 -10.164  13.712  0.00  0.00    +0.053 A 
ATOM     29  C   UNL     1     -10.200  -8.550  15.074  0.00  0.00    +0.162 A 
ATOM     30  C   UNL     1     -11.331  -8.923  14.345  0.00  0.00    +0.162 A 
BRANCH  29   7
ATOM      7  O   UNL     1     -10.151  -7.339  15.696  0.00  0.00    -0.491 OA
ATOM     34  C   UNL     1     -10.457  -7.313  17.088  0.00  0.00    +0.277 C 
ENDBRANCH  29   7
BRANCH  30   8
ATOM      8  O   UNL     1     -12.396  -8.080  14.244  0.00  0.00    -0.491 OA
ATOM     35  C   UNL     1     -12.502  -7.309  13.049  0.00  0.00    +0.277 C 
ENDBRANCH  30   8
ENDBRANCH  16  18
ENDBRANCH  11  16
BRANCH  12  17
ATOM     17  C   UNL     1      -7.030 -10.864  17.971  0.00  0.00    +0.124 C 
BRANCH  17  19
ATOM      6  O   UNL     1      -7.390 -12.092  20.046  0.00  0.00    -0.251 OA
ATOM     19  C   UNL     1      -7.076 -11.066  19.460  0.00  0.00    +0.305 C 
BRANCH  19   5
ATOM      5  O   UNL     1      -6.707  -9.921  20.089  0.00  0.00    -0.481 OA
ATOM     36  H   UNL     1      -7.432  -9.557  20.641  0.00  0.00    +0.295 HD
ENDBRANCH  19   5
ENDBRANCH  17  19
ENDBRANCH  12  17
TORSDOF 9
ENDMDL
MODEL 7
REMARK VINA RESULT:      -6.0      1.974      2.499
REMARK  Name = 51136635
REMARK  11 active torsions:
REMARK  status: ('A' for Active; 'I' for Inactive)
REMARK    1  A    between atoms: S_2  and  N_9
REMARK    2  A    between atoms: S_2  and  C_21
REMARK    3  A    between atoms: O_5  and  C_19
REMARK    4  A    between atoms: O_7  and  C_29
REMARK    5  A    between atoms: O_7  and  C_34
REMARK    6  A    between atoms: O_8  and  C_30
REMARK    7  A    between atoms: O_8  and  C_35
REMARK    8  A    between atoms: C_11  and  C_16
REMARK    9  A    between atoms: C_12  and  C_17
REMARK   10  A    between atoms: C_16  and  C_18
REMARK   11  A    between atoms: C_17  and  C_19
REMARK                            x       y       z     vdW  Elec       q    Type
REMARK                         _______ _______ _______ _____ _____    ______ ____
ROOT
ATOM      9  N   UNL     1      12.298   8.440   5.933  0.00  0.00    -0.176 NA
ATOM     11  C   UNL     1      11.186   6.217   5.959  0.00  0.00    +0.014 C 
ATOM     12  C   UNL     1      10.684   6.509   7.393  0.00  0.00    +0.006 C 
ATOM     13  C   UNL     1      12.497   6.978   5.699  0.00  0.00    +0.113 C 
ATOM     14  C   UNL     1      10.582   8.019   7.656  0.00  0.00    +0.021 C 
ATOM     15  C   UNL     1      11.893   8.731   7.338  0.00  0.00    +0.110 C 
ENDROOT
BRANCH   9   2
ATOM      2  S   UNL     1      13.521   9.456   5.296  0.00  0.00    +0.061 S 
ATOM      3  O   UNL     1      14.741   9.256   6.048  0.00  0.00    -0.153 OA
ATOM      4  O   UNL     1      12.975  10.782   5.100  0.00  0.00    -0.153 OA
BRANCH   2  21
ATOM      1 CL   UNL     1      14.292   6.834  -0.353  0.00  0.00    -0.084 Cl
ATOM     21  C   UNL     1      13.738   8.718   3.707  0.00  0.00    +0.106 A 
ATOM     26  C   UNL     1      14.733   7.760   3.513  0.00  0.00    +0.030 A 
ATOM     27  C   UNL     1      12.914   9.093   2.646  0.00  0.00    +0.030 A 
ATOM     31  C   UNL     1      14.905   7.177   2.257  0.00  0.00    +0.022 A 
ATOM     32  C   UNL     1      13.085   8.511   1.390  0.00  0.00    +0.022 A 
ATOM     33  C   UNL     1      14.081   7.553   1.196  0.00  0.00    +0.041 A 
ENDBRANCH   2  21
ENDBRANCH   9   2
BRANCH  11  16
ATOM     16  C   UNL     1      10.159   6.523   4.862  0.00  0.00    +0.060 C 
BRANCH  16  18
ATOM     10  N   UNL     1      10.869   4.475   3.829  0.00  0.00    -0.287 NA
ATOM     18  C   UNL     1      10.445   5.682   3.641  0.00  0.00    +0.044 C 
ATOM     20  C   UNL     1      10.235   6.276   2.297  0.00  0.00    +0.003 A 
ATOM     22  C   UNL     1      10.861   5.636   1.220  0.00  0.00    -0.033 A 
ATOM     23  C   UNL     1      11.699   4.422   1.491  0.00  0.00    +0.059 C 
ATOM     24  C   UNL     1      11.089   3.637   2.645  0.00  0.00    +0.146 C 
ATOM     25  C   UNL     1       9.468   7.424   2.090  0.00  0.00    +0.059 A 
ATOM     28  C   UNL     1      10.736   6.168  -0.066  0.00  0.00    +0.053 A 
ATOM     29  C   UNL     1       9.337   7.939   0.800  0.00  0.00    +0.162 A 
ATOM     30  C   UNL     1       9.971   7.315  -0.275  0.00  0.00    +0.162 A 
BRANCH  29   7
ATOM      7  O   UNL     1       8.586   9.059   0.601  0.00  0.00    -0.491 OA
ATOM     34  C   UNL     1       9.177  10.307   0.960  0.00  0.00    +0.277 C 
ENDBRANCH  29   7
BRANCH  30   8
ATOM      8  O   UNL     1       9.851   7.819  -1.535  0.00  0.00    -0.491 OA
ATOM     35  C   UNL     1       8.939   7.161  -2.412  0.00  0.00    +0.277 C 
ENDBRANCH  30   8
ENDBRANCH  16  18
ENDBRANCH  11  16
BRANCH  12  17
ATOM     17  C   UNL     1       9.362   5.815   7.721  0.00  0.00    +0.124 C 
BRANCH  17  19
ATOM      6  O   UNL     1       8.977   4.669   9.837  0.00  0.00    -0.251 OA
ATOM     19  C   UNL     1       9.541   4.739   8.756  0.00  0.00    +0.305 C 
BRANCH  19   5
ATOM      5  O   UNL     1      10.441   3.824   8.314  0.00  0.00    -0.481 OA
ATOM     36  H   UNL     1      10.371   3.680   7.345  0.00  0.00    +0.295 HD
ENDBRANCH  19   5
ENDBRANCH  17  19
ENDBRANCH  12  17
TORSDOF 9
ENDMDL
MODEL 8
REMARK VINA RESULT:      -5.9     40.205     42.356
REMARK  Name = 51136635
REMARK  11 active torsions:
REMARK  status: ('A' for Active; 'I' for Inactive)
REMARK    1  A    between atoms: S_2  and  N_9
REMARK    2  A    between atoms: S_2  and  C_21
REMARK    3  A    between atoms: O_5  and  C_19
REMARK    4  A    between atoms: O_7  and  C_29
REMARK    5  A    between atoms: O_7  and  C_34
REMARK    6  A    between atoms: O_8  and  C_30
REMARK    7  A    between atoms: O_8  and  C_35
REMARK    8  A    between atoms: C_11  and  C_16
REMARK    9  A    between atoms: C_12  and  C_17
REMARK   10  A    between atoms: C_16  and  C_18
REMARK   11  A    between atoms: C_17  and  C_19
REMARK                            x       y       z     vdW  Elec       q    Type
REMARK                         _______ _______ _______ _____ _____    ______ ____
ROOT
ATOM      9  N   UNL     1      -8.269  -6.112  41.062  0.00  0.00    -0.176 NA
ATOM     11  C   UNL     1      -6.731  -7.283  39.500  0.00  0.00    +0.014 C 
ATOM     12  C   UNL     1      -5.541  -6.532  40.145  0.00  0.00    +0.006 C 
ATOM     13  C   UNL     1      -8.011  -6.440  39.629  0.00  0.00    +0.113 C 
ATOM     14  C   UNL     1      -5.858  -6.110  41.587  0.00  0.00    +0.021 C 
ATOM     15  C   UNL     1      -7.160  -5.318  41.663  0.00  0.00    +0.110 C 
ENDROOT
BRANCH   9   2
ATOM      2  S   UNL     1      -9.849  -5.547  41.411  0.00  0.00    +0.061 S 
ATOM      3  O   UNL     1      -9.925  -5.192  42.811  0.00  0.00    -0.153 OA
ATOM      4  O   UNL     1     -10.812  -6.448  40.816  0.00  0.00    -0.153 OA
BRANCH   2  21
ATOM      1 CL   UNL     1      -9.864  -0.229  38.078  0.00  0.00    -0.084 Cl
ATOM     21  C   UNL     1      -9.854  -4.050  40.473  0.00  0.00    +0.106 A 
ATOM     26  C   UNL     1     -10.584  -3.973  39.288  0.00  0.00    +0.030 A 
ATOM     27  C   UNL     1      -9.127  -2.946  40.918  0.00  0.00    +0.030 A 
ATOM     31  C   UNL     1     -10.587  -2.791  38.547  0.00  0.00    +0.022 A 
ATOM     32  C   UNL     1      -9.130  -1.765  40.178  0.00  0.00    +0.022 A 
ATOM     33  C   UNL     1      -9.860  -1.687  38.992  0.00  0.00    +0.041 A 
ENDBRANCH   2  21
ENDBRANCH   9   2
BRANCH  11  16
ATOM     16  C   UNL     1      -6.957  -8.693  40.058  0.00  0.00    +0.060 C 
BRANCH  16  18
ATOM     10  N   UNL     1      -6.256 -10.186  38.312  0.00  0.00    -0.287 NA
ATOM     18  C   UNL     1      -7.257  -9.649  38.928  0.00  0.00    +0.044 C 
ATOM     20  C   UNL     1      -8.675  -9.920  38.577  0.00  0.00    +0.003 A 
ATOM     22  C   UNL     1      -8.916 -10.481  37.317  0.00  0.00    -0.033 A 
ATOM     23  C   UNL     1      -7.750 -10.754  36.414  0.00  0.00    +0.059 C 
ATOM     24  C   UNL     1      -6.547 -11.161  37.255  0.00  0.00    +0.146 C 
ATOM     25  C   UNL     1      -9.735  -9.626  39.437  0.00  0.00    +0.059 A 
ATOM     28  C   UNL     1     -10.231 -10.723  36.909  0.00  0.00    +0.053 A 
ATOM     29  C   UNL     1     -11.043  -9.885  39.027  0.00  0.00    +0.162 A 
ATOM     30  C   UNL     1     -11.291 -10.429  37.766  0.00  0.00    +0.162 A 
BRANCH  29   7
ATOM      7  O   UNL     1     -12.076  -9.598  39.868  0.00  0.00    -0.491 OA
ATOM     34  C   UNL     1     -11.853  -9.808  41.261  0.00  0.00    +0.277 C 
ENDBRANCH  29   7
BRANCH  30   8
ATOM      8  O   UNL     1     -12.568 -10.677  37.359  0.00  0.00    -0.491 OA
ATOM     35  C   UNL     1     -12.764 -10.955  35.974  0.00  0.00    +0.277 C 
ENDBRANCH  30   8
ENDBRANCH  16  18
ENDBRANCH  11  16
BRANCH  12  17
ATOM     17  C   UNL     1      -4.233  -7.320  40.090  0.00  0.00    +0.124 C 
BRANCH  17  19
ATOM      6  O   UNL     1      -2.051  -6.367  40.614  0.00  0.00    -0.251 OA
ATOM     19  C   UNL     1      -3.046  -6.415  39.906  0.00  0.00    +0.305 C 
BRANCH  19   5
ATOM      5  O   UNL     1      -3.231  -5.635  38.811  0.00  0.00    -0.481 OA
ATOM     36  H   UNL     1      -2.606  -4.879  38.791  0.00  0.00    +0.295 HD
ENDBRANCH  19   5
ENDBRANCH  17  19
ENDBRANCH  12  17
TORSDOF 9
ENDMDL
MODEL 9
REMARK VINA RESULT:      -5.9     13.518     16.428
REMARK  Name = 51136635
REMARK  11 active torsions:
REMARK  status: ('A' for Active; 'I' for Inactive)
REMARK    1  A    between atoms: S_2  and  N_9
REMARK    2  A    between atoms: S_2  and  C_21
REMARK    3  A    between atoms: O_5  and  C_19
REMARK    4  A    between atoms: O_7  and  C_29
REMARK    5  A    between atoms: O_7  and  C_34
REMARK    6  A    between atoms: O_8  and  C_30
REMARK    7  A    between atoms: O_8  and  C_35
REMARK    8  A    between atoms: C_11  and  C_16
REMARK    9  A    between atoms: C_12  and  C_17
REMARK   10  A    between atoms: C_16  and  C_18
REMARK   11  A    between atoms: C_17  and  C_19
REMARK                            x       y       z     vdW  Elec       q    Type
REMARK                         _______ _______ _______ _____ _____    ______ ____
ROOT
ATOM      9  N   UNL     1      -1.758  10.602   0.372  0.00  0.00    -0.176 NA
ATOM     11  C   UNL     1      -1.981  10.602   2.847  0.00  0.00    +0.014 C 
ATOM     12  C   UNL     1      -1.634  12.110   2.856  0.00  0.00    +0.006 C 
ATOM     13  C   UNL     1      -1.329   9.924   1.630  0.00  0.00    +0.113 C 
ATOM     14  C   UNL     1      -1.987  12.776   1.517  0.00  0.00    +0.021 C 
ATOM     15  C   UNL     1      -1.353  12.036   0.343  0.00  0.00    +0.110 C 
ENDROOT
BRANCH   9   2
ATOM      2  S   UNL     1      -1.460   9.726  -1.071  0.00  0.00    +0.061 S 
ATOM      3  O   UNL     1      -1.445   8.312  -0.769  0.00  0.00    -0.153 OA
ATOM      4  O   UNL     1      -0.363  10.350  -1.780  0.00  0.00    -0.153 OA
BRANCH   2  21
ATOM      1 CL   UNL     1      -6.747  10.968  -4.215  0.00  0.00    -0.084 Cl
ATOM     21  C   UNL     1      -2.947  10.075  -1.956  0.00  0.00    +0.106 A 
ATOM     26  C   UNL     1      -2.890  10.743  -3.178  0.00  0.00    +0.030 A 
ATOM     27  C   UNL     1      -4.179   9.683  -1.431  0.00  0.00    +0.030 A 
ATOM     31  C   UNL     1      -4.066  11.020  -3.877  0.00  0.00    +0.022 A 
ATOM     32  C   UNL     1      -5.354   9.959  -2.130  0.00  0.00    +0.022 A 
ATOM     33  C   UNL     1      -5.298  10.628  -3.353  0.00  0.00    +0.041 A 
ENDBRANCH   2  21
ENDBRANCH   9   2
BRANCH  11  16
ATOM     16  C   UNL     1      -3.485  10.306   2.886  0.00  0.00    +0.060 C 
BRANCH  16  18
ATOM     10  N   UNL     1      -2.822   8.920   4.732  0.00  0.00    -0.287 NA
ATOM     18  C   UNL     1      -3.770   9.234   3.911  0.00  0.00    +0.044 C 
ATOM     20  C   UNL     1      -5.110   8.593   3.923  0.00  0.00    +0.003 A 
ATOM     22  C   UNL     1      -5.218   7.371   4.598  0.00  0.00    -0.033 A 
ATOM     23  C   UNL     1      -3.993   6.792   5.241  0.00  0.00    +0.059 C 
ATOM     24  C   UNL     1      -3.118   7.923   5.767  0.00  0.00    +0.146 C 
ATOM     25  C   UNL     1      -6.220   9.153   3.288  0.00  0.00    +0.059 A 
ATOM     28  C   UNL     1      -6.442   6.696   4.611  0.00  0.00    +0.053 A 
ATOM     29  C   UNL     1      -7.441   8.479   3.321  0.00  0.00    +0.162 A 
ATOM     30  C   UNL     1      -7.552   7.253   3.978  0.00  0.00    +0.162 A 
BRANCH  29   7
ATOM      7  O   UNL     1      -8.524   9.028   2.701  0.00  0.00    -0.491 OA
ATOM     34  C   UNL     1      -8.536   9.003   1.275  0.00  0.00    +0.277 C 
ENDBRANCH  29   7
BRANCH  30   8
ATOM      8  O   UNL     1      -8.741   6.588   4.006  0.00  0.00    -0.491 OA
ATOM     35  C   UNL     1      -8.865   5.522   4.945  0.00  0.00    +0.277 C 
ENDBRANCH  30   8
ENDBRANCH  16  18
ENDBRANCH  11  16
BRANCH  12  17
ATOM     17  C   UNL     1      -2.275  12.868   4.019  0.00  0.00    +0.124 C 
BRANCH  17  19
ATOM      6  O   UNL     1      -0.596  12.547   5.756  0.00  0.00    -0.251 OA
ATOM     19  C   UNL     1      -1.738  12.406   5.345  0.00  0.00    +0.305 C 
BRANCH  19   5
ATOM      5  O   UNL     1      -2.724  11.795   6.051  0.00  0.00    -0.481 OA
ATOM     36  H   UNL     1      -2.468  11.652   6.987  0.00  0.00    +0.295 HD
ENDBRANCH  19   5
ENDBRANCH  17  19
ENDBRANCH  12  17
TORSDOF 9
ENDMDL
MODEL 10
REMARK VINA RESULT:      -5.8     31.672     35.246
REMARK  Name = 51136635
REMARK  11 active torsions:
REMARK  status: ('A' for Active; 'I' for Inactive)
REMARK    1  A    between atoms: S_2  and  N_9
REMARK    2  A    between atoms: S_2  and  C_21
REMARK    3  A    between atoms: O_5  and  C_19
REMARK    4  A    between atoms: O_7  and  C_29
REMARK    5  A    between atoms: O_7  and  C_34
REMARK    6  A    between atoms: O_8  and  C_30
REMARK    7  A    between atoms: O_8  and  C_35
REMARK    8  A    between atoms: C_11  and  C_16
REMARK    9  A    between atoms: C_12  and  C_17
REMARK   10  A    between atoms: C_16  and  C_18
REMARK   11  A    between atoms: C_17  and  C_19
REMARK                            x       y       z     vdW  Elec       q    Type
REMARK                         _______ _______ _______ _____ _____    ______ ____
ROOT
ATOM      9  N   UNL     1       3.975 -10.685  36.944  0.00  0.00    -0.176 NA
ATOM     11  C   UNL     1       5.216  -8.834  35.844  0.00  0.00    +0.014 C 
ATOM     12  C   UNL     1       5.638  -8.317  37.241  0.00  0.00    +0.006 C 
ATOM     13  C   UNL     1       3.874  -9.578  35.947  0.00  0.00    +0.113 C 
ATOM     14  C   UNL     1       5.638  -9.447  38.281  0.00  0.00    +0.021 C 
ATOM     15  C   UNL     1       4.301 -10.181  38.308  0.00  0.00    +0.110 C 
ENDROOT
BRANCH   9   2
ATOM      2  S   UNL     1       2.721 -11.851  36.873  0.00  0.00    +0.061 S 
ATOM      3  O   UNL     1       1.470 -11.181  36.594  0.00  0.00    -0.153 OA
ATOM      4  O   UNL     1       2.852 -12.750  37.999  0.00  0.00    -0.153 OA
BRANCH   2  21
ATOM      1 CL   UNL     1       4.424 -14.971  31.701  0.00  0.00    -0.084 Cl
ATOM     21  C   UNL     1       3.200 -12.729  35.418  0.00  0.00    +0.106 A 
ATOM     26  C   UNL     1       4.321 -13.558  35.442  0.00  0.00    +0.030 A 
ATOM     27  C   UNL     1       2.457 -12.593  34.245  0.00  0.00    +0.030 A 
ATOM     31  C   UNL     1       4.700 -14.252  34.292  0.00  0.00    +0.022 A 
ATOM     32  C   UNL     1       2.835 -13.286  33.096  0.00  0.00    +0.022 A 
ATOM     33  C   UNL     1       3.957 -14.116  33.119  0.00  0.00    +0.041 A 
ENDBRANCH   2  21
ENDBRANCH   9   2
BRANCH  11  16
ATOM     16  C   UNL     1       6.269  -9.713  35.158  0.00  0.00    +0.060 C 
BRANCH  16  18
ATOM     10  N   UNL     1       6.662  -7.881  33.656  0.00  0.00    -0.287 NA
ATOM     18  C   UNL     1       6.580  -9.164  33.786  0.00  0.00    +0.044 C 
ATOM     20  C   UNL     1       6.770 -10.115  32.661  0.00  0.00    +0.003 A 
ATOM     22  C   UNL     1       6.669  -9.588  31.368  0.00  0.00    -0.033 A 
ATOM     23  C   UNL     1       6.368  -8.128  31.205  0.00  0.00    +0.059 C 
ATOM     24  C   UNL     1       7.025  -7.350  32.338  0.00  0.00    +0.146 C 
ATOM     25  C   UNL     1       7.022 -11.474  32.856  0.00  0.00    +0.059 A 
ATOM     28  C   UNL     1       6.796 -10.438  30.265  0.00  0.00    +0.053 A 
ATOM     29  C   UNL     1       7.163 -12.311  31.748  0.00  0.00    +0.162 A 
ATOM     30  C   UNL     1       7.048 -11.796  30.457  0.00  0.00    +0.162 A 
BRANCH  29   7
ATOM      7  O   UNL     1       7.411 -13.638  31.941  0.00  0.00    -0.491 OA
ATOM     34  C   UNL     1       8.269 -13.985  33.025  0.00  0.00    +0.277 C 
ENDBRANCH  29   7
BRANCH  30   8
ATOM      8  O   UNL     1       7.178 -12.611  29.373  0.00  0.00    -0.491 OA
ATOM     35  C   UNL     1       8.241 -12.321  28.468  0.00  0.00    +0.277 C 
ENDBRANCH  30   8
ENDBRANCH  16  18
ENDBRANCH  11  16
BRANCH  12  17
ATOM     17  C   UNL     1       6.984  -7.593  37.232  0.00  0.00    +0.124 C 
BRANCH  17  19
ATOM      6  O   UNL     1       6.439  -5.289  37.815  0.00  0.00    -0.251 OA
ATOM     19  C   UNL     1       6.819  -6.116  37.000  0.00  0.00    +0.305 C 
BRANCH  19   5
ATOM      5  O   UNL     1       7.162  -5.812  35.722  0.00  0.00    -0.481 OA
ATOM     36  H   UNL     1       7.623  -4.948  35.663  0.00  0.00    +0.295 HD
ENDBRANCH  19   5
ENDBRANCH  17  19
ENDBRANCH  12  17
TORSDOF 9
ENDMDL
