MODEL 1
REMARK VINA RESULT:      -7.4      0.000      0.000
REMARK  Name = 75536429
REMARK  10 active torsions:
REMARK  status: ('A' for Active; 'I' for Inactive)
REMARK    1  A    between atoms: O_2  and  C_13
REMARK    2  A    between atoms: O_6  and  C_28
REMARK    3  A    between atoms: O_6  and  C_33
REMARK    4  A    between atoms: N_7  and  C_17
REMARK    5  A    between atoms: N_8  and  C_20
REMARK    6  A    between atoms: N_10  and  C_27
REMARK    7  A    between atoms: C_11  and  C_16
REMARK    8  A    between atoms: C_12  and  C_17
REMARK    9  A    between atoms: C_16  and  C_18
REMARK   10  A    between atoms: C_20  and  C_21
REMARK                            x       y       z     vdW  Elec       q    Type
REMARK                         _______ _______ _______ _____ _____    ______ ____
ROOT
ATOM      1  O   UNL     1      11.943   7.386  19.152  0.00  0.00    -0.369 OA
ATOM     11  C   UNL     1      13.282   7.852  18.967  0.00  0.00    +0.125 C 
ATOM     12  C   UNL     1      11.386   7.630  20.450  0.00  0.00    +0.164 C 
ATOM     13  C   UNL     1      12.272   7.044  21.557  0.00  0.00    +0.145 C 
ATOM     14  C   UNL     1      14.224   7.200  19.980  0.00  0.00    +0.034 C 
ATOM     15  C   UNL     1      13.736   7.446  21.405  0.00  0.00    +0.036 C 
ENDROOT
BRANCH  13   2
ATOM      2  O   UNL     1      12.202   5.617  21.495  0.00  0.00    -0.389 OA
ATOM     34  H   UNL     1      12.028   5.371  20.570  0.00  0.00    +0.210 HD
ENDBRANCH  13   2
BRANCH  11  16
ATOM     16  C   UNL     1      13.696   7.508  17.542  0.00  0.00    +0.090 C 
BRANCH  16  18
ATOM      3  O   UNL     1      12.712   9.921  15.054  0.00  0.00    -0.358 OA
ATOM      9  N   UNL     1      12.555   8.717  15.729  0.00  0.00    -0.083 NA
ATOM     18  C   UNL     1      13.551   8.686  16.619  0.00  0.00    +0.086 A 
ATOM     19  C   UNL     1      14.361   9.833  16.552  0.00  0.00    +0.072 A 
ATOM     21  C   UNL     1      13.790  10.577  15.553  0.00  0.00    +0.151 A 
BRANCH  21  20
ATOM     20  C   UNL     1      14.103  11.878  14.949  0.00  0.00    +0.161 C 
BRANCH  20   8
ATOM      4  O   UNL     1      15.386  12.899  11.086  0.00  0.00    -0.377 OA
ATOM      8  N   UNL     1      14.440  11.788  13.530  0.00  0.00    -0.291 NA
ATOM     22  C   UNL     1      13.621  12.718  12.740  0.00  0.00    +0.113 C 
ATOM     23  C   UNL     1      15.867  12.067  13.314  0.00  0.00    +0.113 C 
ATOM     24  C   UNL     1      13.998  12.615  11.265  0.00  0.00    +0.175 C 
ATOM     25  C   UNL     1      16.192  11.981  11.826  0.00  0.00    +0.175 C 
ENDBRANCH  20   8
ENDBRANCH  21  20
ENDBRANCH  16  18
ENDBRANCH  11  16
BRANCH  12  17
ATOM     17  C   UNL     1      11.085   9.114  20.649  0.00  0.00    +0.140 C 
BRANCH  17   7
ATOM      5  O   UNL     1      11.500  11.738  21.716  0.00  0.00    -0.253 OA
ATOM      7  N   UNL     1      11.162   9.472  22.032  0.00  0.00    -0.297 N 
ATOM     10  N   UNL     1      11.398  10.833  23.880  0.00  0.00    -0.266 N 
ATOM     26  C   UNL     1      11.368  10.787  22.483  0.00  0.00    +0.304 C 
ATOM     35  H   UNL     1      11.109   8.730  22.723  0.00  0.00    +0.150 HD
ATOM     36  H   UNL     1      11.271   9.951  24.370  0.00  0.00    +0.156 HD
BRANCH  10  27
ATOM     27  C   UNL     1      11.584  11.965  24.707  0.00  0.00    +0.077 A 
ATOM     28  C   UNL     1      12.848  12.286  25.201  0.00  0.00    +0.141 A 
ATOM     29  C   UNL     1      10.486  12.763  25.030  0.00  0.00    +0.027 A 
ATOM     30  C   UNL     1      13.016  13.404  26.017  0.00  0.00    +0.047 A 
ATOM     31  C   UNL     1      10.653  13.882  25.847  0.00  0.00    +0.002 A 
ATOM     32  C   UNL     1      11.918  14.202  26.341  0.00  0.00    +0.004 A 
BRANCH  28   6
ATOM      6  O   UNL     1      13.934  11.520  24.897  0.00  0.00    -0.493 OA
ATOM     33  C   UNL     1      15.196  12.181  24.835  0.00  0.00    +0.277 C 
ENDBRANCH  28   6
ENDBRANCH  10  27
ENDBRANCH  17   7
ENDBRANCH  12  17
TORSDOF 9
ENDMDL
MODEL 2
REMARK VINA RESULT:      -7.1     14.483     19.801
REMARK  Name = 75536429
REMARK  10 active torsions:
REMARK  status: ('A' for Active; 'I' for Inactive)
REMARK    1  A    between atoms: O_2  and  C_13
REMARK    2  A    between atoms: O_6  and  C_28
REMARK    3  A    between atoms: O_6  and  C_33
REMARK    4  A    between atoms: N_7  and  C_17
REMARK    5  A    between atoms: N_8  and  C_20
REMARK    6  A    between atoms: N_10  and  C_27
REMARK    7  A    between atoms: C_11  and  C_16
REMARK    8  A    between atoms: C_12  and  C_17
REMARK    9  A    between atoms: C_16  and  C_18
REMARK   10  A    between atoms: C_20  and  C_21
REMARK                            x       y       z     vdW  Elec       q    Type
REMARK                         _______ _______ _______ _____ _____    ______ ____
ROOT
ATOM      1  O   UNL     1      12.743   2.888   0.618  0.00  0.00    -0.369 OA
ATOM     11  C   UNL     1      12.914   3.460  -0.681  0.00  0.00    +0.125 C 
ATOM     12  C   UNL     1      13.101   3.743   1.712  0.00  0.00    +0.164 C 
ATOM     13  C   UNL     1      14.544   4.247   1.578  0.00  0.00    +0.145 C 
ATOM     14  C   UNL     1      14.370   3.871  -0.902  0.00  0.00    +0.034 C 
ATOM     15  C   UNL     1      14.832   4.825   0.195  0.00  0.00    +0.036 C 
ENDROOT
BRANCH  13   2
ATOM      2  O   UNL     1      15.436   3.149   1.787  0.00  0.00    -0.389 OA
ATOM     34  H   UNL     1      15.895   3.301   2.631  0.00  0.00    +0.210 HD
ENDBRANCH  13   2
BRANCH  11  16
ATOM     16  C   UNL     1      12.484   2.415  -1.703  0.00  0.00    +0.090 C 
BRANCH  16  18
ATOM      3  O   UNL     1       9.334   2.873  -3.391  0.00  0.00    -0.358 OA
ATOM      9  N   UNL     1      10.190   2.166  -2.555  0.00  0.00    -0.083 NA
ATOM     18  C   UNL     1      11.316   2.885  -2.525  0.00  0.00    +0.086 A 
ATOM     19  C   UNL     1      11.229   4.044  -3.315  0.00  0.00    +0.072 A 
ATOM     21  C   UNL     1       9.963   3.989  -3.838  0.00  0.00    +0.151 A 
BRANCH  21  20
ATOM     20  C   UNL     1       9.197   4.857  -4.739  0.00  0.00    +0.161 C 
BRANCH  20   8
ATOM      4  O   UNL     1       5.919   7.315  -3.829  0.00  0.00    -0.377 OA
ATOM      8  N   UNL     1       7.958   5.354  -4.145  0.00  0.00    -0.291 NA
ATOM     22  C   UNL     1       8.197   6.598  -3.402  0.00  0.00    +0.113 C 
ATOM     23  C   UNL     1       6.935   5.573  -5.178  0.00  0.00    +0.113 C 
ATOM     24  C   UNL     1       6.888   7.103  -2.802  0.00  0.00    +0.175 C 
ATOM     25  C   UNL     1       5.656   6.103  -4.537  0.00  0.00    +0.175 C 
ENDBRANCH  20   8
ENDBRANCH  21  20
ENDBRANCH  16  18
ENDBRANCH  11  16
BRANCH  12  17
ATOM     17  C   UNL     1      12.087   4.872   1.882  0.00  0.00    +0.140 C 
BRANCH  17   7
ATOM      5  O   UNL     1       9.970   4.784   3.808  0.00  0.00    -0.253 OA
ATOM      7  N   UNL     1      12.120   5.395   3.214  0.00  0.00    -0.297 N 
ATOM     10  N   UNL     1      11.359   5.909   5.330  0.00  0.00    -0.266 N 
ATOM     26  C   UNL     1      11.037   5.314   4.106  0.00  0.00    +0.304 C 
ATOM     35  H   UNL     1      12.954   5.891   3.513  0.00  0.00    +0.150 HD
ATOM     36  H   UNL     1      12.291   6.305   5.416  0.00  0.00    +0.156 HD
BRANCH  10  27
ATOM     27  C   UNL     1      10.541   6.029   6.478  0.00  0.00    +0.077 A 
ATOM     28  C   UNL     1       9.935   7.245   6.795  0.00  0.00    +0.141 A 
ATOM     29  C   UNL     1      10.344   4.917   7.296  0.00  0.00    +0.027 A 
ATOM     30  C   UNL     1       9.132   7.349   7.931  0.00  0.00    +0.047 A 
ATOM     31  C   UNL     1       9.541   5.021   8.433  0.00  0.00    +0.002 A 
ATOM     32  C   UNL     1       8.936   6.238   8.751  0.00  0.00    +0.004 A 
BRANCH  28   6
ATOM      6  O   UNL     1      10.114   8.344   6.008  0.00  0.00    -0.493 OA
ATOM     33  C   UNL     1       9.107   8.614   5.036  0.00  0.00    +0.277 C 
ENDBRANCH  28   6
ENDBRANCH  10  27
ENDBRANCH  17   7
ENDBRANCH  12  17
TORSDOF 9
ENDMDL
MODEL 3
REMARK VINA RESULT:      -6.9     26.923     29.510
REMARK  Name = 75536429
REMARK  10 active torsions:
REMARK  status: ('A' for Active; 'I' for Inactive)
REMARK    1  A    between atoms: O_2  and  C_13
REMARK    2  A    between atoms: O_6  and  C_28
REMARK    3  A    between atoms: O_6  and  C_33
REMARK    4  A    between atoms: N_7  and  C_17
REMARK    5  A    between atoms: N_8  and  C_20
REMARK    6  A    between atoms: N_10  and  C_27
REMARK    7  A    between atoms: C_11  and  C_16
REMARK    8  A    between atoms: C_12  and  C_17
REMARK    9  A    between atoms: C_16  and  C_18
REMARK   10  A    between atoms: C_20  and  C_21
REMARK                            x       y       z     vdW  Elec       q    Type
REMARK                         _______ _______ _______ _____ _____    ______ ____
ROOT
ATOM      1  O   UNL     1      -5.110  -8.848  10.908  0.00  0.00    -0.369 OA
ATOM     11  C   UNL     1      -4.721 -10.124  10.394  0.00  0.00    +0.125 C 
ATOM     12  C   UNL     1      -6.521  -8.592  10.900  0.00  0.00    +0.164 C 
ATOM     13  C   UNL     1      -7.111  -8.761   9.494  0.00  0.00    +0.145 C 
ATOM     14  C   UNL     1      -5.190 -10.288   8.949  0.00  0.00    +0.034 C 
ATOM     15  C   UNL     1      -6.698 -10.078   8.844  0.00  0.00    +0.036 C 
ENDROOT
BRANCH  13   2
ATOM      2  O   UNL     1      -6.637  -7.697   8.665  0.00  0.00    -0.389 OA
ATOM     34  H   UNL     1      -5.710  -7.527   8.907  0.00  0.00    +0.210 HD
ENDBRANCH  13   2
BRANCH  11  16
ATOM     16  C   UNL     1      -3.203 -10.212  10.486  0.00  0.00    +0.090 C 
BRANCH  16  18
ATOM      3  O   UNL     1      -1.626 -12.262  12.994  0.00  0.00    -0.358 OA
ATOM      9  N   UNL     1      -1.773 -11.072  12.293  0.00  0.00    -0.083 NA
ATOM     18  C   UNL     1      -2.763 -11.301  11.425  0.00  0.00    +0.086 A 
ATOM     19  C   UNL     1      -3.273 -12.606  11.531  0.00  0.00    +0.072 A 
ATOM     21  C   UNL     1      -2.523 -13.169  12.531  0.00  0.00    +0.151 A 
BRANCH  21  20
ATOM     20  C   UNL     1      -2.506 -14.492  13.166  0.00  0.00    +0.161 C 
BRANCH  20   8
ATOM      4  O   UNL     1      -5.265 -15.705  16.087  0.00  0.00    -0.377 OA
ATOM      8  N   UNL     1      -3.761 -14.827  13.835  0.00  0.00    -0.291 NA
ATOM     22  C   UNL     1      -3.772 -16.236  14.250  0.00  0.00    +0.113 C 
ATOM     23  C   UNL     1      -3.980 -13.957  15.000  0.00  0.00    +0.113 C 
ATOM     24  C   UNL     1      -5.085 -16.558  14.956  0.00  0.00    +0.175 C 
ATOM     25  C   UNL     1      -5.288 -14.333  15.690  0.00  0.00    +0.175 C 
ENDBRANCH  20   8
ENDBRANCH  21  20
ENDBRANCH  16  18
ENDBRANCH  11  16
BRANCH  12  17
ATOM     17  C   UNL     1      -7.238  -9.432  11.954  0.00  0.00    +0.140 C 
BRANCH  17   7
ATOM      5  O   UNL     1      -6.605 -11.328  14.005  0.00  0.00    -0.253 OA
ATOM      7  N   UNL     1      -6.745  -9.141  13.266  0.00  0.00    -0.297 N 
ATOM     10  N   UNL     1      -5.992  -9.549  15.408  0.00  0.00    -0.266 N 
ATOM     26  C   UNL     1      -6.456 -10.129  14.223  0.00  0.00    +0.304 C 
ATOM     35  H   UNL     1      -6.642  -8.167  13.533  0.00  0.00    +0.150 HD
ATOM     36  H   UNL     1      -5.924  -8.534  15.426  0.00  0.00    +0.156 HD
BRANCH  10  27
ATOM     27  C   UNL     1      -5.598 -10.204  16.598  0.00  0.00    +0.077 A 
ATOM     28  C   UNL     1      -4.308 -10.718  16.734  0.00  0.00    +0.141 A 
ATOM     29  C   UNL     1      -6.514 -10.334  17.641  0.00  0.00    +0.027 A 
ATOM     30  C   UNL     1      -3.935 -11.363  17.913  0.00  0.00    +0.047 A 
ATOM     31  C   UNL     1      -6.141 -10.980  18.821  0.00  0.00    +0.002 A 
ATOM     32  C   UNL     1      -4.852 -11.495  18.956  0.00  0.00    +0.004 A 
BRANCH  28   6
ATOM      6  O   UNL     1      -3.397 -10.600  15.727  0.00  0.00    -0.493 OA
ATOM     33  C   UNL     1      -2.020 -10.621  16.094  0.00  0.00    +0.277 C 
ENDBRANCH  28   6
ENDBRANCH  10  27
ENDBRANCH  17   7
ENDBRANCH  12  17
TORSDOF 9
ENDMDL
MODEL 4
REMARK VINA RESULT:      -6.9      1.800      2.496
REMARK  Name = 75536429
REMARK  10 active torsions:
REMARK  status: ('A' for Active; 'I' for Inactive)
REMARK    1  A    between atoms: O_2  and  C_13
REMARK    2  A    between atoms: O_6  and  C_28
REMARK    3  A    between atoms: O_6  and  C_33
REMARK    4  A    between atoms: N_7  and  C_17
REMARK    5  A    between atoms: N_8  and  C_20
REMARK    6  A    between atoms: N_10  and  C_27
REMARK    7  A    between atoms: C_11  and  C_16
REMARK    8  A    between atoms: C_12  and  C_17
REMARK    9  A    between atoms: C_16  and  C_18
REMARK   10  A    between atoms: C_20  and  C_21
REMARK                            x       y       z     vdW  Elec       q    Type
REMARK                         _______ _______ _______ _____ _____    ______ ____
ROOT
ATOM      1  O   UNL     1      11.770   7.490  19.229  0.00  0.00    -0.369 OA
ATOM     11  C   UNL     1      13.125   7.852  18.950  0.00  0.00    +0.125 C 
ATOM     12  C   UNL     1      11.323   7.783  20.560  0.00  0.00    +0.164 C 
ATOM     13  C   UNL     1      12.235   7.136  21.610  0.00  0.00    +0.145 C 
ATOM     14  C   UNL     1      14.082   7.135  19.903  0.00  0.00    +0.034 C 
ATOM     15  C   UNL     1      13.712   7.425  21.355  0.00  0.00    +0.036 C 
ENDROOT
BRANCH  13   2
ATOM      2  O   UNL     1      12.054   5.718  21.568  0.00  0.00    -0.389 OA
ATOM     34  H   UNL     1      11.873   5.418  22.475  0.00  0.00    +0.210 HD
ENDBRANCH  13   2
BRANCH  11  16
ATOM     16  C   UNL     1      13.413   7.471  17.504  0.00  0.00    +0.090 C 
BRANCH  16  18
ATOM      3  O   UNL     1      14.215   9.819  14.891  0.00  0.00    -0.358 OA
ATOM      9  N   UNL     1      14.067   8.527  15.381  0.00  0.00    -0.083 NA
ATOM     18  C   UNL     1      13.676   8.680  16.649  0.00  0.00    +0.086 A 
ATOM     19  C   UNL     1      13.562  10.033  17.012  0.00  0.00    +0.072 A 
ATOM     21  C   UNL     1      13.912  10.707  15.871  0.00  0.00    +0.151 A 
BRANCH  21  20
ATOM     20  C   UNL     1      14.017  12.129  15.523  0.00  0.00    +0.161 C 
BRANCH  20   8
ATOM      4  O   UNL     1      16.544  13.118  18.725  0.00  0.00    -0.377 OA
ATOM      8  N   UNL     1      14.919  12.872  16.401  0.00  0.00    -0.291 NA
ATOM     22  C   UNL     1      14.330  13.036  17.737  0.00  0.00    +0.113 C 
ATOM     23  C   UNL     1      16.221  12.196  16.504  0.00  0.00    +0.113 C 
ATOM     24  C   UNL     1      15.294  13.802  18.637  0.00  0.00    +0.175 C 
ATOM     25  C   UNL     1      17.140  12.982  17.434  0.00  0.00    +0.175 C 
ENDBRANCH  20   8
ENDBRANCH  21  20
ENDBRANCH  16  18
ENDBRANCH  11  16
BRANCH  12  17
ATOM     17  C   UNL     1      11.149   9.286  20.764  0.00  0.00    +0.140 C 
BRANCH  17   7
ATOM      5  O   UNL     1      11.417  11.926  21.841  0.00  0.00    -0.253 OA
ATOM      7  N   UNL     1      11.288   9.636  22.145  0.00  0.00    -0.297 N 
ATOM     10  N   UNL     1      11.534  10.994  23.993  0.00  0.00    -0.266 N 
ATOM     26  C   UNL     1      11.415  10.960  22.600  0.00  0.00    +0.304 C 
ATOM     35  H   UNL     1      11.343   8.886  22.825  0.00  0.00    +0.150 HD
ATOM     36  H   UNL     1      11.514  10.100  24.477  0.00  0.00    +0.156 HD
BRANCH  10  27
ATOM     27  C   UNL     1      11.680  12.130  24.823  0.00  0.00    +0.077 A 
ATOM     28  C   UNL     1      12.929  12.478  25.339  0.00  0.00    +0.141 A 
ATOM     29  C   UNL     1      10.560  12.903  25.126  0.00  0.00    +0.027 A 
ATOM     30  C   UNL     1      13.058  13.599  26.158  0.00  0.00    +0.047 A 
ATOM     31  C   UNL     1      10.689  14.026  25.946  0.00  0.00    +0.002 A 
ATOM     32  C   UNL     1      11.937  14.373  26.463  0.00  0.00    +0.004 A 
BRANCH  28   6
ATOM      6  O   UNL     1      14.036  11.736  25.055  0.00  0.00    -0.493 OA
ATOM     33  C   UNL     1      14.885  11.395  26.148  0.00  0.00    +0.277 C 
ENDBRANCH  28   6
ENDBRANCH  10  27
ENDBRANCH  17   7
ENDBRANCH  12  17
TORSDOF 9
ENDMDL
MODEL 5
REMARK VINA RESULT:      -6.8     27.118     29.086
REMARK  Name = 75536429
REMARK  10 active torsions:
REMARK  status: ('A' for Active; 'I' for Inactive)
REMARK    1  A    between atoms: O_2  and  C_13
REMARK    2  A    between atoms: O_6  and  C_28
REMARK    3  A    between atoms: O_6  and  C_33
REMARK    4  A    between atoms: N_7  and  C_17
REMARK    5  A    between atoms: N_8  and  C_20
REMARK    6  A    between atoms: N_10  and  C_27
REMARK    7  A    between atoms: C_11  and  C_16
REMARK    8  A    between atoms: C_12  and  C_17
REMARK    9  A    between atoms: C_16  and  C_18
REMARK   10  A    between atoms: C_20  and  C_21
REMARK                            x       y       z     vdW  Elec       q    Type
REMARK                         _______ _______ _______ _____ _____    ______ ____
ROOT
ATOM      1  O   UNL     1      -4.068 -11.475  13.717  0.00  0.00    -0.369 OA
ATOM     11  C   UNL     1      -2.915 -10.639  13.586  0.00  0.00    +0.125 C 
ATOM     12  C   UNL     1      -4.879 -11.217  14.871  0.00  0.00    +0.164 C 
ATOM     13  C   UNL     1      -4.056 -11.303  16.163  0.00  0.00    +0.145 C 
ATOM     14  C   UNL     1      -2.004 -10.783  14.805  0.00  0.00    +0.034 C 
ATOM     15  C   UNL     1      -2.771 -10.481  16.089  0.00  0.00    +0.036 C 
ENDROOT
BRANCH  13   2
ATOM      2  O   UNL     1      -3.690 -12.666  16.386  0.00  0.00    -0.389 OA
ATOM     34  H   UNL     1      -4.426 -13.222  16.078  0.00  0.00    +0.210 HD
ENDBRANCH  13   2
BRANCH  11  16
ATOM     16  C   UNL     1      -2.188 -11.057  12.313  0.00  0.00    +0.090 C 
BRANCH  16  18
ATOM      3  O   UNL     1      -3.433  -9.185   9.497  0.00  0.00    -0.358 OA
ATOM      9  N   UNL     1      -2.636  -9.323  10.627  0.00  0.00    -0.083 NA
ATOM     18  C   UNL     1      -2.889 -10.554  11.081  0.00  0.00    +0.086 A 
ATOM     19  C   UNL     1      -3.828 -11.233  10.286  0.00  0.00    +0.072 A 
ATOM     21  C   UNL     1      -4.138 -10.328   9.304  0.00  0.00    +0.151 A 
BRANCH  21  20
ATOM     20  C   UNL     1      -5.038 -10.355   8.145  0.00  0.00    +0.161 C 
BRANCH  20   8
ATOM      4  O   UNL     1      -8.746  -8.389   8.126  0.00  0.00    -0.377 OA
ATOM      8  N   UNL     1      -6.050  -9.302   8.177  0.00  0.00    -0.291 NA
ATOM     22  C   UNL     1      -6.836  -9.295   6.936  0.00  0.00    +0.113 C 
ATOM     23  C   UNL     1      -6.941  -9.467   9.335  0.00  0.00    +0.113 C 
ATOM     24  C   UNL     1      -7.893  -8.197   6.997  0.00  0.00    +0.175 C 
ATOM     25  C   UNL     1      -7.996  -8.365   9.340  0.00  0.00    +0.175 C 
ENDBRANCH  20   8
ENDBRANCH  21  20
ENDBRANCH  16  18
ENDBRANCH  11  16
BRANCH  12  17
ATOM     17  C   UNL     1      -5.633  -9.897  14.729  0.00  0.00    +0.140 C 
BRANCH  17   7
ATOM      5  O   UNL     1      -8.171 -10.895  15.604  0.00  0.00    -0.253 OA
ATOM      7  N   UNL     1      -6.312  -9.561  15.944  0.00  0.00    -0.297 N 
ATOM     10  N   UNL     1      -7.976  -9.585  17.542  0.00  0.00    -0.266 N 
ATOM     26  C   UNL     1      -7.561 -10.094  16.307  0.00  0.00    +0.304 C 
ATOM     35  H   UNL     1      -5.890  -8.867  16.552  0.00  0.00    +0.150 HD
ATOM     36  H   UNL     1      -7.351  -8.926  17.999  0.00  0.00    +0.156 HD
BRANCH  10  27
ATOM     27  C   UNL     1      -9.169  -9.875  18.243  0.00  0.00    +0.077 A 
ATOM     28  C   UNL     1      -9.162 -10.760  19.322  0.00  0.00    +0.141 A 
ATOM     29  C   UNL     1     -10.361  -9.270  17.845  0.00  0.00    +0.027 A 
ATOM     30  C   UNL     1     -10.347 -11.038  20.004  0.00  0.00    +0.047 A 
ATOM     31  C   UNL     1     -11.547  -9.549  18.527  0.00  0.00    +0.002 A 
ATOM     32  C   UNL     1     -11.540 -10.433  19.605  0.00  0.00    +0.004 A 
BRANCH  28   6
ATOM      6  O   UNL     1      -8.008 -11.361  19.728  0.00  0.00    -0.493 OA
ATOM     33  C   UNL     1      -8.058 -12.767  19.960  0.00  0.00    +0.277 C 
ENDBRANCH  28   6
ENDBRANCH  10  27
ENDBRANCH  17   7
ENDBRANCH  12  17
TORSDOF 9
ENDMDL
MODEL 6
REMARK VINA RESULT:      -6.8     28.683     30.977
REMARK  Name = 75536429
REMARK  10 active torsions:
REMARK  status: ('A' for Active; 'I' for Inactive)
REMARK    1  A    between atoms: O_2  and  C_13
REMARK    2  A    between atoms: O_6  and  C_28
REMARK    3  A    between atoms: O_6  and  C_33
REMARK    4  A    between atoms: N_7  and  C_17
REMARK    5  A    between atoms: N_8  and  C_20
REMARK    6  A    between atoms: N_10  and  C_27
REMARK    7  A    between atoms: C_11  and  C_16
REMARK    8  A    between atoms: C_12  and  C_17
REMARK    9  A    between atoms: C_16  and  C_18
REMARK   10  A    between atoms: C_20  and  C_21
REMARK                            x       y       z     vdW  Elec       q    Type
REMARK                         _______ _______ _______ _____ _____    ______ ____
ROOT
ATOM      1  O   UNL     1      -6.855 -11.778  17.358  0.00  0.00    -0.369 OA
ATOM     11  C   UNL     1      -6.207 -10.546  17.031  0.00  0.00    +0.125 C 
ATOM     12  C   UNL     1      -6.369 -12.428  18.540  0.00  0.00    +0.164 C 
ATOM     13  C   UNL     1      -4.856 -12.670  18.462  0.00  0.00    +0.145 C 
ATOM     14  C   UNL     1      -4.707 -10.764  16.828  0.00  0.00    +0.034 C 
ATOM     15  C   UNL     1      -4.086 -11.414  18.061  0.00  0.00    +0.036 C 
ENDROOT
BRANCH  13   2
ATOM      2  O   UNL     1      -4.600 -13.672  17.475  0.00  0.00    -0.389 OA
ATOM     34  H   UNL     1      -4.210 -14.439  17.929  0.00  0.00    +0.210 HD
ENDBRANCH  13   2
BRANCH  11  16
ATOM     16  C   UNL     1      -6.854 -10.010  15.761  0.00  0.00    +0.090 C 
BRANCH  16  18
ATOM      3  O   UNL     1      -9.620  -8.179  17.169  0.00  0.00    -0.358 OA
ATOM      9  N   UNL     1      -8.343  -8.724  17.237  0.00  0.00    -0.083 NA
ATOM     18  C   UNL     1      -8.152  -9.307  16.050  0.00  0.00    +0.086 A 
ATOM     19  C   UNL     1      -9.263  -9.164  15.201  0.00  0.00    +0.072 A 
ATOM     21  C   UNL     1     -10.157  -8.448  15.952  0.00  0.00    +0.151 A 
BRANCH  21  20
ATOM     20  C   UNL     1     -11.513  -7.941  15.708  0.00  0.00    +0.161 C 
BRANCH  20   8
ATOM      4  O   UNL     1     -13.095  -5.640  12.574  0.00  0.00    -0.377 OA
ATOM      8  N   UNL     1     -11.616  -7.136  14.492  0.00  0.00    -0.291 NA
ATOM     22  C   UNL     1     -12.480  -7.795  13.502  0.00  0.00    +0.113 C 
ATOM     23  C   UNL     1     -12.133  -5.794  14.796  0.00  0.00    +0.113 C 
ATOM     24  C   UNL     1     -12.583  -6.932  12.248  0.00  0.00    +0.175 C 
ATOM     25  C   UNL     1     -12.245  -4.978  13.512  0.00  0.00    +0.175 C 
ENDBRANCH  20   8
ENDBRANCH  21  20
ENDBRANCH  16  18
ENDBRANCH  11  16
BRANCH  12  17
ATOM     17  C   UNL     1      -6.789 -11.670  19.797  0.00  0.00    +0.140 C 
BRANCH  17   7
ATOM      5  O   UNL     1      -9.558 -12.321  20.127  0.00  0.00    -0.253 OA
ATOM      7  N   UNL     1      -7.906 -10.815  19.532  0.00  0.00    -0.297 N 
ATOM     10  N   UNL     1     -10.114 -10.167  19.378  0.00  0.00    -0.266 N 
ATOM     26  C   UNL     1      -9.243 -11.206  19.718  0.00  0.00    +0.304 C 
ATOM     35  H   UNL     1      -7.723  -9.895  19.146  0.00  0.00    +0.150 HD
ATOM     36  H   UNL     1      -9.690  -9.300  19.055  0.00  0.00    +0.156 HD
BRANCH  10  27
ATOM     27  C   UNL     1     -11.528 -10.168  19.429  0.00  0.00    +0.077 A 
ATOM     28  C   UNL     1     -12.277 -10.665  18.362  0.00  0.00    +0.141 A 
ATOM     29  C   UNL     1     -12.172  -9.664  20.558  0.00  0.00    +0.027 A 
ATOM     30  C   UNL     1     -13.670 -10.658  18.425  0.00  0.00    +0.047 A 
ATOM     31  C   UNL     1     -13.566  -9.657  20.622  0.00  0.00    +0.002 A 
ATOM     32  C   UNL     1     -14.315 -10.153  19.554  0.00  0.00    +0.004 A 
BRANCH  28   6
ATOM      6  O   UNL     1     -11.667 -11.162  17.249  0.00  0.00    -0.493 OA
ATOM     33  C   UNL     1     -11.723 -12.573  17.056  0.00  0.00    +0.277 C 
ENDBRANCH  28   6
ENDBRANCH  10  27
ENDBRANCH  17   7
ENDBRANCH  12  17
TORSDOF 9
ENDMDL
MODEL 7
REMARK VINA RESULT:      -6.7     28.172     31.691
REMARK  Name = 75536429
REMARK  10 active torsions:
REMARK  status: ('A' for Active; 'I' for Inactive)
REMARK    1  A    between atoms: O_2  and  C_13
REMARK    2  A    between atoms: O_6  and  C_28
REMARK    3  A    between atoms: O_6  and  C_33
REMARK    4  A    between atoms: N_7  and  C_17
REMARK    5  A    between atoms: N_8  and  C_20
REMARK    6  A    between atoms: N_10  and  C_27
REMARK    7  A    between atoms: C_11  and  C_16
REMARK    8  A    between atoms: C_12  and  C_17
REMARK    9  A    between atoms: C_16  and  C_18
REMARK   10  A    between atoms: C_20  and  C_21
REMARK                            x       y       z     vdW  Elec       q    Type
REMARK                         _______ _______ _______ _____ _____    ______ ____
ROOT
ATOM      1  O   UNL     1     -14.053   2.646  31.265  0.00  0.00    -0.369 OA
ATOM     11  C   UNL     1     -14.980   2.147  32.232  0.00  0.00    +0.125 C 
ATOM     12  C   UNL     1     -14.256   2.175  29.926  0.00  0.00    +0.164 C 
ATOM     13  C   UNL     1     -14.255   0.642  29.868  0.00  0.00    +0.145 C 
ATOM     14  C   UNL     1     -14.928   0.620  32.291  0.00  0.00    +0.034 C 
ATOM     15  C   UNL     1     -15.180   0.020  30.911  0.00  0.00    +0.036 C 
ENDROOT
BRANCH  13   2
ATOM      2  O   UNL     1     -12.930   0.172  30.124  0.00  0.00    -0.389 OA
ATOM     34  H   UNL     1     -12.311   0.798  29.710  0.00  0.00    +0.210 HD
ENDBRANCH  13   2
BRANCH  11  16
ATOM     16  C   UNL     1     -14.609   2.754  33.579  0.00  0.00    +0.090 C 
BRANCH  16  18
ATOM      3  O   UNL     1     -15.952   6.096  33.476  0.00  0.00    -0.358 OA
ATOM      9  N   UNL     1     -16.077   4.716  33.371  0.00  0.00    -0.083 NA
ATOM     18  C   UNL     1     -14.853   4.238  33.609  0.00  0.00    +0.086 A 
ATOM     19  C   UNL     1     -13.923   5.260  33.867  0.00  0.00    +0.072 A 
ATOM     21  C   UNL     1     -14.665   6.408  33.771  0.00  0.00    +0.151 A 
BRANCH  21  20
ATOM     20  C   UNL     1     -14.353   7.834  33.919  0.00  0.00    +0.161 C 
BRANCH  20   8
ATOM      4  O   UNL     1     -10.957   9.919  32.600  0.00  0.00    -0.377 OA
ATOM      8  N   UNL     1     -12.969   8.160  33.580  0.00  0.00    -0.291 NA
ATOM     22  C   UNL     1     -12.839   8.457  32.147  0.00  0.00    +0.113 C 
ATOM     23  C   UNL     1     -12.491   9.299  34.375  0.00  0.00    +0.113 C 
ATOM     24  C   UNL     1     -11.390   8.804  31.819  0.00  0.00    +0.175 C 
ATOM     25  C   UNL     1     -11.050   9.629  33.995  0.00  0.00    +0.175 C 
ENDBRANCH  20   8
ENDBRANCH  21  20
ENDBRANCH  16  18
ENDBRANCH  11  16
BRANCH  12  17
ATOM     17  C   UNL     1     -15.506   2.797  29.309  0.00  0.00    +0.140 C 
BRANCH  17   7
ATOM      5  O   UNL     1     -17.477   3.223  27.275  0.00  0.00    -0.253 OA
ATOM      7  N   UNL     1     -15.266   3.196  27.955  0.00  0.00    -0.297 N 
ATOM     10  N   UNL     1     -15.756   3.773  25.776  0.00  0.00    -0.266 N 
ATOM     26  C   UNL     1     -16.288   3.386  27.010  0.00  0.00    +0.304 C 
ATOM     35  H   UNL     1     -14.304   3.302  27.651  0.00  0.00    +0.150 HD
ATOM     36  H   UNL     1     -14.744   3.864  25.722  0.00  0.00    +0.156 HD
BRANCH  10  27
ATOM     27  C   UNL     1     -16.455   4.057  24.580  0.00  0.00    +0.077 A 
ATOM     28  C   UNL     1     -16.940   3.025  23.777  0.00  0.00    +0.141 A 
ATOM     29  C   UNL     1     -16.656   5.386  24.205  0.00  0.00    +0.027 A 
ATOM     30  C   UNL     1     -17.626   3.321  22.599  0.00  0.00    +0.047 A 
ATOM     31  C   UNL     1     -17.342   5.682  23.027  0.00  0.00    +0.002 A 
ATOM     32  C   UNL     1     -17.826   4.650  22.223  0.00  0.00    +0.004 A 
BRANCH  28   6
ATOM      6  O   UNL     1     -16.755   1.720  24.125  0.00  0.00    -0.493 OA
ATOM     33  C   UNL     1     -17.925   0.938  24.350  0.00  0.00    +0.277 C 
ENDBRANCH  28   6
ENDBRANCH  10  27
ENDBRANCH  17   7
ENDBRANCH  12  17
TORSDOF 9
ENDMDL
MODEL 8
REMARK VINA RESULT:      -6.7      2.399      8.311
REMARK  Name = 75536429
REMARK  10 active torsions:
REMARK  status: ('A' for Active; 'I' for Inactive)
REMARK    1  A    between atoms: O_2  and  C_13
REMARK    2  A    between atoms: O_6  and  C_28
REMARK    3  A    between atoms: O_6  and  C_33
REMARK    4  A    between atoms: N_7  and  C_17
REMARK    5  A    between atoms: N_8  and  C_20
REMARK    6  A    between atoms: N_10  and  C_27
REMARK    7  A    between atoms: C_11  and  C_16
REMARK    8  A    between atoms: C_12  and  C_17
REMARK    9  A    between atoms: C_16  and  C_18
REMARK   10  A    between atoms: C_20  and  C_21
REMARK                            x       y       z     vdW  Elec       q    Type
REMARK                         _______ _______ _______ _____ _____    ______ ____
ROOT
ATOM      1  O   UNL     1      14.194  12.644  16.380  0.00  0.00    -0.369 OA
ATOM     11  C   UNL     1      15.368  12.558  17.192  0.00  0.00    +0.125 C 
ATOM     12  C   UNL     1      14.193  11.802  15.220  0.00  0.00    +0.164 C 
ATOM     13  C   UNL     1      15.423  12.062  14.340  0.00  0.00    +0.145 C 
ATOM     14  C   UNL     1      16.611  12.925  16.381  0.00  0.00    +0.034 C 
ATOM     15  C   UNL     1      16.723  12.045  15.140  0.00  0.00    +0.036 C 
ENDROOT
BRANCH  13   2
ATOM      2  O   UNL     1      15.296  13.353  13.740  0.00  0.00    -0.389 OA
ATOM     34  H   UNL     1      15.674  13.300  12.845  0.00  0.00    +0.210 HD
ENDBRANCH  13   2
BRANCH  11  16
ATOM     16  C   UNL     1      15.185  13.512  18.365  0.00  0.00    +0.090 C 
BRANCH  16  18
ATOM      3  O   UNL     1      13.205  11.671  20.747  0.00  0.00    -0.358 OA
ATOM      9  N   UNL     1      14.317  11.822  19.928  0.00  0.00    -0.083 NA
ATOM     18  C   UNL     1      14.152  13.009  19.337  0.00  0.00    +0.086 A 
ATOM     19  C   UNL     1      12.966  13.645  19.740  0.00  0.00    +0.072 A 
ATOM     21  C   UNL     1      12.407  12.762  20.627  0.00  0.00    +0.151 A 
BRANCH  21  20
ATOM     20  C   UNL     1      11.178  12.768  21.429  0.00  0.00    +0.161 C 
BRANCH  20   8
ATOM      4  O   UNL     1      10.565  12.204  25.542  0.00  0.00    -0.377 OA
ATOM      8  N   UNL     1      11.426  12.628  22.862  0.00  0.00    -0.291 NA
ATOM     22  C   UNL     1      10.721  13.672  23.618  0.00  0.00    +0.113 C 
ATOM     23  C   UNL     1      11.014  11.299  23.336  0.00  0.00    +0.113 C 
ATOM     24  C   UNL     1      10.983  13.499  25.111  0.00  0.00    +0.175 C 
ATOM     25  C   UNL     1      11.268  11.181  24.836  0.00  0.00    +0.175 C 
ENDBRANCH  20   8
ENDBRANCH  21  20
ENDBRANCH  16  18
ENDBRANCH  11  16
BRANCH  12  17
ATOM     17  C   UNL     1      14.034  10.333  15.605  0.00  0.00    +0.140 C 
BRANCH  17   7
ATOM      5  O   UNL     1      12.550   8.239  16.877  0.00  0.00    -0.253 OA
ATOM      7  N   UNL     1      13.778  10.195  17.007  0.00  0.00    -0.297 N 
ATOM     10  N   UNL     1      12.953   9.265  18.950  0.00  0.00    -0.266 N 
ATOM     26  C   UNL     1      13.038   9.136  17.560  0.00  0.00    +0.304 C 
ATOM     35  H   UNL     1      14.110  10.926  17.628  0.00  0.00    +0.150 HD
ATOM     36  H   UNL     1      13.416  10.070  19.365  0.00  0.00    +0.156 HD
BRANCH  10  27
ATOM     27  C   UNL     1      12.297   8.405  19.862  0.00  0.00    +0.077 A 
ATOM     28  C   UNL     1      12.834   7.156  20.175  0.00  0.00    +0.141 A 
ATOM     29  C   UNL     1      11.101   8.817  20.450  0.00  0.00    +0.027 A 
ATOM     30  C   UNL     1      12.176   6.319  21.074  0.00  0.00    +0.047 A 
ATOM     31  C   UNL     1      10.442   7.979  21.350  0.00  0.00    +0.002 A 
ATOM     32  C   UNL     1      10.979   6.730  21.662  0.00  0.00    +0.004 A 
BRANCH  28   6
ATOM      6  O   UNL     1      14.003   6.735  19.612  0.00  0.00    -0.493 OA
ATOM     33  C   UNL     1      15.100   6.508  20.492  0.00  0.00    +0.277 C 
ENDBRANCH  28   6
ENDBRANCH  10  27
ENDBRANCH  17   7
ENDBRANCH  12  17
TORSDOF 9
ENDMDL
MODEL 9
REMARK VINA RESULT:      -6.6     27.270     29.366
REMARK  Name = 75536429
REMARK  10 active torsions:
REMARK  status: ('A' for Active; 'I' for Inactive)
REMARK    1  A    between atoms: O_2  and  C_13
REMARK    2  A    between atoms: O_6  and  C_28
REMARK    3  A    between atoms: O_6  and  C_33
REMARK    4  A    between atoms: N_7  and  C_17
REMARK    5  A    between atoms: N_8  and  C_20
REMARK    6  A    between atoms: N_10  and  C_27
REMARK    7  A    between atoms: C_11  and  C_16
REMARK    8  A    between atoms: C_12  and  C_17
REMARK    9  A    between atoms: C_16  and  C_18
REMARK   10  A    between atoms: C_20  and  C_21
REMARK                            x       y       z     vdW  Elec       q    Type
REMARK                         _______ _______ _______ _____ _____    ______ ____
ROOT
ATOM      1  O   UNL     1     -16.920   5.203  24.078  0.00  0.00    -0.369 OA
ATOM     11  C   UNL     1     -17.303   4.480  22.905  0.00  0.00    +0.125 C 
ATOM     12  C   UNL     1     -17.212   4.548  25.320  0.00  0.00    +0.164 C 
ATOM     13  C   UNL     1     -18.700   4.187  25.424  0.00  0.00    +0.145 C 
ATOM     14  C   UNL     1     -18.806   4.200  22.912  0.00  0.00    +0.034 C 
ATOM     15  C   UNL     1     -19.210   3.459  24.183  0.00  0.00    +0.036 C 
ENDROOT
BRANCH  13   2
ATOM      2  O   UNL     1     -19.457   5.391  25.566  0.00  0.00    -0.389 OA
ATOM     34  H   UNL     1     -20.369   5.139  25.793  0.00  0.00    +0.210 HD
ENDBRANCH  13   2
BRANCH  11  16
ATOM     16  C   UNL     1     -16.913   5.324  21.699  0.00  0.00    +0.090 C 
BRANCH  16  18
ATOM      3  O   UNL     1     -13.316   5.181  21.854  0.00  0.00    -0.358 OA
ATOM      9  N   UNL     1     -14.577   4.621  22.014  0.00  0.00    -0.083 NA
ATOM     18  C   UNL     1     -15.432   5.582  21.653  0.00  0.00    +0.086 A 
ATOM     19  C   UNL     1     -14.774   6.760  21.260  0.00  0.00    +0.072 A 
ATOM     21  C   UNL     1     -13.446   6.455  21.405  0.00  0.00    +0.151 A 
BRANCH  21  20
ATOM     20  C   UNL     1     -12.202   7.201  21.181  0.00  0.00    +0.161 C 
BRANCH  20   8
ATOM      4  O   UNL     1     -10.882   9.413  17.867  0.00  0.00    -0.377 OA
ATOM      8  N   UNL     1     -12.193   7.939  19.919  0.00  0.00    -0.291 NA
ATOM     22  C   UNL     1     -11.756   9.325  20.128  0.00  0.00    +0.113 C 
ATOM     23  C   UNL     1     -11.322   7.280  18.935  0.00  0.00    +0.113 C 
ATOM     24  C   UNL     1     -11.742  10.071  18.797  0.00  0.00    +0.175 C 
ATOM     25  C   UNL     1     -11.317   8.073  17.632  0.00  0.00    +0.175 C 
ENDBRANCH  20   8
ENDBRANCH  21  20
ENDBRANCH  16  18
ENDBRANCH  11  16
BRANCH  12  17
ATOM     17  C   UNL     1     -16.290   3.352  25.542  0.00  0.00    +0.140 C 
BRANCH  17   7
ATOM      5  O   UNL     1     -16.946   2.395  28.160  0.00  0.00    -0.253 OA
ATOM      7  N   UNL     1     -15.513   3.517  26.732  0.00  0.00    -0.297 N 
ATOM     10  N   UNL     1     -14.947   3.330  28.961  0.00  0.00    -0.266 N 
ATOM     26  C   UNL     1     -15.901   3.017  27.987  0.00  0.00    +0.304 C 
ATOM     35  H   UNL     1     -14.659   4.062  26.675  0.00  0.00    +0.150 HD
ATOM     36  H   UNL     1     -14.131   3.853  28.652  0.00  0.00    +0.156 HD
BRANCH  10  27
ATOM     27  C   UNL     1     -14.973   3.005  30.337  0.00  0.00    +0.077 A 
ATOM     28  C   UNL     1     -14.242   1.921  30.826  0.00  0.00    +0.141 A 
ATOM     29  C   UNL     1     -15.740   3.779  31.208  0.00  0.00    +0.027 A 
ATOM     30  C   UNL     1     -14.279   1.612  32.185  0.00  0.00    +0.047 A 
ATOM     31  C   UNL     1     -15.777   3.469  32.568  0.00  0.00    +0.002 A 
ATOM     32  C   UNL     1     -15.048   2.385  33.057  0.00  0.00    +0.004 A 
BRANCH  28   6
ATOM      6  O   UNL     1     -13.486   1.153  29.992  0.00  0.00    -0.493 OA
ATOM     33  C   UNL     1     -13.888  -0.203  29.819  0.00  0.00    +0.277 C 
ENDBRANCH  28   6
ENDBRANCH  10  27
ENDBRANCH  17   7
ENDBRANCH  12  17
TORSDOF 9
ENDMDL
MODEL 10
REMARK VINA RESULT:      -6.6      3.926      6.174
REMARK  Name = 75536429
REMARK  10 active torsions:
REMARK  status: ('A' for Active; 'I' for Inactive)
REMARK    1  A    between atoms: O_2  and  C_13
REMARK    2  A    between atoms: O_6  and  C_28
REMARK    3  A    between atoms: O_6  and  C_33
REMARK    4  A    between atoms: N_7  and  C_17
REMARK    5  A    between atoms: N_8  and  C_20
REMARK    6  A    between atoms: N_10  and  C_27
REMARK    7  A    between atoms: C_11  and  C_16
REMARK    8  A    between atoms: C_12  and  C_17
REMARK    9  A    between atoms: C_16  and  C_18
REMARK   10  A    between atoms: C_20  and  C_21
REMARK                            x       y       z     vdW  Elec       q    Type
REMARK                         _______ _______ _______ _____ _____    ______ ____
ROOT
ATOM      1  O   UNL     1      13.330   8.541  19.715  0.00  0.00    -0.369 OA
ATOM     11  C   UNL     1      12.051   7.923  19.547  0.00  0.00    +0.125 C 
ATOM     12  C   UNL     1      13.947   8.328  20.991  0.00  0.00    +0.164 C 
ATOM     13  C   UNL     1      13.029   8.772  22.137  0.00  0.00    +0.145 C 
ATOM     14  C   UNL     1      11.066   8.429  20.601  0.00  0.00    +0.034 C 
ATOM     15  C   UNL     1      11.619   8.202  22.006  0.00  0.00    +0.036 C 
ENDROOT
BRANCH  13   2
ATOM      2  O   UNL     1      12.926  10.198  22.118  0.00  0.00    -0.389 OA
ATOM     34  H   UNL     1      12.023  10.431  22.393  0.00  0.00    +0.210 HD
ENDBRANCH  13   2
BRANCH  11  16
ATOM     16  C   UNL     1      11.562   8.256  18.143  0.00  0.00    +0.090 C 
BRANCH  16  18
ATOM      3  O   UNL     1      14.316   8.492  15.833  0.00  0.00    -0.358 OA
ATOM      9  N   UNL     1      13.363   7.770  16.541  0.00  0.00    -0.083 NA
ATOM     18  C   UNL     1      12.690   8.684  17.246  0.00  0.00    +0.086 A 
ATOM     19  C   UNL     1      13.170   9.987  17.025  0.00  0.00    +0.072 A 
ATOM     21  C   UNL     1      14.192   9.810  16.129  0.00  0.00    +0.151 A 
BRANCH  21  20
ATOM     20  C   UNL     1      15.128  10.723  15.463  0.00  0.00    +0.161 C 
BRANCH  20   8
ATOM      4  O   UNL     1      14.370  13.577  12.480  0.00  0.00    -0.377 OA
ATOM      8  N   UNL     1      14.547  11.399  14.305  0.00  0.00    -0.291 NA
ATOM     22  C   UNL     1      13.949  12.683  14.695  0.00  0.00    +0.113 C 
ATOM     23  C   UNL     1      15.561  11.614  13.262  0.00  0.00    +0.113 C 
ATOM     24  C   UNL     1      13.360  13.375  13.470  0.00  0.00    +0.175 C 
ATOM     25  C   UNL     1      14.936  12.332  12.070  0.00  0.00    +0.175 C 
ENDBRANCH  20   8
ENDBRANCH  21  20
ENDBRANCH  16  18
ENDBRANCH  11  16
BRANCH  12  17
ATOM     17  C   UNL     1      14.428   6.886  21.136  0.00  0.00    +0.140 C 
BRANCH  17   7
ATOM      5  O   UNL     1      16.892   6.968  19.680  0.00  0.00    -0.253 OA
ATOM      7  N   UNL     1      15.748   6.837  21.686  0.00  0.00    -0.297 N 
ATOM     10  N   UNL     1      18.055   6.818  21.714  0.00  0.00    -0.266 N 
ATOM     26  C   UNL     1      16.916   6.883  20.905  0.00  0.00    +0.304 C 
ATOM     35  H   UNL     1      15.845   6.718  22.689  0.00  0.00    +0.150 HD
ATOM     36  H   UNL     1      17.901   6.750  22.717  0.00  0.00    +0.156 HD
BRANCH  10  27
ATOM     27  C   UNL     1      19.410   6.836  21.308  0.00  0.00    +0.077 A 
ATOM     28  C   UNL     1      20.138   8.026  21.314  0.00  0.00    +0.141 A 
ATOM     29  C   UNL     1      20.016   5.649  20.898  0.00  0.00    +0.027 A 
ATOM     30  C   UNL     1      21.473   8.029  20.909  0.00  0.00    +0.047 A 
ATOM     31  C   UNL     1      21.352   5.652  20.492  0.00  0.00    +0.002 A 
ATOM     32  C   UNL     1      22.079   6.842  20.497  0.00  0.00    +0.004 A 
BRANCH  28   6
ATOM      6  O   UNL     1      19.564   9.197  21.712  0.00  0.00    -0.493 OA
ATOM     33  C   UNL     1      19.975   9.723  22.971  0.00  0.00    +0.277 C 
ENDBRANCH  28   6
ENDBRANCH  10  27
ENDBRANCH  17   7
ENDBRANCH  12  17
TORSDOF 9
ENDMDL
