MODEL 1
REMARK VINA RESULT:      -7.2      0.000      0.000
REMARK  Name = 45783798
REMARK  7 active torsions:
REMARK  status: ('A' for Active; 'I' for Inactive)
REMARK    1  A    between atoms: N_3  and  C_12
REMARK    2  A    between atoms: N_7  and  C_25
REMARK    3  A    between atoms: N_7  and  C_26
REMARK    4  A    between atoms: N_7  and  C_27
REMARK    5  A    between atoms: C_8  and  C_13
REMARK    6  A    between atoms: C_12  and  C_14
REMARK    7  A    between atoms: C_17  and  C_18
REMARK                            x       y       z     vdW  Elec       q    Type
REMARK                         _______ _______ _______ _____ _____    ______ ____
ROOT
ATOM      2  O   UNL     1      14.926   8.762  19.889  0.00  0.00    -0.336 OA
ATOM      4  N   UNL     1      15.961   6.956  19.060  0.00  0.00    -0.190 NA
ATOM      5  N   UNL     1      16.089   8.594  20.653  0.00  0.00    -0.056 NA
ATOM     13  C   UNL     1      14.928   7.756  18.975  0.00  0.00    +0.245 A 
ATOM     17  C   UNL     1      16.645   7.509  20.104  0.00  0.00    +0.204 A 
ENDROOT
BRANCH  17  18
ATOM      6  N   UNL     1      19.697   7.013  22.168  0.00  0.00    -0.240 NA
ATOM     18  C   UNL     1      17.880   6.954  20.574  0.00  0.00    +0.041 A 
ATOM     22  C   UNL     1      18.462   5.862  19.941  0.00  0.00    +0.016 A 
ATOM     23  C   UNL     1      18.532   7.488  21.675  0.00  0.00    +0.124 A 
ATOM     24  C   UNL     1      19.661   5.344  20.419  0.00  0.00    +0.044 A 
ATOM     25  C   UNL     1      20.232   5.951  21.526  0.00  0.00    +0.121 A 
BRANCH  25   7
ATOM      7  N   UNL     1      21.452   5.411  22.003  0.00  0.00    -0.321 N 
ATOM     26  C   UNL     1      21.776   4.021  21.764  0.00  0.00    +0.130 C 
ATOM     27  C   UNL     1      22.377   6.243  22.740  0.00  0.00    +0.130 C 
ENDBRANCH  25   7
ENDBRANCH  17  18
BRANCH  13   8
ATOM      3  N   UNL     1      12.649   8.595  18.434  0.00  0.00    -0.287 NA
ATOM      8  C   UNL     1      13.759   7.715  18.014  0.00  0.00    +0.146 C 
ATOM      9  C   UNL     1      14.132   8.202  16.602  0.00  0.00    +0.030 C 
ATOM     10  C   UNL     1      13.140   9.314  16.290  0.00  0.00    +0.017 C 
ATOM     11  C   UNL     1      11.972   9.019  17.208  0.00  0.00    +0.085 C 
BRANCH   3  12
ATOM     12  C   UNL     1      11.736   7.960  19.374  0.00  0.00    +0.120 C 
BRANCH  12  14
ATOM      1 CL   UNL     1      10.760  11.392  24.219  0.00  0.00    -0.084 Cl
ATOM     14  C   UNL     1      11.492   8.820  20.586  0.00  0.00    -0.033 A 
ATOM     15  C   UNL     1      10.862   8.280  21.707  0.00  0.00    +0.006 A 
ATOM     16  C   UNL     1      11.894  10.156  20.587  0.00  0.00    +0.006 A 
ATOM     19  C   UNL     1      10.635   9.076  22.830  0.00  0.00    +0.020 A 
ATOM     20  C   UNL     1      11.667  10.951  21.710  0.00  0.00    +0.020 A 
ATOM     21  C   UNL     1      11.037  10.411  22.831  0.00  0.00    +0.041 A 
ENDBRANCH  12  14
ENDBRANCH   3  12
ENDBRANCH  13   8
TORSDOF 5
ENDMDL
MODEL 2
REMARK VINA RESULT:      -6.8      2.548      4.075
REMARK  Name = 45783798
REMARK  7 active torsions:
REMARK  status: ('A' for Active; 'I' for Inactive)
REMARK    1  A    between atoms: N_3  and  C_12
REMARK    2  A    between atoms: N_7  and  C_25
REMARK    3  A    between atoms: N_7  and  C_26
REMARK    4  A    between atoms: N_7  and  C_27
REMARK    5  A    between atoms: C_8  and  C_13
REMARK    6  A    between atoms: C_12  and  C_14
REMARK    7  A    between atoms: C_17  and  C_18
REMARK                            x       y       z     vdW  Elec       q    Type
REMARK                         _______ _______ _______ _____ _____    ______ ____
ROOT
ATOM      2  O   UNL     1      14.448   6.978  19.568  0.00  0.00    -0.336 OA
ATOM      4  N   UNL     1      15.654   7.681  21.320  0.00  0.00    -0.190 NA
ATOM      5  N   UNL     1      15.752   6.511  19.356  0.00  0.00    -0.056 NA
ATOM     13  C   UNL     1      14.478   7.656  20.745  0.00  0.00    +0.245 A 
ATOM     17  C   UNL     1      16.403   6.966  20.431  0.00  0.00    +0.204 A 
ENDROOT
BRANCH  17  18
ATOM      6  N   UNL     1      19.847   7.320  21.788  0.00  0.00    -0.240 NA
ATOM     18  C   UNL     1      17.800   6.725  20.646  0.00  0.00    +0.041 A 
ATOM     22  C   UNL     1      18.466   5.712  19.966  0.00  0.00    +0.016 A 
ATOM     23  C   UNL     1      18.530   7.494  21.539  0.00  0.00    +0.124 A 
ATOM     24  C   UNL     1      19.821   5.501  20.195  0.00  0.00    +0.044 A 
ATOM     25  C   UNL     1      20.459   6.325  21.108  0.00  0.00    +0.121 A 
BRANCH  25   7
ATOM      7  N   UNL     1      21.840   6.097  21.332  0.00  0.00    -0.321 N 
ATOM     26  C   UNL     1      22.548   6.852  22.342  0.00  0.00    +0.130 C 
ATOM     27  C   UNL     1      22.552   5.114  20.546  0.00  0.00    +0.130 C 
ENDBRANCH  25   7
ENDBRANCH  17  18
BRANCH  13   8
ATOM      3  N   UNL     1      12.396   8.852  20.092  0.00  0.00    -0.287 NA
ATOM      8  C   UNL     1      13.171   8.267  21.205  0.00  0.00    +0.146 C 
ATOM      9  C   UNL     1      12.223   7.235  21.842  0.00  0.00    +0.030 C 
ATOM     10  C   UNL     1      10.923   7.354  21.060  0.00  0.00    +0.017 C 
ATOM     11  C   UNL     1      10.986   8.748  20.471  0.00  0.00    +0.085 C 
BRANCH   3  12
ATOM     12  C   UNL     1      12.781  10.222  19.782  0.00  0.00    +0.120 C 
BRANCH  12  14
ATOM      1 CL   UNL     1      15.510  10.623  14.434  0.00  0.00    -0.084 Cl
ATOM     14  C   UNL     1      13.465  10.323  18.444  0.00  0.00    -0.033 A 
ATOM     15  C   UNL     1      13.113   9.450  17.414  0.00  0.00    +0.006 A 
ATOM     16  C   UNL     1      14.451  11.288  18.234  0.00  0.00    +0.006 A 
ATOM     19  C   UNL     1      13.747   9.542  16.175  0.00  0.00    +0.020 A 
ATOM     20  C   UNL     1      15.083  11.380  16.995  0.00  0.00    +0.020 A 
ATOM     21  C   UNL     1      14.731  10.506  15.965  0.00  0.00    +0.041 A 
ENDBRANCH  12  14
ENDBRANCH   3  12
ENDBRANCH  13   8
TORSDOF 5
ENDMDL
MODEL 3
REMARK VINA RESULT:      -6.7      4.109      9.893
REMARK  Name = 45783798
REMARK  7 active torsions:
REMARK  status: ('A' for Active; 'I' for Inactive)
REMARK    1  A    between atoms: N_3  and  C_12
REMARK    2  A    between atoms: N_7  and  C_25
REMARK    3  A    between atoms: N_7  and  C_26
REMARK    4  A    between atoms: N_7  and  C_27
REMARK    5  A    between atoms: C_8  and  C_13
REMARK    6  A    between atoms: C_12  and  C_14
REMARK    7  A    between atoms: C_17  and  C_18
REMARK                            x       y       z     vdW  Elec       q    Type
REMARK                         _______ _______ _______ _____ _____    ______ ____
ROOT
ATOM      2  O   UNL     1      19.147   6.203  20.138  0.00  0.00    -0.336 OA
ATOM      4  N   UNL     1      18.008   7.592  21.477  0.00  0.00    -0.190 NA
ATOM      5  N   UNL     1      17.796   6.059  19.792  0.00  0.00    -0.056 NA
ATOM     13  C   UNL     1      19.182   7.124  21.137  0.00  0.00    +0.245 A 
ATOM     17  C   UNL     1      17.189   6.910  20.625  0.00  0.00    +0.204 A 
ENDROOT
BRANCH  17  18
ATOM      6  N   UNL     1      13.755   7.584  21.881  0.00  0.00    -0.240 NA
ATOM     18  C   UNL     1      15.768   7.100  20.632  0.00  0.00    +0.041 A 
ATOM     22  C   UNL     1      15.025   6.998  19.461  0.00  0.00    +0.016 A 
ATOM     23  C   UNL     1      15.091   7.393  21.805  0.00  0.00    +0.124 A 
ATOM     24  C   UNL     1      13.648   7.187  19.498  0.00  0.00    +0.044 A 
ATOM     25  C   UNL     1      13.067   7.476  20.722  0.00  0.00    +0.121 A 
BRANCH  25   7
ATOM      7  N   UNL     1      11.663   7.668  20.744  0.00  0.00    -0.321 N 
ATOM     26  C   UNL     1      10.851   6.989  21.729  0.00  0.00    +0.130 C 
ATOM     27  C   UNL     1      11.033   8.538  19.775  0.00  0.00    +0.130 C 
ENDBRANCH  25   7
ENDBRANCH  17  18
BRANCH  13   8
ATOM      3  N   UNL     1      21.505   6.344  21.570  0.00  0.00    -0.287 NA
ATOM      8  C   UNL     1      20.549   7.463  21.694  0.00  0.00    +0.146 C 
ATOM      9  C   UNL     1      21.219   8.635  20.954  0.00  0.00    +0.030 C 
ATOM     10  C   UNL     1      22.570   8.099  20.502  0.00  0.00    +0.017 C 
ATOM     11  C   UNL     1      22.833   6.947  21.450  0.00  0.00    +0.085 C 
BRANCH   3  12
ATOM     12  C   UNL     1      21.429   5.398  22.675  0.00  0.00    +0.120 C 
BRANCH  12  14
ATOM      1 CL   UNL     1      24.931   0.594  21.749  0.00  0.00    -0.084 Cl
ATOM     14  C   UNL     1      22.306   4.195  22.444  0.00  0.00    -0.033 A 
ATOM     15  C   UNL     1      22.252   3.518  21.226  0.00  0.00    +0.006 A 
ATOM     16  C   UNL     1      23.170   3.758  23.448  0.00  0.00    +0.006 A 
ATOM     19  C   UNL     1      23.063   2.404  21.012  0.00  0.00    +0.020 A 
ATOM     20  C   UNL     1      23.981   2.644  23.233  0.00  0.00    +0.020 A 
ATOM     21  C   UNL     1      23.927   1.967  22.015  0.00  0.00    +0.041 A 
ENDBRANCH  12  14
ENDBRANCH   3  12
ENDBRANCH  13   8
TORSDOF 5
ENDMDL
MODEL 4
REMARK VINA RESULT:      -6.7      1.668      2.500
REMARK  Name = 45783798
REMARK  7 active torsions:
REMARK  status: ('A' for Active; 'I' for Inactive)
REMARK    1  A    between atoms: N_3  and  C_12
REMARK    2  A    between atoms: N_7  and  C_25
REMARK    3  A    between atoms: N_7  and  C_26
REMARK    4  A    between atoms: N_7  and  C_27
REMARK    5  A    between atoms: C_8  and  C_13
REMARK    6  A    between atoms: C_12  and  C_14
REMARK    7  A    between atoms: C_17  and  C_18
REMARK                            x       y       z     vdW  Elec       q    Type
REMARK                         _______ _______ _______ _____ _____    ______ ____
ROOT
ATOM      2  O   UNL     1      14.603   6.361  19.656  0.00  0.00    -0.336 OA
ATOM      4  N   UNL     1      15.587   8.345  19.315  0.00  0.00    -0.190 NA
ATOM      5  N   UNL     1      15.655   6.440  20.580  0.00  0.00    -0.056 NA
ATOM     13  C   UNL     1      14.635   7.523  18.952  0.00  0.00    +0.245 A 
ATOM     17  C   UNL     1      16.186   7.637  20.316  0.00  0.00    +0.204 A 
ENDROOT
BRANCH  17  18
ATOM      6  N   UNL     1      19.403   7.736  22.177  0.00  0.00    -0.240 NA
ATOM     18  C   UNL     1      17.315   8.155  21.033  0.00  0.00    +0.041 A 
ATOM     22  C   UNL     1      17.443   9.516  21.283  0.00  0.00    +0.016 A 
ATOM     23  C   UNL     1      18.315   7.314  21.496  0.00  0.00    +0.124 A 
ATOM     24  C   UNL     1      18.549   9.989  21.981  0.00  0.00    +0.044 A 
ATOM     25  C   UNL     1      19.492   9.066  22.402  0.00  0.00    +0.121 A 
BRANCH  25   7
ATOM      7  N   UNL     1      20.614   9.563  23.110  0.00  0.00    -0.321 N 
ATOM     26  C   UNL     1      20.473  10.004  24.481  0.00  0.00    +0.130 C 
ATOM     27  C   UNL     1      21.906   9.643  22.464  0.00  0.00    +0.130 C 
ENDBRANCH  25   7
ENDBRANCH  17  18
BRANCH  13   8
ATOM      3  N   UNL     1      12.586   8.726  18.210  0.00  0.00    -0.287 NA
ATOM      8  C   UNL     1      13.583   7.688  17.875  0.00  0.00    +0.146 C 
ATOM      9  C   UNL     1      14.176   8.134  16.527  0.00  0.00    +0.030 C 
ATOM     10  C   UNL     1      13.410   9.396  16.154  0.00  0.00    +0.017 C 
ATOM     11  C   UNL     1      12.118   9.275  16.936  0.00  0.00    +0.085 C 
BRANCH   3  12
ATOM     12  C   UNL     1      11.490   8.227  19.028  0.00  0.00    +0.120 C 
BRANCH  12  14
ATOM      1 CL   UNL     1      11.168  11.080  24.316  0.00  0.00    -0.084 Cl
ATOM     14  C   UNL     1      11.409   8.940  20.352  0.00  0.00    -0.033 A 
ATOM     15  C   UNL     1      12.051  10.167  20.522  0.00  0.00    +0.006 A 
ATOM     16  C   UNL     1      10.694   8.374  21.408  0.00  0.00    +0.006 A 
ATOM     19  C   UNL     1      11.977  10.828  21.748  0.00  0.00    +0.020 A 
ATOM     20  C   UNL     1      10.621   9.036  22.634  0.00  0.00    +0.020 A 
ATOM     21  C   UNL     1      11.262  10.262  22.804  0.00  0.00    +0.041 A 
ENDBRANCH  12  14
ENDBRANCH   3  12
ENDBRANCH  13   8
TORSDOF 5
ENDMDL
MODEL 5
REMARK VINA RESULT:      -6.7      1.559      2.012
REMARK  Name = 45783798
REMARK  7 active torsions:
REMARK  status: ('A' for Active; 'I' for Inactive)
REMARK    1  A    between atoms: N_3  and  C_12
REMARK    2  A    between atoms: N_7  and  C_25
REMARK    3  A    between atoms: N_7  and  C_26
REMARK    4  A    between atoms: N_7  and  C_27
REMARK    5  A    between atoms: C_8  and  C_13
REMARK    6  A    between atoms: C_12  and  C_14
REMARK    7  A    between atoms: C_17  and  C_18
REMARK                            x       y       z     vdW  Elec       q    Type
REMARK                         _______ _______ _______ _____ _____    ______ ____
ROOT
ATOM      2  O   UNL     1      16.346   5.816  18.437  0.00  0.00    -0.336 OA
ATOM      4  N   UNL     1      16.427   7.264  20.144  0.00  0.00    -0.190 NA
ATOM      5  N   UNL     1      17.625   5.688  18.997  0.00  0.00    -0.056 NA
ATOM     13  C   UNL     1      15.707   6.764  19.172  0.00  0.00    +0.245 A 
ATOM     17  C   UNL     1      17.595   6.574  19.997  0.00  0.00    +0.204 A 
ENDROOT
BRANCH  17  18
ATOM      6  N   UNL     1      19.730   8.088  22.638  0.00  0.00    -0.240 NA
ATOM     18  C   UNL     1      18.714   6.794  20.866  0.00  0.00    +0.041 A 
ATOM     22  C   UNL     1      19.839   5.979  20.807  0.00  0.00    +0.016 A 
ATOM     23  C   UNL     1      18.709   7.826  21.792  0.00  0.00    +0.124 A 
ATOM     24  C   UNL     1      20.909   6.217  21.662  0.00  0.00    +0.044 A 
ATOM     25  C   UNL     1      20.805   7.274  22.551  0.00  0.00    +0.121 A 
BRANCH  25   7
ATOM      7  N   UNL     1      21.904   7.502  23.418  0.00  0.00    -0.321 N 
ATOM     26  C   UNL     1      22.948   6.510  23.545  0.00  0.00    +0.130 C 
ATOM     27  C   UNL     1      21.982   8.725  24.187  0.00  0.00    +0.130 C 
ENDBRANCH  25   7
ENDBRANCH  17  18
BRANCH  13   8
ATOM      3  N   UNL     1      13.679   8.138  19.607  0.00  0.00    -0.287 NA
ATOM      8  C   UNL     1      14.286   7.089  18.762  0.00  0.00    +0.146 C 
ATOM      9  C   UNL     1      14.191   7.638  17.327  0.00  0.00    +0.030 C 
ATOM     10  C   UNL     1      13.464   8.968  17.458  0.00  0.00    +0.017 C 
ATOM     11  C   UNL     1      12.707   8.835  18.764  0.00  0.00    +0.085 C 
BRANCH   3  12
ATOM     12  C   UNL     1      13.074   7.616  20.825  0.00  0.00    +0.120 C 
BRANCH  12  14
ATOM      1 CL   UNL     1      10.676  11.996  24.182  0.00  0.00    -0.084 Cl
ATOM     14  C   UNL     1      12.473   8.712  21.665  0.00  0.00    -0.033 A 
ATOM     15  C   UNL     1      13.272   9.765  22.111  0.00  0.00    +0.006 A 
ATOM     16  C   UNL     1      11.119   8.673  22.000  0.00  0.00    +0.006 A 
ATOM     19  C   UNL     1      12.716  10.780  22.890  0.00  0.00    +0.020 A 
ATOM     20  C   UNL     1      10.564   9.688  22.778  0.00  0.00    +0.020 A 
ATOM     21  C   UNL     1      11.363  10.741  23.224  0.00  0.00    +0.041 A 
ENDBRANCH  12  14
ENDBRANCH   3  12
ENDBRANCH  13   8
TORSDOF 5
ENDMDL
MODEL 6
REMARK VINA RESULT:      -6.6      3.807      7.225
REMARK  Name = 45783798
REMARK  7 active torsions:
REMARK  status: ('A' for Active; 'I' for Inactive)
REMARK    1  A    between atoms: N_3  and  C_12
REMARK    2  A    between atoms: N_7  and  C_25
REMARK    3  A    between atoms: N_7  and  C_26
REMARK    4  A    between atoms: N_7  and  C_27
REMARK    5  A    between atoms: C_8  and  C_13
REMARK    6  A    between atoms: C_12  and  C_14
REMARK    7  A    between atoms: C_17  and  C_18
REMARK                            x       y       z     vdW  Elec       q    Type
REMARK                         _______ _______ _______ _____ _____    ______ ____
ROOT
ATOM      2  O   UNL     1      12.266   8.075  17.060  0.00  0.00    -0.336 OA
ATOM      4  N   UNL     1      13.685   9.431  18.139  0.00  0.00    -0.190 NA
ATOM      5  N   UNL     1      12.928   8.815  16.070  0.00  0.00    -0.056 NA
ATOM     13  C   UNL     1      12.771   8.500  18.248  0.00  0.00    +0.245 A 
ATOM     17  C   UNL     1      13.747   9.591  16.786  0.00  0.00    +0.204 A 
ENDROOT
BRANCH  17  18
ATOM      6  N   UNL     1      15.971  11.188  14.270  0.00  0.00    -0.240 NA
ATOM     18  C   UNL     1      14.639  10.536  16.179  0.00  0.00    +0.041 A 
ATOM     22  C   UNL     1      15.038  11.682  16.858  0.00  0.00    +0.016 A 
ATOM     23  C   UNL     1      15.128  10.338  14.898  0.00  0.00    +0.124 A 
ATOM     24  C   UNL     1      15.904  12.581  16.244  0.00  0.00    +0.044 A 
ATOM     25  C   UNL     1      16.337  12.290  14.961  0.00  0.00    +0.121 A 
BRANCH  25   7
ATOM      7  N   UNL     1      17.217  13.217  14.348  0.00  0.00    -0.321 N 
ATOM     26  C   UNL     1      17.428  13.183  12.918  0.00  0.00    +0.130 C 
ATOM     27  C   UNL     1      17.916  14.196  15.151  0.00  0.00    +0.130 C 
ENDBRANCH  25   7
ENDBRANCH  17  18
BRANCH  13   8
ATOM      3  N   UNL     1      13.131   7.931  20.643  0.00  0.00    -0.287 NA
ATOM      8  C   UNL     1      12.210   7.844  19.492  0.00  0.00    +0.146 C 
ATOM      9  C   UNL     1      10.909   8.507  19.980  0.00  0.00    +0.030 C 
ATOM     10  C   UNL     1      11.173   8.879  21.431  0.00  0.00    +0.017 C 
ATOM     11  C   UNL     1      12.293   7.945  21.843  0.00  0.00    +0.085 C 
BRANCH   3  12
ATOM     12  C   UNL     1      14.116   6.858  20.674  0.00  0.00    +0.120 C 
BRANCH  12  14
ATOM      1 CL   UNL     1      19.705   8.973  21.378  0.00  0.00    -0.084 Cl
ATOM     14  C   UNL     1      15.515   7.387  20.850  0.00  0.00    -0.033 A 
ATOM     15  C   UNL     1      15.750   8.762  20.817  0.00  0.00    +0.006 A 
ATOM     16  C   UNL     1      16.576   6.502  21.044  0.00  0.00    +0.006 A 
ATOM     19  C   UNL     1      17.045   9.251  20.979  0.00  0.00    +0.020 A 
ATOM     20  C   UNL     1      17.872   6.993  21.206  0.00  0.00    +0.020 A 
ATOM     21  C   UNL     1      18.106   8.368  21.173  0.00  0.00    +0.041 A 
ENDBRANCH  12  14
ENDBRANCH   3  12
ENDBRANCH  13   8
TORSDOF 5
ENDMDL
MODEL 7
REMARK VINA RESULT:      -6.5     15.323     18.947
REMARK  Name = 45783798
REMARK  7 active torsions:
REMARK  status: ('A' for Active; 'I' for Inactive)
REMARK    1  A    between atoms: N_3  and  C_12
REMARK    2  A    between atoms: N_7  and  C_25
REMARK    3  A    between atoms: N_7  and  C_26
REMARK    4  A    between atoms: N_7  and  C_27
REMARK    5  A    between atoms: C_8  and  C_13
REMARK    6  A    between atoms: C_12  and  C_14
REMARK    7  A    between atoms: C_17  and  C_18
REMARK                            x       y       z     vdW  Elec       q    Type
REMARK                         _______ _______ _______ _____ _____    ______ ____
ROOT
ATOM      2  O   UNL     1       9.993   4.535   5.485  0.00  0.00    -0.336 OA
ATOM      4  N   UNL     1      11.156   5.849   4.091  0.00  0.00    -0.190 NA
ATOM      5  N   UNL     1      10.186   3.788   4.314  0.00  0.00    -0.056 NA
ATOM     13  C   UNL     1      10.594   5.734   5.269  0.00  0.00    +0.245 A 
ATOM     17  C   UNL     1      10.879   4.631   3.542  0.00  0.00    +0.204 A 
ENDROOT
BRANCH  17  18
ATOM      6  N   UNL     1      10.775   4.034  -0.126  0.00  0.00    -0.240 NA
ATOM     18  C   UNL     1      11.309   4.287   2.218  0.00  0.00    +0.041 A 
ATOM     22  C   UNL     1      12.617   3.887   1.970  0.00  0.00    +0.016 A 
ATOM     23  C   UNL     1      10.434   4.344   1.144  0.00  0.00    +0.124 A 
ATOM     24  C   UNL     1      13.006   3.559   0.676  0.00  0.00    +0.044 A 
ATOM     25  C   UNL     1      12.055   3.649  -0.328  0.00  0.00    +0.121 A 
BRANCH  25   7
ATOM      7  N   UNL     1      12.466   3.314  -1.642  0.00  0.00    -0.321 N 
ATOM     26  C   UNL     1      11.760   2.295  -2.388  0.00  0.00    +0.130 C 
ATOM     27  C   UNL     1      13.599   3.982  -2.242  0.00  0.00    +0.130 C 
ENDBRANCH  25   7
ENDBRANCH  17  18
BRANCH  13   8
ATOM      3  N   UNL     1       9.404   7.685   6.254  0.00  0.00    -0.287 NA
ATOM      8  C   UNL     1      10.526   6.736   6.402  0.00  0.00    +0.146 C 
ATOM      9  C   UNL     1      10.299   6.071   7.772  0.00  0.00    +0.030 C 
ATOM     10  C   UNL     1       9.063   6.751   8.343  0.00  0.00    +0.017 C 
ATOM     11  C   UNL     1       9.011   8.075   7.609  0.00  0.00    +0.085 C 
BRANCH   3  12
ATOM     12  C   UNL     1       9.730   8.836   5.424  0.00  0.00    +0.120 C 
BRANCH  12  14
ATOM      1 CL   UNL     1       5.705   9.641   1.025  0.00  0.00    -0.084 Cl
ATOM     14  C   UNL     1       8.723   9.037   4.323  0.00  0.00    -0.033 A 
ATOM     15  C   UNL     1       7.506   9.660   4.597  0.00  0.00    +0.006 A 
ATOM     16  C   UNL     1       9.007   8.599   3.029  0.00  0.00    +0.006 A 
ATOM     19  C   UNL     1       6.572   9.846   3.577  0.00  0.00    +0.020 A 
ATOM     20  C   UNL     1       8.073   8.786   2.010  0.00  0.00    +0.020 A 
ATOM     21  C   UNL     1       6.856   9.408   2.284  0.00  0.00    +0.041 A 
ENDBRANCH  12  14
ENDBRANCH   3  12
ENDBRANCH  13   8
TORSDOF 5
ENDMDL
MODEL 8
REMARK VINA RESULT:      -6.5     27.583     29.036
REMARK  Name = 45783798
REMARK  7 active torsions:
REMARK  status: ('A' for Active; 'I' for Inactive)
REMARK    1  A    between atoms: N_3  and  C_12
REMARK    2  A    between atoms: N_7  and  C_25
REMARK    3  A    between atoms: N_7  and  C_26
REMARK    4  A    between atoms: N_7  and  C_27
REMARK    5  A    between atoms: C_8  and  C_13
REMARK    6  A    between atoms: C_12  and  C_14
REMARK    7  A    between atoms: C_17  and  C_18
REMARK                            x       y       z     vdW  Elec       q    Type
REMARK                         _______ _______ _______ _____ _____    ______ ____
ROOT
ATOM      2  O   UNL     1      -7.661  -9.276  11.622  0.00  0.00    -0.336 OA
ATOM      4  N   UNL     1      -5.596  -9.353  12.488  0.00  0.00    -0.190 NA
ATOM      5  N   UNL     1      -7.814  -9.655  12.963  0.00  0.00    -0.056 NA
ATOM     13  C   UNL     1      -6.325  -9.118  11.426  0.00  0.00    +0.245 A 
ATOM     17  C   UNL     1      -6.553  -9.678  13.405  0.00  0.00    +0.204 A 
ENDROOT
BRANCH  17  18
ATOM      6  N   UNL     1      -6.918 -10.309  17.051  0.00  0.00    -0.240 NA
ATOM     18  C   UNL     1      -6.215 -10.023  14.755  0.00  0.00    +0.041 A 
ATOM     22  C   UNL     1      -4.921 -10.396  15.098  0.00  0.00    +0.016 A 
ATOM     23  C   UNL     1      -7.170  -9.997  15.761  0.00  0.00    +0.124 A 
ATOM     24  C   UNL     1      -4.623 -10.726  16.416  0.00  0.00    +0.044 A 
ATOM     25  C   UNL     1      -5.648 -10.667  17.345  0.00  0.00    +0.121 A 
BRANCH  25   7
ATOM      7  N   UNL     1      -5.330 -11.007  18.684  0.00  0.00    -0.321 N 
ATOM     26  C   UNL     1      -4.190 -11.852  18.968  0.00  0.00    +0.130 C 
ATOM     27  C   UNL     1      -6.147 -10.520  19.773  0.00  0.00    +0.130 C 
ENDBRANCH  25   7
ENDBRANCH  17  18
BRANCH  13   8
ATOM      3  N   UNL     1      -5.018  -9.704   9.391  0.00  0.00    -0.287 NA
ATOM      8  C   UNL     1      -5.893  -8.703  10.036  0.00  0.00    +0.146 C 
ATOM      9  C   UNL     1      -7.078  -8.537   9.068  0.00  0.00    +0.030 C 
ATOM     10  C   UNL     1      -6.753  -9.436   7.884  0.00  0.00    +0.017 C 
ATOM     11  C   UNL     1      -5.247  -9.585   7.951  0.00  0.00    +0.085 C 
BRANCH   3  12
ATOM     12  C   UNL     1      -3.612  -9.547   9.739  0.00  0.00    +0.120 C 
BRANCH  12  14
ATOM      1 CL   UNL     1      -1.810 -13.694  13.708  0.00  0.00    -0.084 Cl
ATOM     14  C   UNL     1      -3.161 -10.585  10.731  0.00  0.00    -0.033 A 
ATOM     15  C   UNL     1      -2.263 -10.240  11.741  0.00  0.00    +0.006 A 
ATOM     16  C   UNL     1      -3.641 -11.892  10.641  0.00  0.00    +0.006 A 
ATOM     19  C   UNL     1      -1.844 -11.202  12.660  0.00  0.00    +0.020 A 
ATOM     20  C   UNL     1      -3.223 -12.853  11.561  0.00  0.00    +0.020 A 
ATOM     21  C   UNL     1      -2.324 -12.508  12.571  0.00  0.00    +0.041 A 
ENDBRANCH  12  14
ENDBRANCH   3  12
ENDBRANCH  13   8
TORSDOF 5
ENDMDL
MODEL 9
REMARK VINA RESULT:      -6.5      4.721     11.062
REMARK  Name = 45783798
REMARK  7 active torsions:
REMARK  status: ('A' for Active; 'I' for Inactive)
REMARK    1  A    between atoms: N_3  and  C_12
REMARK    2  A    between atoms: N_7  and  C_25
REMARK    3  A    between atoms: N_7  and  C_26
REMARK    4  A    between atoms: N_7  and  C_27
REMARK    5  A    between atoms: C_8  and  C_13
REMARK    6  A    between atoms: C_12  and  C_14
REMARK    7  A    between atoms: C_17  and  C_18
REMARK                            x       y       z     vdW  Elec       q    Type
REMARK                         _______ _______ _______ _____ _____    ______ ____
ROOT
ATOM      2  O   UNL     1      21.211   4.817  20.874  0.00  0.00    -0.336 OA
ATOM      4  N   UNL     1      19.847   6.322  21.821  0.00  0.00    -0.190 NA
ATOM      5  N   UNL     1      20.065   4.868  20.068  0.00  0.00    -0.056 NA
ATOM     13  C   UNL     1      20.999   5.703  21.884  0.00  0.00    +0.245 A 
ATOM     17  C   UNL     1      19.309   5.777  20.692  0.00  0.00    +0.204 A 
ENDROOT
BRANCH  17  18
ATOM      6  N   UNL     1      16.309   5.994  18.506  0.00  0.00    -0.240 NA
ATOM     18  C   UNL     1      18.013   6.161  20.213  0.00  0.00    +0.041 A 
ATOM     22  C   UNL     1      17.212   7.035  20.938  0.00  0.00    +0.016 A 
ATOM     23  C   UNL     1      17.519   5.672  19.014  0.00  0.00    +0.124 A 
ATOM     24  C   UNL     1      15.959   7.390  20.449  0.00  0.00    +0.044 A 
ATOM     25  C   UNL     1      15.559   6.847  19.239  0.00  0.00    +0.121 A 
BRANCH  25   7
ATOM      7  N   UNL     1      14.279   7.216  18.755  0.00  0.00    -0.321 N 
ATOM     26  C   UNL     1      14.143   7.825  17.450  0.00  0.00    +0.130 C 
ATOM     27  C   UNL     1      13.102   6.996  19.567  0.00  0.00    +0.130 C 
ENDBRANCH  25   7
ENDBRANCH  17  18
BRANCH  13   8
ATOM      3  N   UNL     1      23.118   4.766  22.791  0.00  0.00    -0.287 NA
ATOM      8  C   UNL     1      22.108   5.838  22.906  0.00  0.00    +0.146 C 
ATOM      9  C   UNL     1      22.905   7.146  22.750  0.00  0.00    +0.030 C 
ATOM     10  C   UNL     1      24.357   6.712  22.614  0.00  0.00    +0.017 C 
ATOM     11  C   UNL     1      24.382   5.339  23.255  0.00  0.00    +0.085 C 
BRANCH   3  12
ATOM     12  C   UNL     1      22.761   3.559  23.525  0.00  0.00    +0.120 C 
BRANCH  12  14
ATOM      1 CL   UNL     1      26.268  -1.092  22.018  0.00  0.00    -0.084 Cl
ATOM     14  C   UNL     1      23.638   2.395  23.148  0.00  0.00    -0.033 A 
ATOM     15  C   UNL     1      23.795   2.045  21.807  0.00  0.00    +0.006 A 
ATOM     16  C   UNL     1      24.294   1.665  24.140  0.00  0.00    +0.006 A 
ATOM     19  C   UNL     1      24.607   0.967  21.458  0.00  0.00    +0.020 A 
ATOM     20  C   UNL     1      25.106   0.587  23.791  0.00  0.00    +0.020 A 
ATOM     21  C   UNL     1      25.262   0.237  22.449  0.00  0.00    +0.041 A 
ENDBRANCH  12  14
ENDBRANCH   3  12
ENDBRANCH  13   8
TORSDOF 5
ENDMDL
MODEL 10
REMARK VINA RESULT:      -6.5     26.311     29.470
REMARK  Name = 45783798
REMARK  7 active torsions:
REMARK  status: ('A' for Active; 'I' for Inactive)
REMARK    1  A    between atoms: N_3  and  C_12
REMARK    2  A    between atoms: N_7  and  C_25
REMARK    3  A    between atoms: N_7  and  C_26
REMARK    4  A    between atoms: N_7  and  C_27
REMARK    5  A    between atoms: C_8  and  C_13
REMARK    6  A    between atoms: C_12  and  C_14
REMARK    7  A    between atoms: C_17  and  C_18
REMARK                            x       y       z     vdW  Elec       q    Type
REMARK                         _______ _______ _______ _____ _____    ______ ____
ROOT
ATOM      2  O   UNL     1      -5.028 -11.720  16.915  0.00  0.00    -0.336 OA
ATOM      4  N   UNL     1      -5.523 -10.107  15.441  0.00  0.00    -0.190 NA
ATOM      5  N   UNL     1      -6.331 -11.300  17.218  0.00  0.00    -0.056 NA
ATOM     13  C   UNL     1      -4.628 -10.967  15.857  0.00  0.00    +0.245 A 
ATOM     17  C   UNL     1      -6.550 -10.348  16.306  0.00  0.00    +0.204 A 
ENDROOT
BRANCH  17  18
ATOM      6  N   UNL     1      -9.414  -8.206  17.323  0.00  0.00    -0.240 NA
ATOM     18  C   UNL     1      -7.784  -9.620  16.233  0.00  0.00    +0.041 A 
ATOM     22  C   UNL     1      -8.537  -9.601  15.066  0.00  0.00    +0.016 A 
ATOM     23  C   UNL     1      -8.261  -8.911  17.325  0.00  0.00    +0.124 A 
ATOM     24  C   UNL     1      -9.729  -8.886  15.024  0.00  0.00    +0.044 A 
ATOM     25  C   UNL     1     -10.119  -8.211  16.169  0.00  0.00    +0.121 A 
BRANCH  25   7
ATOM      7  N   UNL     1     -11.335  -7.485  16.111  0.00  0.00    -0.321 N 
ATOM     26  C   UNL     1     -12.598  -8.186  16.049  0.00  0.00    +0.130 C 
ATOM     27  C   UNL     1     -11.319  -6.039  16.104  0.00  0.00    +0.130 C 
ENDBRANCH  25   7
ENDBRANCH  17  18
BRANCH  13   8
ATOM      3  N   UNL     1      -2.964 -10.530  14.059  0.00  0.00    -0.287 NA
ATOM      8  C   UNL     1      -3.233 -11.232  15.330  0.00  0.00    +0.146 C 
ATOM      9  C   UNL     1      -2.132 -10.744  16.289  0.00  0.00    +0.030 C 
ATOM     10  C   UNL     1      -1.258  -9.821  15.452  0.00  0.00    +0.017 C 
ATOM     11  C   UNL     1      -1.524 -10.268  14.029  0.00  0.00    +0.085 C 
BRANCH   3  12
ATOM     12  C   UNL     1      -3.411 -11.271  12.887  0.00  0.00    +0.120 C 
BRANCH  12  14
ATOM      1 CL   UNL     1      -6.408  -7.760   9.027  0.00  0.00    -0.084 Cl
ATOM     14  C   UNL     1      -4.162 -10.392  11.922  0.00  0.00    -0.033 A 
ATOM     15  C   UNL     1      -3.511  -9.872  10.803  0.00  0.00    +0.006 A 
ATOM     16  C   UNL     1      -5.506 -10.096  12.147  0.00  0.00    +0.006 A 
ATOM     19  C   UNL     1      -4.206  -9.058   9.908  0.00  0.00    +0.020 A 
ATOM     20  C   UNL     1      -6.200  -9.282  11.252  0.00  0.00    +0.020 A 
ATOM     21  C   UNL     1      -5.550  -8.763  10.133  0.00  0.00    +0.041 A 
ENDBRANCH  12  14
ENDBRANCH   3  12
ENDBRANCH  13   8
TORSDOF 5
ENDMDL
