MODEL 1
REMARK VINA RESULT:      -7.5      0.000      0.000
REMARK  Name = 11884262
REMARK  5 active torsions:
REMARK  status: ('A' for Active; 'I' for Inactive)
REMARK    1  A    between atoms: O_5  and  C_22
REMARK    2  A    between atoms: O_6  and  C_25
REMARK    3  A    between atoms: O_6  and  C_30
REMARK    4  A    between atoms: C_18  and  C_22
REMARK    5  A    between atoms: C_21  and  C_24
REMARK                            x       y       z     vdW  Elec       q    Type
REMARK                         _______ _______ _______ _____ _____    ______ ____
ROOT
ATOM      2  O   UNL     1      15.939  10.024  21.242  0.00  0.00    -0.273 OA
ATOM      3  O   UNL     1      17.954   5.640  19.085  0.00  0.00    -0.270 OA
ATOM      4  O   UNL     1      12.183   9.012  22.071  0.00  0.00    -0.273 OA
ATOM      7  N   UNL     1      16.445   6.908  20.296  0.00  0.00    -0.283 N 
ATOM      8  N   UNL     1      13.792   8.000  20.725  0.00  0.00    -0.296 N 
ATOM      9  N   UNL     1      18.049   9.176  21.316  0.00  0.00    -0.283 N 
ATOM     10  C   UNL     1      16.136   7.634  21.520  0.00  0.00    +0.180 C 
ATOM     11  C   UNL     1      14.639   7.616  21.856  0.00  0.00    +0.139 C 
ATOM     12  C   UNL     1      15.323   6.538  19.432  0.00  0.00    +0.128 C 
ATOM     13  C   UNL     1      14.258   7.623  19.388  0.00  0.00    +0.127 C 
ATOM     14  C   UNL     1      16.677   9.040  21.317  0.00  0.00    +0.239 C 
ATOM     15  C   UNL     1      17.715   6.414  20.014  0.00  0.00    +0.249 C 
ATOM     16  C   UNL     1      18.863   6.855  20.851  0.00  0.00    +0.059 A 
ATOM     17  C   UNL     1      19.027   8.159  21.345  0.00  0.00    +0.046 A 
ATOM     18  C   UNL     1      12.596   8.685  20.961  0.00  0.00    +0.241 C 
ATOM     19  C   UNL     1      19.915   5.930  20.985  0.00  0.00    +0.023 A 
ATOM     20  C   UNL     1      20.266   8.527  21.898  0.00  0.00    +0.024 A 
ATOM     21  C   UNL     1      21.121   6.299  21.581  0.00  0.00    -0.014 A 
ATOM     23  C   UNL     1      21.301   7.601  22.024  0.00  0.00    +0.010 A 
ATOM     31  H   UNL     1      18.395  10.129  21.404  0.00  0.00    +0.155 HD
ENDROOT
BRANCH  21  24
ATOM      1 CL   UNL     1      24.907   3.643  19.309  0.00  0.00    -0.084 Cl
ATOM     24  C   UNL     1      22.190   5.332  21.713  0.00  0.00    +0.025 A 
ATOM     25  C   UNL     1      22.475   4.741  22.945  0.00  0.00    +0.128 A 
ATOM     26  C   UNL     1      22.944   4.991  20.588  0.00  0.00    +0.032 A 
ATOM     27  C   UNL     1      23.509   3.811  23.053  0.00  0.00    +0.047 A 
ATOM     28  C   UNL     1      23.979   4.062  20.696  0.00  0.00    +0.042 A 
ATOM     29  C   UNL     1      24.260   3.472  21.928  0.00  0.00    +0.023 A 
BRANCH  25   6
ATOM      6  O   UNL     1      21.756   5.055  24.061  0.00  0.00    -0.495 OA
ATOM     30  C   UNL     1      22.469   5.644  25.146  0.00  0.00    +0.277 C 
ENDBRANCH  25   6
ENDBRANCH  21  24
BRANCH  18  22
ATOM     22  C   UNL     1      11.759   9.024  19.768  0.00  0.00    +0.251 C 
BRANCH  22   5
ATOM      5  O   UNL     1      10.528   8.365  19.941  0.00  0.00    -0.386 OA
ATOM     32  H   UNL     1      10.004   8.875  20.581  0.00  0.00    +0.210 HD
ENDBRANCH  22   5
ENDBRANCH  18  22
TORSDOF 4
ENDMDL
MODEL 2
REMARK VINA RESULT:      -7.2      3.730      9.115
REMARK  Name = 11884262
REMARK  5 active torsions:
REMARK  status: ('A' for Active; 'I' for Inactive)
REMARK    1  A    between atoms: O_5  and  C_22
REMARK    2  A    between atoms: O_6  and  C_25
REMARK    3  A    between atoms: O_6  and  C_30
REMARK    4  A    between atoms: C_18  and  C_22
REMARK    5  A    between atoms: C_21  and  C_24
REMARK                            x       y       z     vdW  Elec       q    Type
REMARK                         _______ _______ _______ _____ _____    ______ ____
ROOT
ATOM      2  O   UNL     1      21.451   5.720  20.960  0.00  0.00    -0.273 OA
ATOM      3  O   UNL     1      18.198   9.853  21.476  0.00  0.00    -0.270 OA
ATOM      4  O   UNL     1      23.297   5.542  24.478  0.00  0.00    -0.273 OA
ATOM      7  N   UNL     1      19.602   8.156  22.186  0.00  0.00    -0.283 N 
ATOM      8  N   UNL     1      22.017   7.219  23.490  0.00  0.00    -0.296 N 
ATOM      9  N   UNL     1      19.392   6.101  20.068  0.00  0.00    -0.283 N 
ATOM     10  C   UNL     1      19.812   6.734  22.414  0.00  0.00    +0.180 C 
ATOM     11  C   UNL     1      20.771   6.456  23.578  0.00  0.00    +0.139 C 
ATOM     12  C   UNL     1      20.513   9.086  22.855  0.00  0.00    +0.128 C 
ATOM     13  C   UNL     1      21.938   8.555  22.895  0.00  0.00    +0.127 C 
ATOM     14  C   UNL     1      20.312   6.171  21.093  0.00  0.00    +0.239 C 
ATOM     15  C   UNL     1      18.490   8.656  21.514  0.00  0.00    +0.249 C 
ATOM     16  C   UNL     1      17.611   7.712  20.772  0.00  0.00    +0.059 A 
ATOM     17  C   UNL     1      18.076   6.609  20.040  0.00  0.00    +0.046 A 
ATOM     18  C   UNL     1      23.203   6.659  23.974  0.00  0.00    +0.241 C 
ATOM     19  C   UNL     1      16.257   8.083  20.676  0.00  0.00    +0.023 A 
ATOM     20  C   UNL     1      17.190   5.946  19.172  0.00  0.00    +0.024 A 
ATOM     21  C   UNL     1      15.381   7.382  19.848  0.00  0.00    -0.014 A 
ATOM     23  C   UNL     1      15.850   6.322  19.085  0.00  0.00    +0.010 A 
ATOM     31  H   UNL     1      19.666   5.527  19.273  0.00  0.00    +0.155 HD
ENDROOT
BRANCH  21  24
ATOM      1 CL   UNL     1      10.625   7.032  21.799  0.00  0.00    -0.084 Cl
ATOM     24  C   UNL     1      13.991   7.776  19.765  0.00  0.00    +0.025 A 
ATOM     25  C   UNL     1      13.547   8.641  18.764  0.00  0.00    +0.128 A 
ATOM     26  C   UNL     1      13.084   7.278  20.704  0.00  0.00    +0.032 A 
ATOM     27  C   UNL     1      12.203   9.009  18.701  0.00  0.00    +0.047 A 
ATOM     28  C   UNL     1      11.740   7.646  20.641  0.00  0.00    +0.042 A 
ATOM     29  C   UNL     1      11.300   8.511  19.639  0.00  0.00    +0.023 A 
BRANCH  25   6
ATOM      6  O   UNL     1      14.410   9.144  17.834  0.00  0.00    -0.495 OA
ATOM     30  C   UNL     1      14.036   9.006  16.465  0.00  0.00    +0.277 C 
ENDBRANCH  25   6
ENDBRANCH  21  24
BRANCH  18  22
ATOM     22  C   UNL     1      24.439   7.497  23.883  0.00  0.00    +0.251 C 
BRANCH  22   5
ATOM      5  O   UNL     1      25.151   7.042  22.759  0.00  0.00    -0.386 OA
ATOM     32  H   UNL     1      25.235   7.785  22.138  0.00  0.00    +0.210 HD
ENDBRANCH  22   5
ENDBRANCH  18  22
TORSDOF 4
ENDMDL
MODEL 3
REMARK VINA RESULT:      -7.0      3.381      8.904
REMARK  Name = 11884262
REMARK  5 active torsions:
REMARK  status: ('A' for Active; 'I' for Inactive)
REMARK    1  A    between atoms: O_5  and  C_22
REMARK    2  A    between atoms: O_6  and  C_25
REMARK    3  A    between atoms: O_6  and  C_30
REMARK    4  A    between atoms: C_18  and  C_22
REMARK    5  A    between atoms: C_21  and  C_24
REMARK                            x       y       z     vdW  Elec       q    Type
REMARK                         _______ _______ _______ _____ _____    ______ ____
ROOT
ATOM      2  O   UNL     1      20.434   7.626  23.137  0.00  0.00    -0.273 OA
ATOM      3  O   UNL     1      17.532   5.064  19.539  0.00  0.00    -0.270 OA
ATOM      4  O   UNL     1      24.167   7.098  21.871  0.00  0.00    -0.273 OA
ATOM      7  N   UNL     1      19.415   6.094  20.403  0.00  0.00    -0.283 N 
ATOM      8  N   UNL     1      22.176   6.037  21.290  0.00  0.00    -0.296 N 
ATOM      9  N   UNL     1      18.348   8.062  22.339  0.00  0.00    -0.283 N 
ATOM     10  C   UNL     1      20.099   7.328  20.765  0.00  0.00    +0.180 C 
ATOM     11  C   UNL     1      21.623   7.221  20.630  0.00  0.00    +0.139 C 
ATOM     12  C   UNL     1      20.233   4.888  20.261  0.00  0.00    +0.128 C 
ATOM     13  C   UNL     1      21.344   4.831  21.299  0.00  0.00    +0.127 C 
ATOM     14  C   UNL     1      19.654   7.649  22.182  0.00  0.00    +0.239 C 
ATOM     15  C   UNL     1      18.075   6.057  20.027  0.00  0.00    +0.249 C 
ATOM     16  C   UNL     1      17.232   7.263  20.246  0.00  0.00    +0.059 A 
ATOM     17  C   UNL     1      17.323   8.099  21.369  0.00  0.00    +0.046 A 
ATOM     18  C   UNL     1      23.450   6.100  21.864  0.00  0.00    +0.241 C 
ATOM     19  C   UNL     1      16.171   7.441  19.338  0.00  0.00    +0.023 A 
ATOM     20  C   UNL     1      16.310   9.047  21.596  0.00  0.00    +0.024 A 
ATOM     21  C   UNL     1      15.202   8.420  19.553  0.00  0.00    -0.014 A 
ATOM     23  C   UNL     1      15.264   9.214  20.690  0.00  0.00    +0.010 A 
ATOM     31  H   UNL     1      18.126   8.482  23.238  0.00  0.00    +0.155 HD
ENDROOT
BRANCH  21  24
ATOM      1 CL   UNL     1      13.476  10.703  15.269  0.00  0.00    -0.084 Cl
ATOM     24  C   UNL     1      14.121   8.591  18.607  0.00  0.00    +0.025 A 
ATOM     25  C   UNL     1      12.916   7.905  18.761  0.00  0.00    +0.128 A 
ATOM     26  C   UNL     1      14.293   9.457  17.525  0.00  0.00    +0.032 A 
ATOM     27  C   UNL     1      11.885   8.083  17.839  0.00  0.00    +0.047 A 
ATOM     28  C   UNL     1      13.262   9.635  16.601  0.00  0.00    +0.042 A 
ATOM     29  C   UNL     1      12.059   8.949  16.759  0.00  0.00    +0.023 A 
BRANCH  25   6
ATOM      6  O   UNL     1      12.719   7.052  19.808  0.00  0.00    -0.495 OA
ATOM     30  C   UNL     1      11.672   7.377  20.719  0.00  0.00    +0.277 C 
ENDBRANCH  25   6
ENDBRANCH  21  24
BRANCH  18  22
ATOM     22  C   UNL     1      23.973   4.851  22.499  0.00  0.00    +0.251 C 
BRANCH  22   5
ATOM      5  O   UNL     1      24.857   4.269  21.571  0.00  0.00    -0.386 OA
ATOM     32  H   UNL     1      25.631   4.853  21.490  0.00  0.00    +0.210 HD
ENDBRANCH  22   5
ENDBRANCH  18  22
TORSDOF 4
ENDMDL
MODEL 4
REMARK VINA RESULT:      -6.9     16.277     19.259
REMARK  Name = 11884262
REMARK  5 active torsions:
REMARK  status: ('A' for Active; 'I' for Inactive)
REMARK    1  A    between atoms: O_5  and  C_22
REMARK    2  A    between atoms: O_6  and  C_25
REMARK    3  A    between atoms: O_6  and  C_30
REMARK    4  A    between atoms: C_18  and  C_22
REMARK    5  A    between atoms: C_21  and  C_24
REMARK                            x       y       z     vdW  Elec       q    Type
REMARK                         _______ _______ _______ _____ _____    ______ ____
ROOT
ATOM      2  O   UNL     1      10.120   7.426   8.090  0.00  0.00    -0.273 OA
ATOM      3  O   UNL     1      13.648   7.670   4.162  0.00  0.00    -0.270 OA
ATOM      4  O   UNL     1       9.267  11.243   8.814  0.00  0.00    -0.273 OA
ATOM      7  N   UNL     1      11.979   8.443   5.566  0.00  0.00    -0.283 N 
ATOM      8  N   UNL     1      10.998  10.250   7.612  0.00  0.00    -0.296 N 
ATOM      9  N   UNL     1      10.500   6.005   6.354  0.00  0.00    -0.283 N 
ATOM     10  C   UNL     1      10.573   8.435   5.944  0.00  0.00    +0.180 C 
ATOM     11  C   UNL     1      10.115   9.768   6.548  0.00  0.00    +0.139 C 
ATOM     12  C   UNL     1      12.802   9.547   6.062  0.00  0.00    +0.128 C 
ATOM     13  C   UNL     1      12.424   9.945   7.481  0.00  0.00    +0.127 C 
ATOM     14  C   UNL     1      10.407   7.267   6.902  0.00  0.00    +0.239 C 
ATOM     15  C   UNL     1      12.514   7.560   4.633  0.00  0.00    +0.249 C 
ATOM     16  C   UNL     1      11.699   6.396   4.192  0.00  0.00    +0.059 A 
ATOM     17  C   UNL     1      10.863   5.650   5.037  0.00  0.00    +0.046 A 
ATOM     18  C   UNL     1      10.458  10.973   8.680  0.00  0.00    +0.241 C 
ATOM     19  C   UNL     1      11.943   5.938   2.884  0.00  0.00    +0.023 A 
ATOM     20  C   UNL     1      10.349   4.425   4.577  0.00  0.00    +0.024 A 
ATOM     21  C   UNL     1      11.384   4.745   2.428  0.00  0.00    -0.014 A 
ATOM     23  C   UNL     1      10.598   3.981   3.279  0.00  0.00    +0.010 A 
ATOM     31  H   UNL     1      10.170   5.245   6.945  0.00  0.00    +0.155 HD
ENDROOT
BRANCH  21  24
ATOM      1 CL   UNL     1       9.913   4.679  -2.510  0.00  0.00    -0.084 Cl
ATOM     24  C   UNL     1      11.644   4.292   1.078  0.00  0.00    +0.025 A 
ATOM     25  C   UNL     1      12.756   3.500   0.787  0.00  0.00    +0.128 A 
ATOM     26  C   UNL     1      10.764   4.656   0.056  0.00  0.00    +0.032 A 
ATOM     27  C   UNL     1      12.989   3.073  -0.520  0.00  0.00    +0.047 A 
ATOM     28  C   UNL     1      10.997   4.229  -1.252  0.00  0.00    +0.042 A 
ATOM     29  C   UNL     1      12.109   3.438  -1.539  0.00  0.00    +0.023 A 
BRANCH  25   6
ATOM      6  O   UNL     1      13.632   3.129   1.765  0.00  0.00    -0.495 OA
ATOM     30  C   UNL     1      14.975   3.592   1.639  0.00  0.00    +0.277 C 
ENDBRANCH  25   6
ENDBRANCH  21  24
BRANCH  18  22
ATOM     22  C   UNL     1      11.413  11.464   9.722  0.00  0.00    +0.251 C 
BRANCH  22   5
ATOM      5  O   UNL     1      10.648  11.740  10.870  0.00  0.00    -0.386 OA
ATOM     32  H   UNL     1       9.828  12.176  10.585  0.00  0.00    +0.210 HD
ENDBRANCH  22   5
ENDBRANCH  18  22
TORSDOF 4
ENDMDL
MODEL 5
REMARK VINA RESULT:      -6.9      3.261      4.563
REMARK  Name = 11884262
REMARK  5 active torsions:
REMARK  status: ('A' for Active; 'I' for Inactive)
REMARK    1  A    between atoms: O_5  and  C_22
REMARK    2  A    between atoms: O_6  and  C_25
REMARK    3  A    between atoms: O_6  and  C_30
REMARK    4  A    between atoms: C_18  and  C_22
REMARK    5  A    between atoms: C_21  and  C_24
REMARK                            x       y       z     vdW  Elec       q    Type
REMARK                         _______ _______ _______ _____ _____    ______ ____
ROOT
ATOM      2  O   UNL     1      14.247   6.552  17.531  0.00  0.00    -0.273 OA
ATOM      3  O   UNL     1      15.226   8.986  22.120  0.00  0.00    -0.270 OA
ATOM      4  O   UNL     1      12.255   9.282  15.436  0.00  0.00    -0.273 OA
ATOM      7  N   UNL     1      14.650   8.823  19.885  0.00  0.00    -0.283 N 
ATOM      8  N   UNL     1      12.765   9.149  17.705  0.00  0.00    -0.296 N 
ATOM      9  N   UNL     1      16.013   6.367  18.955  0.00  0.00    -0.283 N 
ATOM     10  C   UNL     1      15.069   8.601  18.508  0.00  0.00    +0.180 C 
ATOM     11  C   UNL     1      14.199   9.356  17.495  0.00  0.00    +0.139 C 
ATOM     12  C   UNL     1      13.345   9.452  20.097  0.00  0.00    +0.128 C 
ATOM     13  C   UNL     1      12.313   8.973  19.087  0.00  0.00    +0.127 C 
ATOM     14  C   UNL     1      15.040   7.096  18.303  0.00  0.00    +0.239 C 
ATOM     15  C   UNL     1      15.496   8.626  20.972  0.00  0.00    +0.249 C 
ATOM     16  C   UNL     1      16.787   7.918  20.761  0.00  0.00    +0.059 A 
ATOM     17  C   UNL     1      16.958   6.823  19.900  0.00  0.00    +0.046 A 
ATOM     18  C   UNL     1      11.903   9.137  16.603  0.00  0.00    +0.241 C 
ATOM     19  C   UNL     1      17.835   8.283  21.627  0.00  0.00    +0.023 A 
ATOM     20  C   UNL     1      18.146   6.075  19.976  0.00  0.00    +0.024 A 
ATOM     21  C   UNL     1      19.026   7.559  21.654  0.00  0.00    -0.014 A 
ATOM     23  C   UNL     1      19.176   6.446  20.838  0.00  0.00    +0.010 A 
ATOM     31  H   UNL     1      16.125   5.406  18.641  0.00  0.00    +0.155 HD
ENDROOT
BRANCH  21  24
ATOM      1 CL   UNL     1      21.286   7.018  26.253  0.00  0.00    -0.084 Cl
ATOM     24  C   UNL     1      20.094   7.952  22.548  0.00  0.00    +0.025 A 
ATOM     25  C   UNL     1      21.042   8.901  22.162  0.00  0.00    +0.128 A 
ATOM     26  C   UNL     1      20.171   7.371  23.815  0.00  0.00    +0.032 A 
ATOM     27  C   UNL     1      22.063   9.268  23.038  0.00  0.00    +0.047 A 
ATOM     28  C   UNL     1      21.193   7.736  24.692  0.00  0.00    +0.042 A 
ATOM     29  C   UNL     1      22.138   8.685  24.303  0.00  0.00    +0.023 A 
BRANCH  25   6
ATOM      6  O   UNL     1      20.992   9.486  20.930  0.00  0.00    -0.495 OA
ATOM     30  C   UNL     1      20.627  10.863  20.883  0.00  0.00    +0.277 C 
ENDBRANCH  25   6
ENDBRANCH  21  24
BRANCH  18  22
ATOM     22  C   UNL     1      10.445   8.951  16.882  0.00  0.00    +0.251 C 
BRANCH  22   5
ATOM      5  O   UNL     1      10.033   7.830  16.138  0.00  0.00    -0.386 OA
ATOM     32  H   UNL     1       9.193   7.515  16.513  0.00  0.00    +0.210 HD
ENDBRANCH  22   5
ENDBRANCH  18  22
TORSDOF 4
ENDMDL
MODEL 6
REMARK VINA RESULT:      -6.9     29.193     31.259
REMARK  Name = 11884262
REMARK  5 active torsions:
REMARK  status: ('A' for Active; 'I' for Inactive)
REMARK    1  A    between atoms: O_5  and  C_22
REMARK    2  A    between atoms: O_6  and  C_25
REMARK    3  A    between atoms: O_6  and  C_30
REMARK    4  A    between atoms: C_18  and  C_22
REMARK    5  A    between atoms: C_21  and  C_24
REMARK                            x       y       z     vdW  Elec       q    Type
REMARK                         _______ _______ _______ _____ _____    ______ ____
ROOT
ATOM      2  O   UNL     1      -3.308 -10.488  16.416  0.00  0.00    -0.273 OA
ATOM      3  O   UNL     1      -6.981  -9.212  12.836  0.00  0.00    -0.270 OA
ATOM      4  O   UNL     1      -5.368 -12.418  19.217  0.00  0.00    -0.273 OA
ATOM      7  N   UNL     1      -6.080 -10.346  14.640  0.00  0.00    -0.283 N 
ATOM      8  N   UNL     1      -6.058 -11.066  17.451  0.00  0.00    -0.296 N 
ATOM      9  N   UNL     1      -3.162 -10.297  14.153  0.00  0.00    -0.283 N 
ATOM     10  C   UNL     1      -5.159 -11.360  15.135  0.00  0.00    +0.180 C 
ATOM     11  C   UNL     1      -5.651 -12.028  16.425  0.00  0.00    +0.139 C 
ATOM     12  C   UNL     1      -7.143  -9.904  15.546  0.00  0.00    +0.128 C 
ATOM     13  C   UNL     1      -6.660  -9.814  16.986  0.00  0.00    +0.127 C 
ATOM     14  C   UNL     1      -3.823 -10.656  15.309  0.00  0.00    +0.239 C 
ATOM     15  C   UNL     1      -6.094  -9.922  13.315  0.00  0.00    +0.249 C 
ATOM     16  C   UNL     1      -4.970 -10.312  12.422  0.00  0.00    +0.059 A 
ATOM     17  C   UNL     1      -3.626 -10.375  12.822  0.00  0.00    +0.046 A 
ATOM     18  C   UNL     1      -5.869 -11.377  18.801  0.00  0.00    +0.241 C 
ATOM     19  C   UNL     1      -5.290 -10.445  11.058  0.00  0.00    +0.023 A 
ATOM     20  C   UNL     1      -2.628 -10.499  11.840  0.00  0.00    +0.024 A 
ATOM     21  C   UNL     1      -4.289 -10.617  10.102  0.00  0.00    -0.014 A 
ATOM     23  C   UNL     1      -2.957 -10.630  10.491  0.00  0.00    +0.010 A 
ATOM     31  H   UNL     1      -2.186 -10.036  14.270  0.00  0.00    +0.155 HD
ENDROOT
BRANCH  21  24
ATOM      1 CL   UNL     1      -4.032 -13.446   5.803  0.00  0.00    -0.084 Cl
ATOM     24  C   UNL     1      -4.638 -10.756   8.704  0.00  0.00    +0.025 A 
ATOM     25  C   UNL     1      -5.382  -9.774   8.048  0.00  0.00    +0.128 A 
ATOM     26  C   UNL     1      -4.221 -11.892   8.008  0.00  0.00    +0.032 A 
ATOM     27  C   UNL     1      -5.708  -9.926   6.700  0.00  0.00    +0.047 A 
ATOM     28  C   UNL     1      -4.547 -12.045   6.660  0.00  0.00    +0.042 A 
ATOM     29  C   UNL     1      -5.290 -11.062   6.007  0.00  0.00    +0.023 A 
BRANCH  25   6
ATOM      6  O   UNL     1      -5.804  -8.654   8.703  0.00  0.00    -0.495 OA
ATOM     30  C   UNL     1      -7.187  -8.327   8.599  0.00  0.00    +0.277 C 
ENDBRANCH  25   6
ENDBRANCH  21  24
BRANCH  18  22
ATOM     22  C   UNL     1      -6.332 -10.367  19.803  0.00  0.00    +0.251 C 
BRANCH  22   5
ATOM      5  O   UNL     1      -7.676 -10.672  20.089  0.00  0.00    -0.386 OA
ATOM     32  H   UNL     1      -8.029 -11.190  19.345  0.00  0.00    +0.210 HD
ENDBRANCH  22   5
ENDBRANCH  18  22
TORSDOF 4
ENDMDL
MODEL 7
REMARK VINA RESULT:      -6.8     28.880     33.200
REMARK  Name = 11884262
REMARK  5 active torsions:
REMARK  status: ('A' for Active; 'I' for Inactive)
REMARK    1  A    between atoms: O_5  and  C_22
REMARK    2  A    between atoms: O_6  and  C_25
REMARK    3  A    between atoms: O_6  and  C_30
REMARK    4  A    between atoms: C_18  and  C_22
REMARK    5  A    between atoms: C_21  and  C_24
REMARK                            x       y       z     vdW  Elec       q    Type
REMARK                         _______ _______ _______ _____ _____    ______ ____
ROOT
ATOM      2  O   UNL     1      -5.786  -9.529  15.048  0.00  0.00    -0.273 OA
ATOM      3  O   UNL     1      -6.941 -10.664  20.079  0.00  0.00    -0.270 OA
ATOM      4  O   UNL     1      -3.067 -12.264  14.077  0.00  0.00    -0.273 OA
ATOM      7  N   UNL     1      -6.098 -11.043  17.958  0.00  0.00    -0.283 N 
ATOM      8  N   UNL     1      -3.902 -11.584  16.142  0.00  0.00    -0.296 N 
ATOM      9  N   UNL     1      -7.736  -9.315  16.201  0.00  0.00    -0.283 N 
ATOM     10  C   UNL     1      -6.356 -11.328  16.553  0.00  0.00    +0.180 C 
ATOM     11  C   UNL     1      -5.233 -12.143  15.899  0.00  0.00    +0.139 C 
ATOM     12  C   UNL     1      -4.744 -11.290  18.457  0.00  0.00    +0.128 C 
ATOM     13  C   UNL     1      -3.685 -10.920  17.429  0.00  0.00    +0.127 C 
ATOM     14  C   UNL     1      -6.568  -9.978  15.888  0.00  0.00    +0.239 C 
ATOM     15  C   UNL     1      -7.109 -10.721  18.859  0.00  0.00    +0.249 C 
ATOM     16  C   UNL     1      -8.464 -10.397  18.337  0.00  0.00    +0.059 A 
ATOM     17  C   UNL     1      -8.705  -9.664  17.165  0.00  0.00    +0.046 A 
ATOM     18  C   UNL     1      -2.911 -11.712  15.163  0.00  0.00    +0.241 C 
ATOM     19  C   UNL     1      -9.539 -10.707  19.191  0.00  0.00    +0.023 A 
ATOM     20  C   UNL     1     -10.007  -9.197  16.911  0.00  0.00    +0.024 A 
ATOM     21  C   UNL     1     -10.832 -10.277  18.897  0.00  0.00    -0.014 A 
ATOM     23  C   UNL     1     -11.064  -9.510  17.764  0.00  0.00    +0.010 A 
ATOM     31  H   UNL     1      -7.973  -8.535  15.593  0.00  0.00    +0.155 HD
ENDROOT
BRANCH  21  24
ATOM      1 CL   UNL     1     -15.296  -8.854  21.041  0.00  0.00    -0.084 Cl
ATOM     24  C   UNL     1     -11.926 -10.609  19.785  0.00  0.00    +0.025 A 
ATOM     25  C   UNL     1     -11.959 -11.832  20.457  0.00  0.00    +0.128 A 
ATOM     26  C   UNL     1     -12.960  -9.689  19.967  0.00  0.00    +0.032 A 
ATOM     27  C   UNL     1     -13.022 -12.134  21.309  0.00  0.00    +0.047 A 
ATOM     28  C   UNL     1     -14.023  -9.991  20.818  0.00  0.00    +0.042 A 
ATOM     29  C   UNL     1     -14.053 -11.213  21.489  0.00  0.00    +0.023 A 
BRANCH  25   6
ATOM      6  O   UNL     1     -10.964 -12.752  20.299  0.00  0.00    -0.495 OA
ATOM     30  C   UNL     1     -10.894 -13.801  21.261  0.00  0.00    +0.277 C 
ENDBRANCH  25   6
ENDBRANCH  21  24
BRANCH  18  22
ATOM     22  C   UNL     1      -1.563 -11.147  15.480  0.00  0.00    +0.251 C 
BRANCH  22   5
ATOM      5  O   UNL     1      -1.540  -9.843  14.955  0.00  0.00    -0.386 OA
ATOM     32  H   UNL     1      -2.461  -9.546  14.853  0.00  0.00    +0.210 HD
ENDBRANCH  22   5
ENDBRANCH  18  22
TORSDOF 4
ENDMDL
MODEL 8
REMARK VINA RESULT:      -6.4     24.950     29.406
REMARK  Name = 11884262
REMARK  5 active torsions:
REMARK  status: ('A' for Active; 'I' for Inactive)
REMARK    1  A    between atoms: O_5  and  C_22
REMARK    2  A    between atoms: O_6  and  C_25
REMARK    3  A    between atoms: O_6  and  C_30
REMARK    4  A    between atoms: C_18  and  C_22
REMARK    5  A    between atoms: C_21  and  C_24
REMARK                            x       y       z     vdW  Elec       q    Type
REMARK                         _______ _______ _______ _____ _____    ______ ____
ROOT
ATOM      2  O   UNL     1      -0.901   9.017   6.020  0.00  0.00    -0.273 OA
ATOM      3  O   UNL     1      -5.407  10.538   3.715  0.00  0.00    -0.270 OA
ATOM      4  O   UNL     1       0.042  12.100   8.348  0.00  0.00    -0.273 OA
ATOM      7  N   UNL     1      -3.705  10.583   5.280  0.00  0.00    -0.283 N 
ATOM      8  N   UNL     1      -1.478  11.899   6.594  0.00  0.00    -0.296 N 
ATOM      9  N   UNL     1      -2.705   7.799   5.353  0.00  0.00    -0.283 N 
ATOM     10  C   UNL     1      -3.074   9.979   6.446  0.00  0.00    +0.180 C 
ATOM     11  C   UNL     1      -2.370  11.008   7.338  0.00  0.00    +0.139 C 
ATOM     12  C   UNL     1      -3.348  11.967   4.965  0.00  0.00    +0.128 C 
ATOM     13  C   UNL     1      -1.876  12.248   5.228  0.00  0.00    +0.127 C 
ATOM     14  C   UNL     1      -2.125   8.923   5.903  0.00  0.00    +0.239 C 
ATOM     15  C   UNL     1      -4.737   9.968   4.578  0.00  0.00    +0.249 C 
ATOM     16  C   UNL     1      -5.042   8.538   4.851  0.00  0.00    +0.059 A 
ATOM     17  C   UNL     1      -4.072   7.556   5.104  0.00  0.00    +0.046 A 
ATOM     18  C   UNL     1      -0.314  12.377   7.205  0.00  0.00    +0.241 C 
ATOM     19  C   UNL     1      -6.382   8.150   4.659  0.00  0.00    +0.023 A 
ATOM     20  C   UNL     1      -4.453   6.203   5.089  0.00  0.00    +0.024 A 
ATOM     21  C   UNL     1      -6.750   6.806   4.696  0.00  0.00    -0.014 A 
ATOM     23  C   UNL     1      -5.783   5.831   4.897  0.00  0.00    +0.010 A 
ATOM     31  H   UNL     1      -2.077   7.013   5.200  0.00  0.00    +0.155 HD
ENDROOT
BRANCH  21  24
ATOM      1 CL   UNL     1     -10.480   5.454   1.408  0.00  0.00    -0.084 Cl
ATOM     24  C   UNL     1      -8.133   6.427   4.500  0.00  0.00    +0.025 A 
ATOM     25  C   UNL     1      -9.011   6.331   5.581  0.00  0.00    +0.128 A 
ATOM     26  C   UNL     1      -8.589   6.156   3.209  0.00  0.00    +0.032 A 
ATOM     27  C   UNL     1     -10.340   5.964   5.373  0.00  0.00    +0.047 A 
ATOM     28  C   UNL     1      -9.919   5.789   3.000  0.00  0.00    +0.042 A 
ATOM     29  C   UNL     1     -10.794   5.693   4.082  0.00  0.00    +0.023 A 
BRANCH  25   6
ATOM      6  O   UNL     1      -8.593   6.589   6.854  0.00  0.00    -0.495 OA
ATOM     30  C   UNL     1      -9.015   7.821   7.435  0.00  0.00    +0.277 C 
ENDBRANCH  25   6
ENDBRANCH  21  24
BRANCH  18  22
ATOM     22  C   UNL     1       0.542  13.307   6.405  0.00  0.00    +0.251 C 
BRANCH  22   5
ATOM      5  O   UNL     1       1.596  12.534   5.884  0.00  0.00    -0.386 OA
ATOM     32  H   UNL     1       1.375  11.597   6.022  0.00  0.00    +0.210 HD
ENDBRANCH  22   5
ENDBRANCH  18  22
TORSDOF 4
ENDMDL
MODEL 9
REMARK VINA RESULT:      -6.4     22.131     23.544
REMARK  Name = 11884262
REMARK  5 active torsions:
REMARK  status: ('A' for Active; 'I' for Inactive)
REMARK    1  A    between atoms: O_5  and  C_22
REMARK    2  A    between atoms: O_6  and  C_25
REMARK    3  A    between atoms: O_6  and  C_30
REMARK    4  A    between atoms: C_18  and  C_22
REMARK    5  A    between atoms: C_21  and  C_24
REMARK                            x       y       z     vdW  Elec       q    Type
REMARK                         _______ _______ _______ _____ _____    ______ ____
ROOT
ATOM      2  O   UNL     1       7.135  -4.954  33.856  0.00  0.00    -0.273 OA
ATOM      3  O   UNL     1       6.035  -9.962  35.140  0.00  0.00    -0.270 OA
ATOM      4  O   UNL     1       9.542  -3.749  36.783  0.00  0.00    -0.273 OA
ATOM      7  N   UNL     1       7.195  -7.961  35.203  0.00  0.00    -0.283 N 
ATOM      8  N   UNL     1       8.143  -5.602  36.601  0.00  0.00    -0.296 N 
ATOM      9  N   UNL     1       6.736  -6.765  32.536  0.00  0.00    -0.283 N 
ATOM     10  C   UNL     1       8.122  -7.043  34.556  0.00  0.00    +0.180 C 
ATOM     11  C   UNL     1       8.955  -6.236  35.561  0.00  0.00    +0.139 C 
ATOM     12  C   UNL     1       6.970  -7.788  36.639  0.00  0.00    +0.128 C 
ATOM     13  C   UNL     1       6.942  -6.319  37.037  0.00  0.00    +0.127 C 
ATOM     14  C   UNL     1       7.273  -6.163  33.654  0.00  0.00    +0.239 C 
ATOM     15  C   UNL     1       6.665  -9.075  34.560  0.00  0.00    +0.249 C 
ATOM     16  C   UNL     1       6.833  -9.205  33.087  0.00  0.00    +0.059 A 
ATOM     17  C   UNL     1       6.759  -8.132  32.185  0.00  0.00    +0.046 A 
ATOM     18  C   UNL     1       8.541  -4.370  37.130  0.00  0.00    +0.241 C 
ATOM     19  C   UNL     1       6.889 -10.520  32.591  0.00  0.00    +0.023 A 
ATOM     20  C   UNL     1       6.672  -8.405  30.809  0.00  0.00    +0.024 A 
ATOM     21  C   UNL     1       6.851 -10.770  31.219  0.00  0.00    -0.014 A 
ATOM     23  C   UNL     1       6.728  -9.713  30.329  0.00  0.00    +0.010 A 
ATOM     31  H   UNL     1       6.364  -6.131  31.833  0.00  0.00    +0.155 HD
ENDROOT
BRANCH  21  24
ATOM      1 CL   UNL     1       4.399 -14.730  29.017  0.00  0.00    -0.084 Cl
ATOM     24  C   UNL     1       6.914 -12.129  30.727  0.00  0.00    +0.025 A 
ATOM     25  C   UNL     1       8.099 -12.864  30.797  0.00  0.00    +0.128 A 
ATOM     26  C   UNL     1       5.769 -12.709  30.176  0.00  0.00    +0.032 A 
ATOM     27  C   UNL     1       8.140 -14.173  30.318  0.00  0.00    +0.047 A 
ATOM     28  C   UNL     1       5.811 -14.018  29.696  0.00  0.00    +0.042 A 
ATOM     29  C   UNL     1       6.996 -14.750  29.767  0.00  0.00    +0.023 A 
BRANCH  25   6
ATOM      6  O   UNL     1       9.233 -12.324  31.330  0.00  0.00    -0.495 OA
ATOM     30  C   UNL     1      10.328 -12.115  30.441  0.00  0.00    +0.277 C 
ENDBRANCH  25   6
ENDBRANCH  21  24
BRANCH  18  22
ATOM     22  C   UNL     1       7.687  -3.786  38.211  0.00  0.00    +0.251 C 
BRANCH  22   5
ATOM      5  O   UNL     1       6.798  -2.895  37.582  0.00  0.00    -0.386 OA
ATOM     32  H   UNL     1       5.894  -3.144  37.840  0.00  0.00    +0.210 HD
ENDBRANCH  22   5
ENDBRANCH  18  22
TORSDOF 4
ENDMDL
MODEL 10
REMARK VINA RESULT:      -6.3     33.527     36.019
REMARK  Name = 11884262
REMARK  5 active torsions:
REMARK  status: ('A' for Active; 'I' for Inactive)
REMARK    1  A    between atoms: O_5  and  C_22
REMARK    2  A    between atoms: O_6  and  C_25
REMARK    3  A    between atoms: O_6  and  C_30
REMARK    4  A    between atoms: C_18  and  C_22
REMARK    5  A    between atoms: C_21  and  C_24
REMARK                            x       y       z     vdW  Elec       q    Type
REMARK                         _______ _______ _______ _____ _____    ______ ____
ROOT
ATOM      2  O   UNL     1      -7.478  -7.767   5.693  0.00  0.00    -0.273 OA
ATOM      3  O   UNL     1     -12.298  -8.458   7.750  0.00  0.00    -0.270 OA
ATOM      4  O   UNL     1      -7.839  -9.160   1.986  0.00  0.00    -0.273 OA
ATOM      7  N   UNL     1     -10.711  -8.281   6.076  0.00  0.00    -0.283 N 
ATOM      8  N   UNL     1      -9.202  -9.391   3.860  0.00  0.00    -0.296 N 
ATOM      9  N   UNL     1      -8.618  -6.538   7.233  0.00  0.00    -0.283 N 
ATOM     10  C   UNL     1      -9.833  -7.432   5.282  0.00  0.00    +0.180 C 
ATOM     11  C   UNL     1      -9.597  -7.981   3.869  0.00  0.00    +0.139 C 
ATOM     12  C   UNL     1     -10.992  -9.623   5.563  0.00  0.00    +0.128 C 
ATOM     13  C   UNL     1      -9.770 -10.247   4.905  0.00  0.00    +0.127 C 
ATOM     14  C   UNL     1      -8.549  -7.298   6.084  0.00  0.00    +0.239 C 
ATOM     15  C   UNL     1     -11.412  -7.814   7.183  0.00  0.00    +0.249 C 
ATOM     16  C   UNL     1     -11.068  -6.480   7.744  0.00  0.00    +0.059 A 
ATOM     17  C   UNL     1      -9.762  -5.975   7.839  0.00  0.00    +0.046 A 
ATOM     18  C   UNL     1      -8.328  -9.855   2.872  0.00  0.00    +0.241 C 
ATOM     19  C   UNL     1     -12.121  -5.789   8.371  0.00  0.00    +0.023 A 
ATOM     20  C   UNL     1      -9.530  -4.828   8.617  0.00  0.00    +0.024 A 
ATOM     21  C   UNL     1     -11.880  -4.624   9.098  0.00  0.00    -0.014 A 
ATOM     23  C   UNL     1     -10.582  -4.151   9.233  0.00  0.00    +0.010 A 
ATOM     31  H   UNL     1      -7.723  -6.271   7.636  0.00  0.00    +0.155 HD
ENDROOT
BRANCH  21  24
ATOM      1 CL   UNL     1     -16.109  -1.733   8.546  0.00  0.00    -0.084 Cl
ATOM     24  C   UNL     1     -12.977  -3.924   9.732  0.00  0.00    +0.025 A 
ATOM     25  C   UNL     1     -13.119  -3.917  11.120  0.00  0.00    +0.128 A 
ATOM     26  C   UNL     1     -13.903  -3.247   8.936  0.00  0.00    +0.032 A 
ATOM     27  C   UNL     1     -14.182  -3.237  11.712  0.00  0.00    +0.047 A 
ATOM     28  C   UNL     1     -14.968  -2.567   9.528  0.00  0.00    +0.042 A 
ATOM     29  C   UNL     1     -15.107  -2.561  10.916  0.00  0.00    +0.023 A 
BRANCH  25   6
ATOM      6  O   UNL     1     -12.229  -4.570  11.923  0.00  0.00    -0.495 OA
ATOM     30  C   UNL     1     -12.576  -4.701  13.300  0.00  0.00    +0.277 C 
ENDBRANCH  25   6
ENDBRANCH  21  24
BRANCH  18  22
ATOM     22  C   UNL     1      -7.984 -11.311   2.897  0.00  0.00    +0.251 C 
BRANCH  22   5
ATOM      5  O   UNL     1      -6.580 -11.392   2.930  0.00  0.00    -0.386 OA
ATOM     32  H   UNL     1      -6.228 -10.487   2.884  0.00  0.00    +0.210 HD
ENDBRANCH  22   5
ENDBRANCH  18  22
TORSDOF 4
ENDMDL
