MODEL 1
REMARK VINA RESULT:      -7.1      0.000      0.000
REMARK  Name = 75536719
REMARK  9 active torsions:
REMARK  status: ('A' for Active; 'I' for Inactive)
REMARK    1  A    between atoms: S_1  and  N_8
REMARK    2  A    between atoms: S_1  and  C_16
REMARK    3  A    between atoms: O_4  and  C_10
REMARK    4  A    between atoms: N_7  and  C_9
REMARK    5  A    between atoms: N_7  and  C_14
REMARK    6  A    between atoms: N_8  and  C_13
REMARK    7  A    between atoms: C_11  and  C_13
REMARK    8  A    between atoms: C_14  and  C_15
REMARK    9  A    between atoms: C_25  and  C_27
REMARK                            x       y       z     vdW  Elec       q    Type
REMARK                         _______ _______ _______ _____ _____    ______ ____
ROOT
ATOM      3  O   UNL     1     -17.231   1.490  25.322  0.00  0.00    -0.371 OA
ATOM      9  C   UNL     1     -16.421   3.057  26.912  0.00  0.00    +0.111 C 
ATOM     10  C   UNL     1     -16.187   3.603  25.515  0.00  0.00    +0.164 C 
ATOM     11  C   UNL     1     -17.192   2.790  24.711  0.00  0.00    +0.164 C 
ATOM     12  C   UNL     1     -16.630   1.580  26.626  0.00  0.00    +0.181 C 
ENDROOT
BRANCH  10   4
ATOM      4  O   UNL     1     -16.438   4.992  25.423  0.00  0.00    -0.388 OA
ATOM     30  H   UNL     1     -17.400   5.131  25.446  0.00  0.00    +0.210 HD
ENDBRANCH  10   4
BRANCH   9   7
ATOM      7  N   UNL     1     -15.318   3.307  27.827  0.00  0.00    -0.305 NA
ATOM     28  H   UNL     1     -15.353   4.278  28.134  0.00  0.00    +0.123 HD
BRANCH   7  14
ATOM     14  C   UNL     1     -15.400   2.439  28.997  0.00  0.00    +0.119 C 
BRANCH  14  15
ATOM      2  F   UNL     1     -13.335   1.258  30.537  0.00  0.00    -0.205 F 
ATOM     15  C   UNL     1     -14.811   3.090  30.219  0.00  0.00    +0.002 A 
ATOM     17  C   UNL     1     -13.795   2.454  30.931  0.00  0.00    +0.128 A 
ATOM     18  C   UNL     1     -15.284   4.333  30.640  0.00  0.00    +0.008 A 
ATOM     21  C   UNL     1     -13.252   3.060  32.065  0.00  0.00    +0.038 A 
ATOM     22  C   UNL     1     -14.742   4.939  31.773  0.00  0.00    +0.000 A 
ATOM     26  C   UNL     1     -13.726   4.302  32.486  0.00  0.00    +0.003 A 
ENDBRANCH  14  15
ENDBRANCH   7  14
ENDBRANCH   9   7
BRANCH  11  13
ATOM     13  C   UNL     1     -16.822   2.657  23.245  0.00  0.00    +0.140 C 
BRANCH  13   8
ATOM      8  N   UNL     1     -15.897   3.743  22.867  0.00  0.00    -0.187 NA
ATOM     29  H   UNL     1     -15.134   3.930  23.529  0.00  0.00    +0.148 HD
BRANCH   8   1
ATOM      1  S   UNL     1     -16.436   5.013  21.872  0.00  0.00    +0.058 S 
ATOM      5  O   UNL     1     -17.196   5.957  22.668  0.00  0.00    -0.153 OA
ATOM      6  O   UNL     1     -17.006   4.455  20.661  0.00  0.00    -0.153 OA
BRANCH   1  16
ATOM     16  C   UNL     1     -14.913   5.787  21.417  0.00  0.00    +0.105 A 
ATOM     19  C   UNL     1     -14.915   6.859  20.525  0.00  0.00    +0.029 A 
ATOM     20  C   UNL     1     -13.709   5.323  21.946  0.00  0.00    +0.029 A 
ATOM     23  C   UNL     1     -13.714   7.467  20.164  0.00  0.00    +0.005 A 
ATOM     24  C   UNL     1     -12.507   5.931  21.585  0.00  0.00    +0.005 A 
ATOM     25  C   UNL     1     -12.510   7.004  20.694  0.00  0.00    -0.050 A 
ATOM     27  C   UNL     1     -11.224   7.655  20.307  0.00  0.00    +0.044 C 
ENDBRANCH   1  16
ENDBRANCH   8   1
ENDBRANCH  13   8
ENDBRANCH  11  13
TORSDOF 8
ENDMDL
MODEL 2
REMARK VINA RESULT:      -7.1     27.466     30.146
REMARK  Name = 75536719
REMARK  9 active torsions:
REMARK  status: ('A' for Active; 'I' for Inactive)
REMARK    1  A    between atoms: S_1  and  N_8
REMARK    2  A    between atoms: S_1  and  C_16
REMARK    3  A    between atoms: O_4  and  C_10
REMARK    4  A    between atoms: N_7  and  C_9
REMARK    5  A    between atoms: N_7  and  C_14
REMARK    6  A    between atoms: N_8  and  C_13
REMARK    7  A    between atoms: C_11  and  C_13
REMARK    8  A    between atoms: C_14  and  C_15
REMARK    9  A    between atoms: C_25  and  C_27
REMARK                            x       y       z     vdW  Elec       q    Type
REMARK                         _______ _______ _______ _____ _____    ______ ____
ROOT
ATOM      3  O   UNL     1      13.065   9.271  18.865  0.00  0.00    -0.371 OA
ATOM      9  C   UNL     1      14.113   7.140  18.832  0.00  0.00    +0.111 C 
ATOM     10  C   UNL     1      12.840   7.052  19.653  0.00  0.00    +0.164 C 
ATOM     11  C   UNL     1      12.076   8.265  19.139  0.00  0.00    +0.164 C 
ATOM     12  C   UNL     1      14.356   8.640  18.814  0.00  0.00    +0.181 C 
ENDROOT
BRANCH  10   4
ATOM      4  O   UNL     1      12.130   5.849  19.432  0.00  0.00    -0.388 OA
ATOM     30  H   UNL     1      12.725   5.104  19.621  0.00  0.00    +0.210 HD
ENDBRANCH  10   4
BRANCH   9   7
ATOM      7  N   UNL     1      15.224   6.393  19.398  0.00  0.00    -0.305 NA
ATOM     28  H   UNL     1      16.052   6.538  18.821  0.00  0.00    +0.123 HD
BRANCH   7  14
ATOM     14  C   UNL     1      15.515   6.834  20.758  0.00  0.00    +0.119 C 
BRANCH  14  15
ATOM      2  F   UNL     1      16.433   9.237  21.947  0.00  0.00    -0.205 F 
ATOM     15  C   UNL     1      16.974   7.155  20.944  0.00  0.00    +0.002 A 
ATOM     17  C   UNL     1      17.358   8.356  21.537  0.00  0.00    +0.128 A 
ATOM     18  C   UNL     1      17.943   6.246  20.519  0.00  0.00    +0.008 A 
ATOM     21  C   UNL     1      18.711   8.651  21.706  0.00  0.00    +0.038 A 
ATOM     22  C   UNL     1      19.296   6.540  20.687  0.00  0.00    +0.000 A 
ATOM     26  C   UNL     1      19.680   7.743  21.281  0.00  0.00    +0.003 A 
ENDBRANCH  14  15
ENDBRANCH   7  14
ENDBRANCH   9   7
BRANCH  11  13
ATOM     13  C   UNL     1      11.060   8.801  20.133  0.00  0.00    +0.140 C 
BRANCH  13   8
ATOM      8  N   UNL     1      11.572  10.042  20.744  0.00  0.00    -0.187 NA
ATOM     29  H   UNL     1      12.116  10.654  20.123  0.00  0.00    +0.148 HD
BRANCH   8   1
ATOM      1  S   UNL     1      11.881  10.105  22.416  0.00  0.00    +0.058 S 
ATOM      5  O   UNL     1      13.312  10.170  22.638  0.00  0.00    -0.153 OA
ATOM      6  O   UNL     1      11.085   9.092  23.081  0.00  0.00    -0.153 OA
BRANCH   1  16
ATOM     16  C   UNL     1      11.190  11.673  22.852  0.00  0.00    +0.105 A 
ATOM     19  C   UNL     1      11.011  12.652  21.876  0.00  0.00    +0.029 A 
ATOM     20  C   UNL     1      10.827  11.932  24.174  0.00  0.00    +0.029 A 
ATOM     23  C   UNL     1      10.470  13.890  22.220  0.00  0.00    +0.005 A 
ATOM     24  C   UNL     1      10.285  13.170  24.519  0.00  0.00    +0.005 A 
ATOM     25  C   UNL     1      10.105  14.149  23.541  0.00  0.00    -0.050 A 
ATOM     27  C   UNL     1       9.526  15.473  23.910  0.00  0.00    +0.044 C 
ENDBRANCH   1  16
ENDBRANCH   8   1
ENDBRANCH  13   8
ENDBRANCH  11  13
TORSDOF 8
ENDMDL
MODEL 3
REMARK VINA RESULT:      -7.0     29.477     32.387
REMARK  Name = 75536719
REMARK  9 active torsions:
REMARK  status: ('A' for Active; 'I' for Inactive)
REMARK    1  A    between atoms: S_1  and  N_8
REMARK    2  A    between atoms: S_1  and  C_16
REMARK    3  A    between atoms: O_4  and  C_10
REMARK    4  A    between atoms: N_7  and  C_9
REMARK    5  A    between atoms: N_7  and  C_14
REMARK    6  A    between atoms: N_8  and  C_13
REMARK    7  A    between atoms: C_11  and  C_13
REMARK    8  A    between atoms: C_14  and  C_15
REMARK    9  A    between atoms: C_25  and  C_27
REMARK                            x       y       z     vdW  Elec       q    Type
REMARK                         _______ _______ _______ _____ _____    ______ ____
ROOT
ATOM      3  O   UNL     1      16.900   8.493  21.747  0.00  0.00    -0.371 OA
ATOM      9  C   UNL     1      17.952   7.020  20.209  0.00  0.00    +0.111 C 
ATOM     10  C   UNL     1      16.554   6.509  20.505  0.00  0.00    +0.164 C 
ATOM     11  C   UNL     1      15.885   7.774  21.027  0.00  0.00    +0.164 C 
ATOM     12  C   UNL     1      18.185   7.958  21.381  0.00  0.00    +0.181 C 
ENDROOT
BRANCH  10   4
ATOM      4  O   UNL     1      15.903   6.004  19.356  0.00  0.00    -0.388 OA
ATOM     30  H   UNL     1      15.033   6.431  19.285  0.00  0.00    +0.210 HD
ENDBRANCH  10   4
BRANCH   9   7
ATOM      7  N   UNL     1      18.951   5.967  20.120  0.00  0.00    -0.305 NA
ATOM     28  H   UNL     1      19.030   5.664  19.149  0.00  0.00    +0.123 HD
BRANCH   7  14
ATOM     14  C   UNL     1      20.254   6.439  20.574  0.00  0.00    +0.119 C 
BRANCH  14  15
ATOM      2  F   UNL     1      21.415   6.846  23.127  0.00  0.00    -0.205 F 
ATOM     15  C   UNL     1      21.011   5.368  21.313  0.00  0.00    +0.002 A 
ATOM     17  C   UNL     1      21.557   5.635  22.568  0.00  0.00    +0.128 A 
ATOM     18  C   UNL     1      21.167   4.106  20.740  0.00  0.00    +0.008 A 
ATOM     21  C   UNL     1      22.259   4.641  23.250  0.00  0.00    +0.038 A 
ATOM     22  C   UNL     1      21.869   3.112  21.421  0.00  0.00    +0.000 A 
ATOM     26  C   UNL     1      22.415   3.380  22.677  0.00  0.00    +0.003 A 
ENDBRANCH  14  15
ENDBRANCH   7  14
ENDBRANCH   9   7
BRANCH  11  13
ATOM     13  C   UNL     1      14.706   7.496  21.942  0.00  0.00    +0.140 C 
BRANCH  13   8
ATOM      8  N   UNL     1      13.811   6.507  21.311  0.00  0.00    -0.187 NA
ATOM     29  H   UNL     1      14.202   5.564  21.192  0.00  0.00    +0.148 HD
BRANCH   8   1
ATOM      1  S   UNL     1      12.594   7.020  20.240  0.00  0.00    +0.058 S 
ATOM      5  O   UNL     1      11.447   6.141  20.359  0.00  0.00    -0.153 OA
ATOM      6  O   UNL     1      13.185   7.277  18.940  0.00  0.00    -0.153 OA
BRANCH   1  16
ATOM     16  C   UNL     1      12.150   8.590  20.923  0.00  0.00    +0.105 A 
ATOM     19  C   UNL     1      11.351   8.653  22.064  0.00  0.00    +0.029 A 
ATOM     20  C   UNL     1      12.596   9.765  20.319  0.00  0.00    +0.029 A 
ATOM     23  C   UNL     1      10.999   9.890  22.601  0.00  0.00    +0.005 A 
ATOM     24  C   UNL     1      12.244  11.003  20.856  0.00  0.00    +0.005 A 
ATOM     25  C   UNL     1      11.445  11.066  21.998  0.00  0.00    -0.050 A 
ATOM     27  C   UNL     1      11.068  12.389  22.572  0.00  0.00    +0.044 C 
ENDBRANCH   1  16
ENDBRANCH   8   1
ENDBRANCH  13   8
ENDBRANCH  11  13
TORSDOF 8
ENDMDL
MODEL 4
REMARK VINA RESULT:      -6.9     26.945     28.571
REMARK  Name = 75536719
REMARK  9 active torsions:
REMARK  status: ('A' for Active; 'I' for Inactive)
REMARK    1  A    between atoms: S_1  and  N_8
REMARK    2  A    between atoms: S_1  and  C_16
REMARK    3  A    between atoms: O_4  and  C_10
REMARK    4  A    between atoms: N_7  and  C_9
REMARK    5  A    between atoms: N_7  and  C_14
REMARK    6  A    between atoms: N_8  and  C_13
REMARK    7  A    between atoms: C_11  and  C_13
REMARK    8  A    between atoms: C_14  and  C_15
REMARK    9  A    between atoms: C_25  and  C_27
REMARK                            x       y       z     vdW  Elec       q    Type
REMARK                         _______ _______ _______ _____ _____    ______ ____
ROOT
ATOM      3  O   UNL     1      13.353   8.360  21.498  0.00  0.00    -0.371 OA
ATOM      9  C   UNL     1      11.369   9.063  22.597  0.00  0.00    +0.111 C 
ATOM     10  C   UNL     1      10.994   8.242  21.377  0.00  0.00    +0.164 C 
ATOM     11  C   UNL     1      12.284   7.470  21.136  0.00  0.00    +0.164 C 
ATOM     12  C   UNL     1      12.806   9.438  22.278  0.00  0.00    +0.181 C 
ENDROOT
BRANCH  10   4
ATOM      4  O   UNL     1       9.899   7.379  21.615  0.00  0.00    -0.388 OA
ATOM     30  H   UNL     1      10.163   6.476  21.370  0.00  0.00    +0.210 HD
ENDBRANCH  10   4
BRANCH   9   7
ATOM      7  N   UNL     1      10.514  10.221  22.805  0.00  0.00    -0.305 NA
ATOM     28  H   UNL     1       9.721   9.950  23.385  0.00  0.00    +0.123 HD
BRANCH   7  14
ATOM     14  C   UNL     1      11.240  11.297  23.472  0.00  0.00    +0.119 C 
BRANCH  14  15
ATOM      2  F   UNL     1       9.968  13.325  24.988  0.00  0.00    -0.205 F 
ATOM     15  C   UNL     1      10.886  12.647  22.907  0.00  0.00    +0.002 A 
ATOM     17  C   UNL     1      10.261  13.600  23.709  0.00  0.00    +0.128 A 
ATOM     18  C   UNL     1      11.184  12.941  21.576  0.00  0.00    +0.008 A 
ATOM     21  C   UNL     1       9.933  14.849  23.181  0.00  0.00    +0.038 A 
ATOM     22  C   UNL     1      10.856  14.190  21.048  0.00  0.00    +0.000 A 
ATOM     26  C   UNL     1      10.230  15.144  21.852  0.00  0.00    +0.003 A 
ENDBRANCH  14  15
ENDBRANCH   7  14
ENDBRANCH   9   7
BRANCH  11  13
ATOM     13  C   UNL     1      12.456   7.021  19.696  0.00  0.00    +0.140 C 
BRANCH  13   8
ATOM      8  N   UNL     1      11.729   7.941  18.800  0.00  0.00    -0.187 NA
ATOM     29  H   UNL     1      10.712   7.986  18.937  0.00  0.00    +0.148 HD
BRANCH   8   1
ATOM      1  S   UNL     1      12.356   8.305  17.262  0.00  0.00    +0.058 S 
ATOM      5  O   UNL     1      11.265   8.443  16.317  0.00  0.00    -0.153 OA
ATOM      6  O   UNL     1      13.459   7.406  16.977  0.00  0.00    -0.153 OA
BRANCH   1  16
ATOM     16  C   UNL     1      13.054   9.908  17.526  0.00  0.00    +0.105 A 
ATOM     19  C   UNL     1      13.754  10.542  16.500  0.00  0.00    +0.029 A 
ATOM     20  C   UNL     1      12.907  10.538  18.762  0.00  0.00    +0.029 A 
ATOM     23  C   UNL     1      14.306  11.804  16.709  0.00  0.00    +0.005 A 
ATOM     24  C   UNL     1      13.460  11.801  18.971  0.00  0.00    +0.005 A 
ATOM     25  C   UNL     1      14.159  12.435  17.944  0.00  0.00    -0.050 A 
ATOM     27  C   UNL     1      14.750  13.785  18.168  0.00  0.00    +0.044 C 
ENDBRANCH   1  16
ENDBRANCH   8   1
ENDBRANCH  13   8
ENDBRANCH  11  13
TORSDOF 8
ENDMDL
MODEL 5
REMARK VINA RESULT:      -6.9      3.305      9.358
REMARK  Name = 75536719
REMARK  9 active torsions:
REMARK  status: ('A' for Active; 'I' for Inactive)
REMARK    1  A    between atoms: S_1  and  N_8
REMARK    2  A    between atoms: S_1  and  C_16
REMARK    3  A    between atoms: O_4  and  C_10
REMARK    4  A    between atoms: N_7  and  C_9
REMARK    5  A    between atoms: N_7  and  C_14
REMARK    6  A    between atoms: N_8  and  C_13
REMARK    7  A    between atoms: C_11  and  C_13
REMARK    8  A    between atoms: C_14  and  C_15
REMARK    9  A    between atoms: C_25  and  C_27
REMARK                            x       y       z     vdW  Elec       q    Type
REMARK                         _______ _______ _______ _____ _____    ______ ____
ROOT
ATOM      3  O   UNL     1     -16.156   4.756  22.199  0.00  0.00    -0.371 OA
ATOM      9  C   UNL     1     -13.849   5.231  21.901  0.00  0.00    +0.111 C 
ATOM     10  C   UNL     1     -14.133   5.073  23.383  0.00  0.00    +0.164 C 
ATOM     11  C   UNL     1     -15.435   4.283  23.348  0.00  0.00    +0.164 C 
ATOM     12  C   UNL     1     -15.243   5.474  21.350  0.00  0.00    +0.181 C 
ENDROOT
BRANCH  10   4
ATOM      4  O   UNL     1     -13.110   4.375  24.064  0.00  0.00    -0.388 OA
ATOM     30  H   UNL     1     -12.431   4.119  23.417  0.00  0.00    +0.210 HD
ENDBRANCH  10   4
BRANCH   9   7
ATOM      7  N   UNL     1     -12.924   6.312  21.597  0.00  0.00    -0.305 NA
ATOM     28  H   UNL     1     -12.014   5.915  21.362  0.00  0.00    +0.123 HD
BRANCH   7  14
ATOM     14  C   UNL     1     -13.397   7.107  20.470  0.00  0.00    +0.119 C 
BRANCH  14  15
ATOM      2  F   UNL     1     -11.262   6.696  18.653  0.00  0.00    -0.205 F 
ATOM     15  C   UNL     1     -12.417   8.187  20.095  0.00  0.00    +0.002 A 
ATOM     17  C   UNL     1     -11.389   7.917  19.193  0.00  0.00    +0.128 A 
ATOM     18  C   UNL     1     -12.540   9.459  20.653  0.00  0.00    +0.008 A 
ATOM     21  C   UNL     1     -10.481   8.920  18.849  0.00  0.00    +0.038 A 
ATOM     22  C   UNL     1     -11.633  10.461  20.310  0.00  0.00    +0.000 A 
ATOM     26  C   UNL     1     -10.603  10.191  19.407  0.00  0.00    +0.003 A 
ENDBRANCH  14  15
ENDBRANCH   7  14
ENDBRANCH   9   7
BRANCH  11  13
ATOM     13  C   UNL     1     -16.281   4.464  24.596  0.00  0.00    +0.140 C 
BRANCH  13   8
ATOM      8  N   UNL     1     -15.770   3.592  25.672  0.00  0.00    -0.187 NA
ATOM     29  H   UNL     1     -14.747   3.508  25.729  0.00  0.00    +0.148 HD
BRANCH   8   1
ATOM      1  S   UNL     1     -16.723   2.311  26.256  0.00  0.00    +0.058 S 
ATOM      5  O   UNL     1     -16.381   1.094  25.545  0.00  0.00    -0.153 OA
ATOM      6  O   UNL     1     -18.104   2.747  26.333  0.00  0.00    -0.153 OA
BRANCH   1  16
ATOM     16  C   UNL     1     -16.138   2.153  27.917  0.00  0.00    +0.105 A 
ATOM     19  C   UNL     1     -16.271   0.940  28.592  0.00  0.00    +0.029 A 
ATOM     20  C   UNL     1     -15.547   3.244  28.555  0.00  0.00    +0.029 A 
ATOM     23  C   UNL     1     -15.813   0.816  29.902  0.00  0.00    +0.005 A 
ATOM     24  C   UNL     1     -15.089   3.121  29.867  0.00  0.00    +0.005 A 
ATOM     25  C   UNL     1     -15.221   1.906  30.540  0.00  0.00    -0.050 A 
ATOM     27  C   UNL     1     -14.732   1.775  31.943  0.00  0.00    +0.044 C 
ENDBRANCH   1  16
ENDBRANCH   8   1
ENDBRANCH  13   8
ENDBRANCH  11  13
TORSDOF 8
ENDMDL
MODEL 6
REMARK VINA RESULT:      -6.6      1.472      2.182
REMARK  Name = 75536719
REMARK  9 active torsions:
REMARK  status: ('A' for Active; 'I' for Inactive)
REMARK    1  A    between atoms: S_1  and  N_8
REMARK    2  A    between atoms: S_1  and  C_16
REMARK    3  A    between atoms: O_4  and  C_10
REMARK    4  A    between atoms: N_7  and  C_9
REMARK    5  A    between atoms: N_7  and  C_14
REMARK    6  A    between atoms: N_8  and  C_13
REMARK    7  A    between atoms: C_11  and  C_13
REMARK    8  A    between atoms: C_14  and  C_15
REMARK    9  A    between atoms: C_25  and  C_27
REMARK                            x       y       z     vdW  Elec       q    Type
REMARK                         _______ _______ _______ _____ _____    ______ ____
ROOT
ATOM      3  O   UNL     1     -16.083   2.016  24.677  0.00  0.00    -0.371 OA
ATOM      9  C   UNL     1     -17.209   2.873  26.584  0.00  0.00    +0.111 C 
ATOM     10  C   UNL     1     -16.299   3.950  26.022  0.00  0.00    +0.164 C 
ATOM     11  C   UNL     1     -16.101   3.450  24.597  0.00  0.00    +0.164 C 
ATOM     12  C   UNL     1     -16.624   1.623  25.951  0.00  0.00    +0.181 C 
ENDROOT
BRANCH  10   4
ATOM      4  O   UNL     1     -16.888   5.234  26.054  0.00  0.00    -0.388 OA
ATOM     30  H   UNL     1     -16.414   5.772  26.711  0.00  0.00    +0.210 HD
ENDBRANCH  10   4
BRANCH   9   7
ATOM      7  N   UNL     1     -17.221   2.820  28.037  0.00  0.00    -0.305 NA
ATOM     28  H   UNL     1     -17.512   1.889  28.334  0.00  0.00    +0.123 HD
BRANCH   7  14
ATOM     14  C   UNL     1     -15.897   3.096  28.583  0.00  0.00    +0.119 C 
BRANCH  14  15
ATOM      2  F   UNL     1     -15.046   4.006  31.129  0.00  0.00    -0.205 F 
ATOM     15  C   UNL     1     -15.553   2.167  29.716  0.00  0.00    +0.002 A 
ATOM     17  C   UNL     1     -15.141   2.682  30.945  0.00  0.00    +0.128 A 
ATOM     18  C   UNL     1     -15.646   0.787  29.534  0.00  0.00    +0.008 A 
ATOM     21  C   UNL     1     -14.822   1.817  31.992  0.00  0.00    +0.038 A 
ATOM     22  C   UNL     1     -15.326  -0.078  30.580  0.00  0.00    +0.000 A 
ATOM     26  C   UNL     1     -14.914   0.438  31.810  0.00  0.00    +0.003 A 
ENDBRANCH  14  15
ENDBRANCH   7  14
ENDBRANCH   9   7
BRANCH  11  13
ATOM     13  C   UNL     1     -14.814   3.945  23.960  0.00  0.00    +0.140 C 
BRANCH  13   8
ATOM      8  N   UNL     1     -15.051   4.252  22.536  0.00  0.00    -0.187 NA
ATOM     29  H   UNL     1     -14.446   3.760  21.868  0.00  0.00    +0.148 HD
BRANCH   8   1
ATOM      1  S   UNL     1     -15.702   5.757  22.086  0.00  0.00    +0.058 S 
ATOM      5  O   UNL     1     -16.088   6.490  23.276  0.00  0.00    -0.153 OA
ATOM      6  O   UNL     1     -16.654   5.557  21.010  0.00  0.00    -0.153 OA
BRANCH   1  16
ATOM     16  C   UNL     1     -14.293   6.563  21.383  0.00  0.00    +0.105 A 
ATOM     19  C   UNL     1     -13.026   5.995  21.516  0.00  0.00    +0.029 A 
ATOM     20  C   UNL     1     -14.448   7.769  20.700  0.00  0.00    +0.029 A 
ATOM     23  C   UNL     1     -11.915   6.632  20.965  0.00  0.00    +0.005 A 
ATOM     24  C   UNL     1     -13.336   8.406  20.149  0.00  0.00    +0.005 A 
ATOM     25  C   UNL     1     -12.070   7.837  20.281  0.00  0.00    -0.050 A 
ATOM     27  C   UNL     1     -10.881   8.519  19.692  0.00  0.00    +0.044 C 
ENDBRANCH   1  16
ENDBRANCH   8   1
ENDBRANCH  13   8
ENDBRANCH  11  13
TORSDOF 8
ENDMDL
MODEL 7
REMARK VINA RESULT:      -6.5      8.088     10.394
REMARK  Name = 75536719
REMARK  9 active torsions:
REMARK  status: ('A' for Active; 'I' for Inactive)
REMARK    1  A    between atoms: S_1  and  N_8
REMARK    2  A    between atoms: S_1  and  C_16
REMARK    3  A    between atoms: O_4  and  C_10
REMARK    4  A    between atoms: N_7  and  C_9
REMARK    5  A    between atoms: N_7  and  C_14
REMARK    6  A    between atoms: N_8  and  C_13
REMARK    7  A    between atoms: C_11  and  C_13
REMARK    8  A    between atoms: C_14  and  C_15
REMARK    9  A    between atoms: C_25  and  C_27
REMARK                            x       y       z     vdW  Elec       q    Type
REMARK                         _______ _______ _______ _____ _____    ______ ____
ROOT
ATOM      3  O   UNL     1     -10.436  10.929  16.125  0.00  0.00    -0.371 OA
ATOM      9  C   UNL     1      -9.806   9.499  17.914  0.00  0.00    +0.111 C 
ATOM     10  C   UNL     1     -10.636   8.709  16.918  0.00  0.00    +0.164 C 
ATOM     11  C   UNL     1     -10.487   9.568  15.668  0.00  0.00    +0.164 C 
ATOM     12  C   UNL     1     -10.163  10.927  17.538  0.00  0.00    +0.181 C 
ENDROOT
BRANCH  10   4
ATOM      4  O   UNL     1     -10.147   7.398  16.718  0.00  0.00    -0.388 OA
ATOM     30  H   UNL     1     -10.862   6.859  16.340  0.00  0.00    +0.210 HD
ENDBRANCH  10   4
BRANCH   9   7
ATOM      7  N   UNL     1     -10.109   9.186  19.301  0.00  0.00    -0.305 NA
ATOM     28  H   UNL     1      -9.438   9.662  19.904  0.00  0.00    +0.123 HD
BRANCH   7  14
ATOM     14  C   UNL     1     -11.455   9.622  19.656  0.00  0.00    +0.119 C 
BRANCH  14  15
ATOM      2  F   UNL     1     -13.793  10.165  21.162  0.00  0.00    -0.205 F 
ATOM     15  C   UNL     1     -12.202   8.565  20.425  0.00  0.00    +0.002 A 
ATOM     17  C   UNL     1     -13.347   8.901  21.145  0.00  0.00    +0.128 A 
ATOM     18  C   UNL     1     -11.745   7.247  20.415  0.00  0.00    +0.008 A 
ATOM     21  C   UNL     1     -14.036   7.918  21.858  0.00  0.00    +0.038 A 
ATOM     22  C   UNL     1     -12.433   6.265  21.128  0.00  0.00    +0.000 A 
ATOM     26  C   UNL     1     -13.579   6.601  21.849  0.00  0.00    +0.003 A 
ENDBRANCH  14  15
ENDBRANCH   7  14
ENDBRANCH   9   7
BRANCH  11  13
ATOM     13  C   UNL     1     -11.632   9.399  14.685  0.00  0.00    +0.140 C 
BRANCH  13   8
ATOM      8  N   UNL     1     -12.397   8.182  15.018  0.00  0.00    -0.187 NA
ATOM     29  H   UNL     1     -11.837   7.344  15.217  0.00  0.00    +0.148 HD
BRANCH   8   1
ATOM      1  S   UNL     1     -13.976   7.978  14.421  0.00  0.00    +0.058 S 
ATOM      5  O   UNL     1     -14.053   6.734  13.680  0.00  0.00    -0.153 OA
ATOM      6  O   UNL     1     -14.414   9.219  13.812  0.00  0.00    -0.153 OA
BRANCH   1  16
ATOM     16  C   UNL     1     -14.903   7.781  15.913  0.00  0.00    +0.105 A 
ATOM     19  C   UNL     1     -14.360   8.189  17.131  0.00  0.00    +0.029 A 
ATOM     20  C   UNL     1     -16.177   7.213  15.874  0.00  0.00    +0.029 A 
ATOM     23  C   UNL     1     -15.090   8.031  18.308  0.00  0.00    +0.005 A 
ATOM     24  C   UNL     1     -16.907   7.055  17.051  0.00  0.00    +0.005 A 
ATOM     25  C   UNL     1     -16.364   7.464  18.269  0.00  0.00    -0.050 A 
ATOM     27  C   UNL     1     -17.145   7.294  19.528  0.00  0.00    +0.044 C 
ENDBRANCH   1  16
ENDBRANCH   8   1
ENDBRANCH  13   8
ENDBRANCH  11  13
TORSDOF 8
ENDMDL
MODEL 8
REMARK VINA RESULT:      -6.5     17.895     19.631
REMARK  Name = 75536719
REMARK  9 active torsions:
REMARK  status: ('A' for Active; 'I' for Inactive)
REMARK    1  A    between atoms: S_1  and  N_8
REMARK    2  A    between atoms: S_1  and  C_16
REMARK    3  A    between atoms: O_4  and  C_10
REMARK    4  A    between atoms: N_7  and  C_9
REMARK    5  A    between atoms: N_7  and  C_14
REMARK    6  A    between atoms: N_8  and  C_13
REMARK    7  A    between atoms: C_11  and  C_13
REMARK    8  A    between atoms: C_14  and  C_15
REMARK    9  A    between atoms: C_25  and  C_27
REMARK                            x       y       z     vdW  Elec       q    Type
REMARK                         _______ _______ _______ _____ _____    ______ ____
ROOT
ATOM      3  O   UNL     1      -6.991 -11.609  18.538  0.00  0.00    -0.371 OA
ATOM      9  C   UNL     1      -8.781 -10.197  17.874  0.00  0.00    +0.111 C 
ATOM     10  C   UNL     1      -7.470  -9.575  17.431  0.00  0.00    +0.164 C 
ATOM     11  C   UNL     1      -6.551 -10.789  17.443  0.00  0.00    +0.164 C 
ATOM     12  C   UNL     1      -8.307 -11.179  18.931  0.00  0.00    +0.181 C 
ENDROOT
BRANCH  10   4
ATOM      4  O   UNL     1      -7.550  -8.987  16.147  0.00  0.00    -0.388 OA
ATOM     30  H   UNL     1      -8.479  -9.008  15.859  0.00  0.00    +0.210 HD
ENDBRANCH  10   4
BRANCH   9   7
ATOM      7  N   UNL     1      -9.740  -9.231  18.387  0.00  0.00    -0.305 NA
ATOM     28  H   UNL     1      -9.423  -8.291  18.154  0.00  0.00    +0.123 HD
BRANCH   7  14
ATOM     14  C   UNL     1     -11.060  -9.442  17.805  0.00  0.00    +0.119 C 
BRANCH  14  15
ATOM      2  F   UNL     1     -13.645  -9.241  16.660  0.00  0.00    -0.205 F 
ATOM     15  C   UNL     1     -11.512  -8.255  16.996  0.00  0.00    +0.002 A 
ATOM     17  C   UNL     1     -12.799  -8.220  16.461  0.00  0.00    +0.128 A 
ATOM     18  C   UNL     1     -10.638  -7.189  16.782  0.00  0.00    +0.008 A 
ATOM     21  C   UNL     1     -13.213  -7.119  15.711  0.00  0.00    +0.038 A 
ATOM     22  C   UNL     1     -11.051  -6.088  16.031  0.00  0.00    +0.000 A 
ATOM     26  C   UNL     1     -12.340  -6.054  15.496  0.00  0.00    +0.003 A 
ENDBRANCH  14  15
ENDBRANCH   7  14
ENDBRANCH   9   7
BRANCH  11  13
ATOM     13  C   UNL     1      -5.086 -10.433  17.625  0.00  0.00    +0.140 C 
BRANCH  13   8
ATOM      8  N   UNL     1      -4.487 -10.113  16.315  0.00  0.00    -0.187 NA
ATOM     29  H   UNL     1      -5.052  -9.512  15.701  0.00  0.00    +0.148 HD
BRANCH   8   1
ATOM      1  S   UNL     1      -3.378 -11.185  15.600  0.00  0.00    +0.058 S 
ATOM      5  O   UNL     1      -3.886 -12.539  15.699  0.00  0.00    -0.153 OA
ATOM      6  O   UNL     1      -2.044 -10.870  16.075  0.00  0.00    -0.153 OA
BRANCH   1  16
ATOM     16  C   UNL     1      -3.449 -10.700  13.902  0.00  0.00    +0.105 A 
ATOM     19  C   UNL     1      -2.278 -10.631  13.146  0.00  0.00    +0.029 A 
ATOM     20  C   UNL     1      -4.675 -10.382  13.317  0.00  0.00    +0.029 A 
ATOM     23  C   UNL     1      -2.334 -10.245  11.808  0.00  0.00    +0.005 A 
ATOM     24  C   UNL     1      -4.730  -9.995  11.978  0.00  0.00    +0.005 A 
ATOM     25  C   UNL     1      -3.559  -9.928  11.223  0.00  0.00    -0.050 A 
ATOM     27  C   UNL     1      -3.619  -9.515   9.791  0.00  0.00    +0.044 C 
ENDBRANCH   1  16
ENDBRANCH   8   1
ENDBRANCH  13   8
ENDBRANCH  11  13
TORSDOF 8
ENDMDL
MODEL 9
REMARK VINA RESULT:      -6.5      2.720      8.924
REMARK  Name = 75536719
REMARK  9 active torsions:
REMARK  status: ('A' for Active; 'I' for Inactive)
REMARK    1  A    between atoms: S_1  and  N_8
REMARK    2  A    between atoms: S_1  and  C_16
REMARK    3  A    between atoms: O_4  and  C_10
REMARK    4  A    between atoms: N_7  and  C_9
REMARK    5  A    between atoms: N_7  and  C_14
REMARK    6  A    between atoms: N_8  and  C_13
REMARK    7  A    between atoms: C_11  and  C_13
REMARK    8  A    between atoms: C_14  and  C_15
REMARK    9  A    between atoms: C_25  and  C_27
REMARK                            x       y       z     vdW  Elec       q    Type
REMARK                         _______ _______ _______ _____ _____    ______ ____
ROOT
ATOM      3  O   UNL     1     -18.060   5.266  24.345  0.00  0.00    -0.371 OA
ATOM      9  C   UNL     1     -16.554   4.358  22.749  0.00  0.00    +0.111 C 
ATOM     10  C   UNL     1     -15.997   4.126  24.141  0.00  0.00    +0.164 C 
ATOM     11  C   UNL     1     -17.257   4.261  24.986  0.00  0.00    +0.164 C 
ATOM     12  C   UNL     1     -17.565   5.461  23.008  0.00  0.00    +0.181 C 
ENDROOT
BRANCH  10   4
ATOM      4  O   UNL     1     -15.399   2.853  24.285  0.00  0.00    -0.388 OA
ATOM     30  H   UNL     1     -14.606   2.822  23.723  0.00  0.00    +0.210 HD
ENDBRANCH  10   4
BRANCH   9   7
ATOM      7  N   UNL     1     -15.544   4.734  21.773  0.00  0.00    -0.305 NA
ATOM     28  H   UNL     1     -15.793   4.339  20.866  0.00  0.00    +0.123 HD
BRANCH   7  14
ATOM     14  C   UNL     1     -15.450   6.184  21.645  0.00  0.00    +0.119 C 
BRANCH  14  15
ATOM      2  F   UNL     1     -12.919   5.267  22.531  0.00  0.00    -0.205 F 
ATOM     15  C   UNL     1     -14.153   6.608  21.010  0.00  0.00    +0.002 A 
ATOM     17  C   UNL     1     -12.942   6.118  21.495  0.00  0.00    +0.128 A 
ATOM     18  C   UNL     1     -14.166   7.495  19.933  0.00  0.00    +0.008 A 
ATOM     21  C   UNL     1     -11.742   6.514  20.904  0.00  0.00    +0.038 A 
ATOM     22  C   UNL     1     -12.967   7.892  19.342  0.00  0.00    +0.000 A 
ATOM     26  C   UNL     1     -11.754   7.401  19.828  0.00  0.00    +0.003 A 
ENDBRANCH  14  15
ENDBRANCH   7  14
ENDBRANCH   9   7
BRANCH  11  13
ATOM     13  C   UNL     1     -16.977   4.667  26.422  0.00  0.00    +0.140 C 
BRANCH  13   8
ATOM      8  N   UNL     1     -16.171   3.623  27.084  0.00  0.00    -0.187 NA
ATOM     29  H   UNL     1     -15.171   3.617  26.852  0.00  0.00    +0.148 HD
BRANCH   8   1
ATOM      1  S   UNL     1     -16.899   2.164  27.568  0.00  0.00    +0.058 S 
ATOM      5  O   UNL     1     -16.419   1.085  26.727  0.00  0.00    -0.153 OA
ATOM      6  O   UNL     1     -18.324   2.380  27.736  0.00  0.00    -0.153 OA
BRANCH   1  16
ATOM     16  C   UNL     1     -16.218   1.939  29.184  0.00  0.00    +0.105 A 
ATOM     19  C   UNL     1     -16.169   3.010  30.076  0.00  0.00    +0.029 A 
ATOM     20  C   UNL     1     -15.726   0.691  29.567  0.00  0.00    +0.029 A 
ATOM     23  C   UNL     1     -15.629   2.834  31.349  0.00  0.00    +0.005 A 
ATOM     24  C   UNL     1     -15.186   0.514  30.840  0.00  0.00    +0.005 A 
ATOM     25  C   UNL     1     -15.138   1.586  31.732  0.00  0.00    -0.050 A 
ATOM     27  C   UNL     1     -14.560   1.397  33.094  0.00  0.00    +0.044 C 
ENDBRANCH   1  16
ENDBRANCH   8   1
ENDBRANCH  13   8
ENDBRANCH  11  13
TORSDOF 8
ENDMDL
MODEL 10
REMARK VINA RESULT:      -6.5     31.553     36.279
REMARK  Name = 75536719
REMARK  9 active torsions:
REMARK  status: ('A' for Active; 'I' for Inactive)
REMARK    1  A    between atoms: S_1  and  N_8
REMARK    2  A    between atoms: S_1  and  C_16
REMARK    3  A    between atoms: O_4  and  C_10
REMARK    4  A    between atoms: N_7  and  C_9
REMARK    5  A    between atoms: N_7  and  C_14
REMARK    6  A    between atoms: N_8  and  C_13
REMARK    7  A    between atoms: C_11  and  C_13
REMARK    8  A    between atoms: C_14  and  C_15
REMARK    9  A    between atoms: C_25  and  C_27
REMARK                            x       y       z     vdW  Elec       q    Type
REMARK                         _______ _______ _______ _____ _____    ______ ____
ROOT
ATOM      3  O   UNL     1      14.023   9.132   5.136  0.00  0.00    -0.371 OA
ATOM      9  C   UNL     1      15.658   8.112   3.750  0.00  0.00    +0.111 C 
ATOM     10  C   UNL     1      14.570   7.100   4.058  0.00  0.00    +0.164 C 
ATOM     11  C   UNL     1      13.422   8.017   4.458  0.00  0.00    +0.164 C 
ATOM     12  C   UNL     1      15.431   9.141   4.844  0.00  0.00    +0.181 C 
ENDROOT
BRANCH  10   4
ATOM      4  O   UNL     1      14.240   6.296   2.943  0.00  0.00    -0.388 OA
ATOM     30  H   UNL     1      13.271   6.229   2.891  0.00  0.00    +0.210 HD
ENDBRANCH  10   4
BRANCH   9   7
ATOM      7  N   UNL     1      16.999   7.550   3.771  0.00  0.00    -0.305 NA
ATOM     28  H   UNL     1      17.132   6.973   2.940  0.00  0.00    +0.123 HD
BRANCH   7  14
ATOM     14  C   UNL     1      18.010   8.602   3.781  0.00  0.00    +0.119 C 
BRANCH  14  15
ATOM      2  F   UNL     1      20.375   7.133   3.252  0.00  0.00    -0.205 F 
ATOM     15  C   UNL     1      19.071   8.350   4.818  0.00  0.00    +0.002 A 
ATOM     17  C   UNL     1      20.212   7.619   4.491  0.00  0.00    +0.128 A 
ATOM     18  C   UNL     1      18.910   8.850   6.111  0.00  0.00    +0.008 A 
ATOM     21  C   UNL     1      21.193   7.387   5.455  0.00  0.00    +0.038 A 
ATOM     22  C   UNL     1      19.890   8.617   7.075  0.00  0.00    +0.000 A 
ATOM     26  C   UNL     1      21.032   7.885   6.747  0.00  0.00    +0.003 A 
ENDBRANCH  14  15
ENDBRANCH   7  14
ENDBRANCH   9   7
BRANCH  11  13
ATOM     13  C   UNL     1      12.407   7.348   5.368  0.00  0.00    +0.140 C 
BRANCH  13   8
ATOM      8  N   UNL     1      11.858   6.151   4.702  0.00  0.00    -0.187 NA
ATOM     29  H   UNL     1      12.433   5.758   3.946  0.00  0.00    +0.148 HD
BRANCH   8   1
ATOM      1  S   UNL     1      10.178   5.895   4.659  0.00  0.00    +0.058 S 
ATOM      5  O   UNL     1       9.893   4.695   3.897  0.00  0.00    -0.153 OA
ATOM      6  O   UNL     1       9.519   7.144   4.327  0.00  0.00    -0.153 OA
BRANCH   1  16
ATOM     16  C   UNL     1       9.819   5.559   6.357  0.00  0.00    +0.105 A 
ATOM     19  C   UNL     1      10.035   4.283   6.876  0.00  0.00    +0.029 A 
ATOM     20  C   UNL     1       9.318   6.569   7.178  0.00  0.00    +0.029 A 
ATOM     23  C   UNL     1       9.750   4.017   8.215  0.00  0.00    +0.005 A 
ATOM     24  C   UNL     1       9.032   6.303   8.517  0.00  0.00    +0.005 A 
ATOM     25  C   UNL     1       9.249   5.027   9.036  0.00  0.00    -0.050 A 
ATOM     27  C   UNL     1       8.943   4.742  10.468  0.00  0.00    +0.044 C 
ENDBRANCH   1  16
ENDBRANCH   8   1
ENDBRANCH  13   8
ENDBRANCH  11  13
TORSDOF 8
ENDMDL
