MODEL 1
REMARK VINA RESULT:      -7.4      0.000      0.000
REMARK  Name = 45360663
REMARK  12 active torsions:
REMARK  status: ('A' for Active; 'I' for Inactive)
REMARK    1  A    between atoms: O_3  and  C_26
REMARK    2  A    between atoms: O_3  and  C_32
REMARK    3  A    between atoms: O_4  and  C_33
REMARK    4  A    between atoms: O_4  and  C_34
REMARK    5  A    between atoms: N_7  and  C_10
REMARK    6  A    between atoms: N_7  and  C_18
REMARK    7  A    between atoms: N_8  and  C_23
REMARK    8  A    between atoms: C_12  and  C_16
REMARK    9  A    between atoms: C_16  and  C_17
REMARK   10  A    between atoms: C_17  and  C_19
REMARK   11  A    between atoms: C_18  and  C_20
REMARK   12  A    between atoms: C_23  and  C_27
REMARK                            x       y       z     vdW  Elec       q    Type
REMARK                         _______ _______ _______ _____ _____    ______ ____
ROOT
ATOM      1  O   UNL     1     -17.685   1.873  21.897  0.00  0.00    -0.274 OA
ATOM      5  N   UNL     1     -17.277   3.359  25.206  0.00  0.00    -0.286 NA
ATOM      6  N   UNL     1     -17.576   0.875  23.938  0.00  0.00    -0.313 N 
ATOM      9  C   UNL     1     -17.637   3.358  23.782  0.00  0.00    +0.145 C 
ATOM     10  C   UNL     1     -15.690   4.726  24.266  0.00  0.00    +0.070 C 
ATOM     11  C   UNL     1     -16.609   4.293  23.124  0.00  0.00    +0.048 C 
ATOM     12  C   UNL     1     -17.818   2.237  25.964  0.00  0.00    +0.075 C 
ATOM     13  C   UNL     1     -15.839   3.605  25.287  0.00  0.00    +0.104 C 
ATOM     14  C   UNL     1     -17.366   0.914  25.366  0.00  0.00    +0.123 C 
ATOM     15  C   UNL     1     -17.611   1.982  23.125  0.00  0.00    +0.230 C 
ATOM     35  H   UNL     1     -17.580  -0.037  23.489  0.00  0.00    +0.149 HD
ENDROOT
BRANCH  10   7
ATOM      7  N   UNL     1     -14.316   4.944  23.840  0.00  0.00    -0.308 NA
ATOM     36  H   UNL     1     -14.000   5.850  24.190  0.00  0.00    +0.123 HD
BRANCH   7  18
ATOM     18  C   UNL     1     -14.210   4.933  22.387  0.00  0.00    +0.116 C 
BRANCH  18  20
ATOM     20  C   UNL     1     -13.561   6.180  21.862  0.00  0.00    -0.033 A 
ATOM     21  C   UNL     1     -12.288   6.118  21.295  0.00  0.00    +0.008 A 
ATOM     22  C   UNL     1     -14.231   7.402  21.940  0.00  0.00    +0.008 A 
ATOM     24  C   UNL     1     -11.686   7.278  20.807  0.00  0.00    +0.046 A 
ATOM     25  C   UNL     1     -13.629   8.560  21.452  0.00  0.00    +0.046 A 
ATOM     26  C   UNL     1     -12.355   8.498  20.885  0.00  0.00    +0.120 A 
BRANCH  26   3
ATOM      3  O   UNL     1     -11.768   9.630  20.408  0.00  0.00    -0.495 OA
ATOM     32  C   UNL     1     -11.094   9.532  19.154  0.00  0.00    +0.277 C 
ENDBRANCH  26   3
ENDBRANCH  18  20
ENDBRANCH   7  18
ENDBRANCH  10   7
BRANCH  12  16
ATOM     16  C   UNL     1     -17.483   2.310  27.453  0.00  0.00    +0.029 C 
BRANCH  16  17
ATOM     17  C   UNL     1     -17.421   0.920  28.072  0.00  0.00    +0.097 C 
BRANCH  17  19
ATOM      2  O   UNL     1     -16.200  -0.152  29.866  0.00  0.00    -0.276 OA
ATOM      8  N   UNL     1     -15.446   1.886  29.048  0.00  0.00    -0.311 N 
ATOM     19  C   UNL     1     -16.307   0.799  29.097  0.00  0.00    +0.213 C 
ATOM     37  H   UNL     1     -15.624   2.645  28.396  0.00  0.00    +0.149 HD
BRANCH   8  23
ATOM     23  C   UNL     1     -14.307   2.007  29.924  0.00  0.00    +0.139 C 
BRANCH  23  27
ATOM     27  C   UNL     1     -14.375   3.246  30.767  0.00  0.00    -0.030 A 
ATOM     28  C   UNL     1     -15.336   4.222  30.498  0.00  0.00    +0.009 A 
ATOM     29  C   UNL     1     -13.477   3.424  31.820  0.00  0.00    +0.009 A 
ATOM     30  C   UNL     1     -15.400   5.374  31.282  0.00  0.00    +0.046 A 
ATOM     31  C   UNL     1     -13.541   4.576  32.603  0.00  0.00    +0.046 A 
ATOM     33  C   UNL     1     -14.501   5.551  32.334  0.00  0.00    +0.120 A 
BRANCH  33   4
ATOM      4  O   UNL     1     -14.564   6.675  33.099  0.00  0.00    -0.495 OA
ATOM     34  C   UNL     1     -13.560   7.665  32.881  0.00  0.00    +0.277 C 
ENDBRANCH  33   4
ENDBRANCH  23  27
ENDBRANCH   8  23
ENDBRANCH  17  19
ENDBRANCH  16  17
ENDBRANCH  12  16
TORSDOF 10
ENDMDL
MODEL 2
REMARK VINA RESULT:      -7.3     18.618     22.023
REMARK  Name = 45360663
REMARK  12 active torsions:
REMARK  status: ('A' for Active; 'I' for Inactive)
REMARK    1  A    between atoms: O_3  and  C_26
REMARK    2  A    between atoms: O_3  and  C_32
REMARK    3  A    between atoms: O_4  and  C_33
REMARK    4  A    between atoms: O_4  and  C_34
REMARK    5  A    between atoms: N_7  and  C_10
REMARK    6  A    between atoms: N_7  and  C_18
REMARK    7  A    between atoms: N_8  and  C_23
REMARK    8  A    between atoms: C_12  and  C_16
REMARK    9  A    between atoms: C_16  and  C_17
REMARK   10  A    between atoms: C_17  and  C_19
REMARK   11  A    between atoms: C_18  and  C_20
REMARK   12  A    between atoms: C_23  and  C_27
REMARK                            x       y       z     vdW  Elec       q    Type
REMARK                         _______ _______ _______ _____ _____    ______ ____
ROOT
ATOM      1  O   UNL     1      -7.243 -14.480  17.078  0.00  0.00    -0.274 OA
ATOM      5  N   UNL     1      -4.965 -11.723  17.809  0.00  0.00    -0.286 NA
ATOM      6  N   UNL     1      -6.053 -13.160  15.658  0.00  0.00    -0.313 N 
ATOM      9  C   UNL     1      -5.712 -12.950  18.115  0.00  0.00    +0.145 C 
ATOM     10  C   UNL     1      -6.501 -11.024  19.364  0.00  0.00    +0.070 C 
ATOM     11  C   UNL     1      -6.733 -12.523  19.182  0.00  0.00    +0.048 C 
ATOM     12  C   UNL     1      -4.242 -11.761  16.543  0.00  0.00    +0.075 C 
ATOM     13  C   UNL     1      -5.867 -10.599  18.046  0.00  0.00    +0.104 C 
ATOM     14  C   UNL     1      -5.192 -12.032  15.387  0.00  0.00    +0.123 C 
ATOM     15  C   UNL     1      -6.417 -13.577  16.916  0.00  0.00    +0.230 C 
ATOM     35  H   UNL     1      -6.514 -13.599  14.867  0.00  0.00    +0.149 HD
ENDROOT
BRANCH  10   7
ATOM      7  N   UNL     1      -7.718 -10.293  19.684  0.00  0.00    -0.308 NA
ATOM     36  H   UNL     1      -7.859 -10.310  20.695  0.00  0.00    +0.123 HD
BRANCH   7  18
ATOM     18  C   UNL     1      -8.875 -10.893  19.033  0.00  0.00    +0.116 C 
BRANCH  18  20
ATOM     20  C   UNL     1      -9.697  -9.875  18.297  0.00  0.00    -0.033 A 
ATOM     21  C   UNL     1      -9.069  -8.908  17.510  0.00  0.00    +0.008 A 
ATOM     22  C   UNL     1     -11.088  -9.895  18.400  0.00  0.00    +0.008 A 
ATOM     24  C   UNL     1      -9.834  -7.962  16.827  0.00  0.00    +0.046 A 
ATOM     25  C   UNL     1     -11.851  -8.949  17.717  0.00  0.00    +0.046 A 
ATOM     26  C   UNL     1     -11.224  -7.983  16.930  0.00  0.00    +0.120 A 
BRANCH  26   3
ATOM      3  O   UNL     1     -11.970  -7.061  16.262  0.00  0.00    -0.495 OA
ATOM     32  C   UNL     1     -11.276  -5.948  15.700  0.00  0.00    +0.277 C 
ENDBRANCH  26   3
ENDBRANCH  18  20
ENDBRANCH   7  18
ENDBRANCH  10   7
BRANCH  12  16
ATOM     16  C   UNL     1      -3.420 -10.497  16.292  0.00  0.00    +0.029 C 
BRANCH  16  17
ATOM     17  C   UNL     1      -1.968 -10.837  15.983  0.00  0.00    +0.097 C 
BRANCH  17  19
ATOM      2  O   UNL     1      -1.433 -12.482  14.290  0.00  0.00    -0.276 OA
ATOM      8  N   UNL     1      -2.073 -10.350  13.630  0.00  0.00    -0.311 N 
ATOM     19  C   UNL     1      -1.788 -11.338  14.561  0.00  0.00    +0.213 C 
ATOM     37  H   UNL     1      -2.335  -9.419  13.942  0.00  0.00    +0.149 HD
BRANCH   8  23
ATOM     23  C   UNL     1      -1.974 -10.579  12.209  0.00  0.00    +0.139 C 
BRANCH  23  27
ATOM     27  C   UNL     1      -3.150 -10.015  11.466  0.00  0.00    -0.030 A 
ATOM     28  C   UNL     1      -4.429 -10.092  12.020  0.00  0.00    +0.009 A 
ATOM     29  C   UNL     1      -2.965  -9.413  10.221  0.00  0.00    +0.009 A 
ATOM     30  C   UNL     1      -5.521  -9.568  11.330  0.00  0.00    +0.046 A 
ATOM     31  C   UNL     1      -4.058  -8.888   9.532  0.00  0.00    +0.046 A 
ATOM     33  C   UNL     1      -5.336  -8.967  10.086  0.00  0.00    +0.120 A 
BRANCH  33   4
ATOM      4  O   UNL     1      -6.402  -8.454   9.412  0.00  0.00    -0.495 OA
ATOM     34  C   UNL     1      -6.729  -9.055   8.161  0.00  0.00    +0.277 C 
ENDBRANCH  33   4
ENDBRANCH  23  27
ENDBRANCH   8  23
ENDBRANCH  17  19
ENDBRANCH  16  17
ENDBRANCH  12  16
TORSDOF 10
ENDMDL
MODEL 3
REMARK VINA RESULT:      -7.1     18.152     21.587
REMARK  Name = 45360663
REMARK  12 active torsions:
REMARK  status: ('A' for Active; 'I' for Inactive)
REMARK    1  A    between atoms: O_3  and  C_26
REMARK    2  A    between atoms: O_3  and  C_32
REMARK    3  A    between atoms: O_4  and  C_33
REMARK    4  A    between atoms: O_4  and  C_34
REMARK    5  A    between atoms: N_7  and  C_10
REMARK    6  A    between atoms: N_7  and  C_18
REMARK    7  A    between atoms: N_8  and  C_23
REMARK    8  A    between atoms: C_12  and  C_16
REMARK    9  A    between atoms: C_16  and  C_17
REMARK   10  A    between atoms: C_17  and  C_19
REMARK   11  A    between atoms: C_18  and  C_20
REMARK   12  A    between atoms: C_23  and  C_27
REMARK                            x       y       z     vdW  Elec       q    Type
REMARK                         _______ _______ _______ _____ _____    ______ ____
ROOT
ATOM      1  O   UNL     1      -7.518 -12.615  19.469  0.00  0.00    -0.274 OA
ATOM      5  N   UNL     1      -5.250 -10.964  17.134  0.00  0.00    -0.286 NA
ATOM      6  N   UNL     1      -6.211 -13.506  17.834  0.00  0.00    -0.313 N 
ATOM      9  C   UNL     1      -6.037 -11.081  18.368  0.00  0.00    +0.145 C 
ATOM     10  C   UNL     1      -6.878  -9.369  16.866  0.00  0.00    +0.070 C 
ATOM     11  C   UNL     1      -7.122 -10.000  18.236  0.00  0.00    +0.048 C 
ATOM     12  C   UNL     1      -4.443 -12.138  16.824  0.00  0.00    +0.075 C 
ATOM     13  C   UNL     1      -6.147 -10.461  16.096  0.00  0.00    +0.104 C 
ATOM     14  C   UNL     1      -5.315 -13.379  16.708  0.00  0.00    +0.123 C 
ATOM     15  C   UNL     1      -6.668 -12.452  18.589  0.00  0.00    +0.230 C 
ATOM     35  H   UNL     1      -6.624 -14.418  18.004  0.00  0.00    +0.149 HD
ENDROOT
BRANCH  10   7
ATOM      7  N   UNL     1      -8.101  -8.922  16.217  0.00  0.00    -0.308 NA
ATOM     36  H   UNL     1      -7.960  -7.977  15.858  0.00  0.00    +0.123 HD
BRANCH   7  18
ATOM     18  C   UNL     1      -9.217  -8.911  17.155  0.00  0.00    +0.116 C 
BRANCH  18  20
ATOM     20  C   UNL     1     -10.389  -8.139  16.624  0.00  0.00    -0.033 A 
ATOM     21  C   UNL     1     -10.184  -6.936  15.949  0.00  0.00    +0.008 A 
ATOM     22  C   UNL     1     -11.684  -8.624  16.807  0.00  0.00    +0.008 A 
ATOM     24  C   UNL     1     -11.274  -6.218  15.456  0.00  0.00    +0.046 A 
ATOM     25  C   UNL     1     -12.774  -7.907  16.314  0.00  0.00    +0.046 A 
ATOM     26  C   UNL     1     -12.568  -6.704  15.638  0.00  0.00    +0.120 A 
BRANCH  26   3
ATOM      3  O   UNL     1     -13.632  -6.004  15.156  0.00  0.00    -0.495 OA
ATOM     32  C   UNL     1     -14.781  -6.755  14.766  0.00  0.00    +0.277 C 
ENDBRANCH  26   3
ENDBRANCH  18  20
ENDBRANCH   7  18
ENDBRANCH  10   7
BRANCH  12  16
ATOM     16  C   UNL     1      -3.583 -11.954  15.573  0.00  0.00    +0.029 C 
BRANCH  16  17
ATOM     17  C   UNL     1      -2.454 -10.964  15.821  0.00  0.00    +0.097 C 
BRANCH  17  19
ATOM      2  O   UNL     1      -1.051  -9.502  14.497  0.00  0.00    -0.276 OA
ATOM      8  N   UNL     1      -2.541 -10.918  13.419  0.00  0.00    -0.311 N 
ATOM     19  C   UNL     1      -1.922 -10.367  14.531  0.00  0.00    +0.213 C 
ATOM     37  H   UNL     1      -3.274 -11.612  13.537  0.00  0.00    +0.149 HD
BRANCH   8  23
ATOM     23  C   UNL     1      -2.210 -10.515  12.073  0.00  0.00    +0.139 C 
BRANCH  23  27
ATOM     27  C   UNL     1      -3.388  -9.918  11.360  0.00  0.00    -0.030 A 
ATOM     28  C   UNL     1      -3.235  -9.400  10.073  0.00  0.00    +0.009 A 
ATOM     29  C   UNL     1      -4.635  -9.880  11.983  0.00  0.00    +0.009 A 
ATOM     30  C   UNL     1      -4.330  -8.846   9.410  0.00  0.00    +0.046 A 
ATOM     31  C   UNL     1      -5.730  -9.326  11.319  0.00  0.00    +0.046 A 
ATOM     33  C   UNL     1      -5.576  -8.808  10.034  0.00  0.00    +0.120 A 
BRANCH  33   4
ATOM      4  O   UNL     1      -6.645  -8.268   9.386  0.00  0.00    -0.495 OA
ATOM     34  C   UNL     1      -6.929  -8.762   8.078  0.00  0.00    +0.277 C 
ENDBRANCH  33   4
ENDBRANCH  23  27
ENDBRANCH   8  23
ENDBRANCH  17  19
ENDBRANCH  16  17
ENDBRANCH  12  16
TORSDOF 10
ENDMDL
MODEL 4
REMARK VINA RESULT:      -7.0     27.312     31.299
REMARK  Name = 45360663
REMARK  12 active torsions:
REMARK  status: ('A' for Active; 'I' for Inactive)
REMARK    1  A    between atoms: O_3  and  C_26
REMARK    2  A    between atoms: O_3  and  C_32
REMARK    3  A    between atoms: O_4  and  C_33
REMARK    4  A    between atoms: O_4  and  C_34
REMARK    5  A    between atoms: N_7  and  C_10
REMARK    6  A    between atoms: N_7  and  C_18
REMARK    7  A    between atoms: N_8  and  C_23
REMARK    8  A    between atoms: C_12  and  C_16
REMARK    9  A    between atoms: C_16  and  C_17
REMARK   10  A    between atoms: C_17  and  C_19
REMARK   11  A    between atoms: C_18  and  C_20
REMARK   12  A    between atoms: C_23  and  C_27
REMARK                            x       y       z     vdW  Elec       q    Type
REMARK                         _______ _______ _______ _____ _____    ______ ____
ROOT
ATOM      1  O   UNL     1      11.304   6.083  20.542  0.00  0.00    -0.274 OA
ATOM      5  N   UNL     1      11.644   9.718  20.537  0.00  0.00    -0.286 NA
ATOM      6  N   UNL     1      11.156   7.562  22.265  0.00  0.00    -0.313 N 
ATOM      9  C   UNL     1      11.386   8.404  19.934  0.00  0.00    +0.145 C 
ATOM     10  C   UNL     1      13.436   9.429  19.133  0.00  0.00    +0.070 C 
ATOM     11  C   UNL     1      12.557   8.191  18.960  0.00  0.00    +0.048 C 
ATOM     12  C   UNL     1      10.927   9.957  21.784  0.00  0.00    +0.075 C 
ATOM     13  C   UNL     1      13.091   9.918  20.533  0.00  0.00    +0.104 C 
ATOM     14  C   UNL     1      11.268   8.892  22.816  0.00  0.00    +0.123 C 
ATOM     15  C   UNL     1      11.304   7.254  20.934  0.00  0.00    +0.230 C 
ATOM     35  H   UNL     1      11.081   6.788  22.919  0.00  0.00    +0.149 HD
ENDROOT
BRANCH  10   7
ATOM      7  N   UNL     1      14.853   9.153  18.948  0.00  0.00    -0.308 NA
ATOM     36  H   UNL     1      15.134   9.471  18.020  0.00  0.00    +0.123 HD
BRANCH   7  18
ATOM     18  C   UNL     1      15.127   7.727  19.064  0.00  0.00    +0.116 C 
BRANCH  18  20
ATOM     20  C   UNL     1      16.376   7.457  19.851  0.00  0.00    -0.033 A 
ATOM     21  C   UNL     1      17.147   6.328  19.571  0.00  0.00    +0.008 A 
ATOM     22  C   UNL     1      16.767   8.335  20.862  0.00  0.00    +0.008 A 
ATOM     24  C   UNL     1      18.309   6.078  20.303  0.00  0.00    +0.046 A 
ATOM     25  C   UNL     1      17.928   8.085  21.592  0.00  0.00    +0.046 A 
ATOM     26  C   UNL     1      18.699   6.956  21.312  0.00  0.00    +0.120 A 
BRANCH  26   3
ATOM      3  O   UNL     1      19.833   6.713  22.025  0.00  0.00    -0.495 OA
ATOM     32  C   UNL     1      20.170   7.648  23.049  0.00  0.00    +0.277 C 
ENDBRANCH  26   3
ENDBRANCH  18  20
ENDBRANCH   7  18
ENDBRANCH  10   7
BRANCH  12  16
ATOM     16  C   UNL     1      11.162  11.359  22.345  0.00  0.00    +0.029 C 
BRANCH  16  17
ATOM     17  C   UNL     1      11.072  11.367  23.865  0.00  0.00    +0.097 C 
BRANCH  17  19
ATOM      2  O   UNL     1      12.486  12.005  25.723  0.00  0.00    -0.276 OA
ATOM      8  N   UNL     1      13.340  12.111  23.568  0.00  0.00    -0.311 N 
ATOM     19  C   UNL     1      12.355  11.857  24.511  0.00  0.00    +0.213 C 
ATOM     37  H   UNL     1      13.139  11.987  22.579  0.00  0.00    +0.149 HD
BRANCH   8  23
ATOM     23  C   UNL     1      14.652  12.589  23.931  0.00  0.00    +0.139 C 
BRANCH  23  27
ATOM     27  C   UNL     1      15.659  12.347  22.845  0.00  0.00    -0.030 A 
ATOM     28  C   UNL     1      16.966  11.986  23.173  0.00  0.00    +0.009 A 
ATOM     29  C   UNL     1      15.288  12.484  21.507  0.00  0.00    +0.009 A 
ATOM     30  C   UNL     1      17.902  11.761  22.164  0.00  0.00    +0.046 A 
ATOM     31  C   UNL     1      16.224  12.258  20.498  0.00  0.00    +0.046 A 
ATOM     33  C   UNL     1      17.531  11.898  20.827  0.00  0.00    +0.120 A 
BRANCH  33   4
ATOM      4  O   UNL     1      18.444  11.678  19.841  0.00  0.00    -0.495 OA
ATOM     34  C   UNL     1      18.926  12.820  19.136  0.00  0.00    +0.277 C 
ENDBRANCH  33   4
ENDBRANCH  23  27
ENDBRANCH   8  23
ENDBRANCH  17  19
ENDBRANCH  16  17
ENDBRANCH  12  16
TORSDOF 10
ENDMDL
MODEL 5
REMARK VINA RESULT:      -6.9     21.009     23.256
REMARK  Name = 45360663
REMARK  12 active torsions:
REMARK  status: ('A' for Active; 'I' for Inactive)
REMARK    1  A    between atoms: O_3  and  C_26
REMARK    2  A    between atoms: O_3  and  C_32
REMARK    3  A    between atoms: O_4  and  C_33
REMARK    4  A    between atoms: O_4  and  C_34
REMARK    5  A    between atoms: N_7  and  C_10
REMARK    6  A    between atoms: N_7  and  C_18
REMARK    7  A    between atoms: N_8  and  C_23
REMARK    8  A    between atoms: C_12  and  C_16
REMARK    9  A    between atoms: C_16  and  C_17
REMARK   10  A    between atoms: C_17  and  C_19
REMARK   11  A    between atoms: C_18  and  C_20
REMARK   12  A    between atoms: C_23  and  C_27
REMARK                            x       y       z     vdW  Elec       q    Type
REMARK                         _______ _______ _______ _____ _____    ______ ____
ROOT
ATOM      1  O   UNL     1      -7.625 -10.086  12.231  0.00  0.00    -0.274 OA
ATOM      5  N   UNL     1      -4.003  -9.901  11.816  0.00  0.00    -0.286 NA
ATOM      6  N   UNL     1      -6.026 -11.635  12.697  0.00  0.00    -0.313 N 
ATOM      9  C   UNL     1      -5.355  -9.350  11.973  0.00  0.00    +0.145 C 
ATOM     10  C   UNL     1      -4.406  -8.922   9.780  0.00  0.00    +0.070 C 
ATOM     11  C   UNL     1      -5.646  -8.656  10.632  0.00  0.00    +0.048 C 
ATOM     12  C   UNL     1      -3.670 -10.954  12.768  0.00  0.00    +0.075 C 
ATOM     13  C   UNL     1      -3.815 -10.183  10.394  0.00  0.00    +0.104 C 
ATOM     14  C   UNL     1      -4.660 -12.105  12.670  0.00  0.00    +0.123 C 
ATOM     15  C   UNL     1      -6.429 -10.387  12.286  0.00  0.00    +0.230 C 
ATOM     35  H   UNL     1      -6.750 -12.311  12.922  0.00  0.00    +0.149 HD
ENDROOT
BRANCH  10   7
ATOM      7  N   UNL     1      -4.706  -9.054   8.362  0.00  0.00    -0.308 NA
ATOM     36  H   UNL     1      -5.586  -8.576   8.163  0.00  0.00    +0.123 HD
BRANCH   7  18
ATOM     18  C   UNL     1      -4.831 -10.455   7.982  0.00  0.00    +0.116 C 
BRANCH  18  20
ATOM     20  C   UNL     1      -5.421 -10.615   6.611  0.00  0.00    -0.033 A 
ATOM     21  C   UNL     1      -6.457  -9.778   6.196  0.00  0.00    +0.008 A 
ATOM     22  C   UNL     1      -4.933 -11.600   5.752  0.00  0.00    +0.008 A 
ATOM     24  C   UNL     1      -7.005  -9.928   4.921  0.00  0.00    +0.046 A 
ATOM     25  C   UNL     1      -5.480 -11.748   4.479  0.00  0.00    +0.046 A 
ATOM     26  C   UNL     1      -6.517 -10.912   4.063  0.00  0.00    +0.120 A 
BRANCH  26   3
ATOM      3  O   UNL     1      -7.050 -11.057   2.819  0.00  0.00    -0.495 OA
ATOM     32  C   UNL     1      -8.445 -10.790   2.676  0.00  0.00    +0.277 C 
ENDBRANCH  26   3
ENDBRANCH  18  20
ENDBRANCH   7  18
ENDBRANCH  10   7
BRANCH  12  16
ATOM     16  C   UNL     1      -2.233 -11.454  12.621  0.00  0.00    +0.029 C 
BRANCH  16  17
ATOM     17  C   UNL     1      -1.775 -12.191  13.873  0.00  0.00    +0.097 C 
BRANCH  17  19
ATOM      2  O   UNL     1      -1.087 -10.371  15.311  0.00  0.00    -0.276 OA
ATOM      8  N   UNL     1      -2.861 -11.717  15.966  0.00  0.00    -0.311 N 
ATOM     19  C   UNL     1      -1.846 -11.315  15.110  0.00  0.00    +0.213 C 
ATOM     37  H   UNL     1      -3.427 -12.529  15.735  0.00  0.00    +0.149 HD
BRANCH   8  23
ATOM     23  C   UNL     1      -3.131 -11.044  17.213  0.00  0.00    +0.139 C 
BRANCH  23  27
ATOM     27  C   UNL     1      -4.563 -10.609  17.319  0.00  0.00    -0.030 A 
ATOM     28  C   UNL     1      -5.195 -10.016  16.225  0.00  0.00    +0.009 A 
ATOM     29  C   UNL     1      -5.263 -10.797  18.511  0.00  0.00    +0.009 A 
ATOM     30  C   UNL     1      -6.527  -9.613  16.323  0.00  0.00    +0.046 A 
ATOM     31  C   UNL     1      -6.594 -10.394  18.609  0.00  0.00    +0.046 A 
ATOM     33  C   UNL     1      -7.226  -9.801  17.515  0.00  0.00    +0.120 A 
BRANCH  33   4
ATOM      4  O   UNL     1      -8.525  -9.408  17.611  0.00  0.00    -0.495 OA
ATOM     34  C   UNL     1      -9.044  -8.614  16.545  0.00  0.00    +0.277 C 
ENDBRANCH  33   4
ENDBRANCH  23  27
ENDBRANCH   8  23
ENDBRANCH  17  19
ENDBRANCH  16  17
ENDBRANCH  12  16
TORSDOF 10
ENDMDL
MODEL 6
REMARK VINA RESULT:      -6.9     16.008     18.506
REMARK  Name = 45360663
REMARK  12 active torsions:
REMARK  status: ('A' for Active; 'I' for Inactive)
REMARK    1  A    between atoms: O_3  and  C_26
REMARK    2  A    between atoms: O_3  and  C_32
REMARK    3  A    between atoms: O_4  and  C_33
REMARK    4  A    between atoms: O_4  and  C_34
REMARK    5  A    between atoms: N_7  and  C_10
REMARK    6  A    between atoms: N_7  and  C_18
REMARK    7  A    between atoms: N_8  and  C_23
REMARK    8  A    between atoms: C_12  and  C_16
REMARK    9  A    between atoms: C_16  and  C_17
REMARK   10  A    between atoms: C_17  and  C_19
REMARK   11  A    between atoms: C_18  and  C_20
REMARK   12  A    between atoms: C_23  and  C_27
REMARK                            x       y       z     vdW  Elec       q    Type
REMARK                         _______ _______ _______ _____ _____    ______ ____
ROOT
ATOM      1  O   UNL     1     -15.169  -7.629  12.452  0.00  0.00    -0.274 OA
ATOM      5  N   UNL     1     -13.019  -5.784  14.754  0.00  0.00    -0.286 NA
ATOM      6  N   UNL     1     -13.297  -8.305  13.554  0.00  0.00    -0.313 N 
ATOM      9  C   UNL     1     -14.267  -6.063  14.032  0.00  0.00    +0.145 C 
ATOM     10  C   UNL     1     -13.189  -4.013  13.305  0.00  0.00    +0.070 C 
ATOM     11  C   UNL     1     -14.429  -4.875  13.070  0.00  0.00    +0.048 C 
ATOM     12  C   UNL     1     -12.429  -6.949  15.405  0.00  0.00    +0.075 C 
ATOM     13  C   UNL     1     -12.170  -4.999  13.862  0.00  0.00    +0.104 C 
ATOM     14  C   UNL     1     -12.149  -8.049  14.392  0.00  0.00    +0.123 C 
ATOM     15  C   UNL     1     -14.272  -7.381  13.264  0.00  0.00    +0.230 C 
ATOM     35  H   UNL     1     -13.323  -9.187  13.051  0.00  0.00    +0.149 HD
ENDROOT
BRANCH  10   7
ATOM      7  N   UNL     1     -12.735  -3.327  12.105  0.00  0.00    -0.308 NA
ATOM     36  H   UNL     1     -13.108  -2.377  12.105  0.00  0.00    +0.123 HD
BRANCH   7  18
ATOM     18  C   UNL     1     -13.191  -4.016  10.905  0.00  0.00    +0.116 C 
BRANCH  18  20
ATOM     20  C   UNL     1     -12.047  -4.562  10.102  0.00  0.00    -0.033 A 
ATOM     21  C   UNL     1     -11.939  -5.937   9.887  0.00  0.00    +0.008 A 
ATOM     22  C   UNL     1     -11.092  -3.696   9.569  0.00  0.00    +0.008 A 
ATOM     24  C   UNL     1     -10.876  -6.444   9.140  0.00  0.00    +0.046 A 
ATOM     25  C   UNL     1     -10.029  -4.204   8.823  0.00  0.00    +0.046 A 
ATOM     26  C   UNL     1      -9.921  -5.578   8.608  0.00  0.00    +0.120 A 
BRANCH  26   3
ATOM      3  O   UNL     1      -8.884  -6.074   7.879  0.00  0.00    -0.495 OA
ATOM     32  C   UNL     1      -8.077  -7.076   8.496  0.00  0.00    +0.277 C 
ENDBRANCH  26   3
ENDBRANCH  18  20
ENDBRANCH   7  18
ENDBRANCH  10   7
BRANCH  12  16
ATOM     16  C   UNL     1     -11.172  -6.608  16.206  0.00  0.00    +0.029 C 
BRANCH  16  17
ATOM     17  C   UNL     1      -9.992  -7.467  15.771  0.00  0.00    +0.097 C 
BRANCH  17  19
ATOM      2  O   UNL     1     -10.163  -8.659  17.870  0.00  0.00    -0.276 OA
ATOM      8  N   UNL     1      -8.173  -8.753  16.677  0.00  0.00    -0.311 N 
ATOM     19  C   UNL     1      -9.483  -8.350  16.895  0.00  0.00    +0.213 C 
ATOM     37  H   UNL     1      -7.673  -8.428  15.854  0.00  0.00    +0.149 HD
BRANCH   8  23
ATOM     23  C   UNL     1      -7.462  -9.598  17.605  0.00  0.00    +0.139 C 
BRANCH  23  27
ATOM     27  C   UNL     1      -6.157 -10.079  17.040  0.00  0.00    -0.030 A 
ATOM     28  C   UNL     1      -5.901  -9.959  15.674  0.00  0.00    +0.009 A 
ATOM     29  C   UNL     1      -5.200 -10.645  17.882  0.00  0.00    +0.009 A 
ATOM     30  C   UNL     1      -4.688 -10.405  15.149  0.00  0.00    +0.046 A 
ATOM     31  C   UNL     1      -3.987 -11.091  17.357  0.00  0.00    +0.046 A 
ATOM     33  C   UNL     1      -3.732 -10.972  15.991  0.00  0.00    +0.120 A 
BRANCH  33   4
ATOM      4  O   UNL     1      -2.547 -11.406  15.480  0.00  0.00    -0.495 OA
ATOM     34  C   UNL     1      -1.378 -10.668  15.832  0.00  0.00    +0.277 C 
ENDBRANCH  33   4
ENDBRANCH  23  27
ENDBRANCH   8  23
ENDBRANCH  17  19
ENDBRANCH  16  17
ENDBRANCH  12  16
TORSDOF 10
ENDMDL
MODEL 7
REMARK VINA RESULT:      -6.7     27.267     31.716
REMARK  Name = 45360663
REMARK  12 active torsions:
REMARK  status: ('A' for Active; 'I' for Inactive)
REMARK    1  A    between atoms: O_3  and  C_26
REMARK    2  A    between atoms: O_3  and  C_32
REMARK    3  A    between atoms: O_4  and  C_33
REMARK    4  A    between atoms: O_4  and  C_34
REMARK    5  A    between atoms: N_7  and  C_10
REMARK    6  A    between atoms: N_7  and  C_18
REMARK    7  A    between atoms: N_8  and  C_23
REMARK    8  A    between atoms: C_12  and  C_16
REMARK    9  A    between atoms: C_16  and  C_17
REMARK   10  A    between atoms: C_17  and  C_19
REMARK   11  A    between atoms: C_18  and  C_20
REMARK   12  A    between atoms: C_23  and  C_27
REMARK                            x       y       z     vdW  Elec       q    Type
REMARK                         _______ _______ _______ _____ _____    ______ ____
ROOT
ATOM      1  O   UNL     1      10.873   6.278  21.367  0.00  0.00    -0.274 OA
ATOM      5  N   UNL     1      11.775   9.656  20.319  0.00  0.00    -0.286 NA
ATOM      6  N   UNL     1      11.224   8.145  22.618  0.00  0.00    -0.313 N 
ATOM      9  C   UNL     1      11.225   8.307  20.134  0.00  0.00    +0.145 C 
ATOM     10  C   UNL     1      13.264   8.680  18.870  0.00  0.00    +0.070 C 
ATOM     11  C   UNL     1      12.184   7.632  19.140  0.00  0.00    +0.048 C 
ATOM     12  C   UNL     1      11.304  10.337  21.519  0.00  0.00    +0.075 C 
ATOM     13  C   UNL     1      13.218   9.566  20.108  0.00  0.00    +0.104 C 
ATOM     14  C   UNL     1      11.627   9.524  22.764  0.00  0.00    +0.123 C 
ATOM     15  C   UNL     1      11.116   7.487  21.416  0.00  0.00    +0.230 C 
ATOM     35  H   UNL     1      11.129   7.593  23.465  0.00  0.00    +0.149 HD
ENDROOT
BRANCH  10   7
ATOM      7  N   UNL     1      14.574   8.099  18.622  0.00  0.00    -0.308 NA
ATOM     36  H   UNL     1      14.668   7.906  17.624  0.00  0.00    +0.123 HD
BRANCH   7  18
ATOM     18  C   UNL     1      14.744   6.856  19.363  0.00  0.00    +0.116 C 
BRANCH  18  20
ATOM     20  C   UNL     1      16.182   6.598  19.707  0.00  0.00    -0.033 A 
ATOM     21  C   UNL     1      16.960   5.782  18.885  0.00  0.00    +0.008 A 
ATOM     22  C   UNL     1      16.740   7.175  20.848  0.00  0.00    +0.008 A 
ATOM     24  C   UNL     1      18.297   5.544  19.206  0.00  0.00    +0.046 A 
ATOM     25  C   UNL     1      18.076   6.936  21.167  0.00  0.00    +0.046 A 
ATOM     26  C   UNL     1      18.855   6.121  20.346  0.00  0.00    +0.120 A 
BRANCH  26   3
ATOM      3  O   UNL     1      20.159   5.888  20.658  0.00  0.00    -0.495 OA
ATOM     32  C   UNL     1      20.978   7.028  20.915  0.00  0.00    +0.277 C 
ENDBRANCH  26   3
ENDBRANCH  18  20
ENDBRANCH   7  18
ENDBRANCH  10   7
BRANCH  12  16
ATOM     16  C   UNL     1      11.840  11.763  21.641  0.00  0.00    +0.029 C 
BRANCH  16  17
ATOM     17  C   UNL     1      12.715  11.919  22.878  0.00  0.00    +0.097 C 
BRANCH  17  19
ATOM      2  O   UNL     1      15.099  11.798  23.277  0.00  0.00    -0.276 OA
ATOM      8  N   UNL     1      14.334  12.657  21.260  0.00  0.00    -0.311 N 
ATOM     19  C   UNL     1      14.179  12.105  22.523  0.00  0.00    +0.213 C 
ATOM     37  H   UNL     1      13.516  12.907  20.712  0.00  0.00    +0.149 HD
BRANCH   8  23
ATOM     23  C   UNL     1      15.632  12.933  20.694  0.00  0.00    +0.139 C 
BRANCH  23  27
ATOM     27  C   UNL     1      15.638  12.778  19.201  0.00  0.00    -0.030 A 
ATOM     28  C   UNL     1      14.456  12.467  18.526  0.00  0.00    +0.009 A 
ATOM     29  C   UNL     1      16.824  12.945  18.487  0.00  0.00    +0.009 A 
ATOM     30  C   UNL     1      14.462  12.323  17.139  0.00  0.00    +0.046 A 
ATOM     31  C   UNL     1      16.830  12.801  17.100  0.00  0.00    +0.046 A 
ATOM     33  C   UNL     1      15.649  12.489  16.427  0.00  0.00    +0.120 A 
BRANCH  33   4
ATOM      4  O   UNL     1      15.654  12.350  15.072  0.00  0.00    -0.495 OA
ATOM     34  C   UNL     1      15.897  11.042  14.556  0.00  0.00    +0.277 C 
ENDBRANCH  33   4
ENDBRANCH  23  27
ENDBRANCH   8  23
ENDBRANCH  17  19
ENDBRANCH  16  17
ENDBRANCH  12  16
TORSDOF 10
ENDMDL
MODEL 8
REMARK VINA RESULT:      -6.6      2.293      3.970
REMARK  Name = 45360663
REMARK  12 active torsions:
REMARK  status: ('A' for Active; 'I' for Inactive)
REMARK    1  A    between atoms: O_3  and  C_26
REMARK    2  A    between atoms: O_3  and  C_32
REMARK    3  A    between atoms: O_4  and  C_33
REMARK    4  A    between atoms: O_4  and  C_34
REMARK    5  A    between atoms: N_7  and  C_10
REMARK    6  A    between atoms: N_7  and  C_18
REMARK    7  A    between atoms: N_8  and  C_23
REMARK    8  A    between atoms: C_12  and  C_16
REMARK    9  A    between atoms: C_16  and  C_17
REMARK   10  A    between atoms: C_17  and  C_19
REMARK   11  A    between atoms: C_18  and  C_20
REMARK   12  A    between atoms: C_23  and  C_27
REMARK                            x       y       z     vdW  Elec       q    Type
REMARK                         _______ _______ _______ _____ _____    ______ ____
ROOT
ATOM      1  O   UNL     1     -17.584   8.295  22.169  0.00  0.00    -0.274 OA
ATOM      5  N   UNL     1     -15.399   5.682  23.479  0.00  0.00    -0.286 NA
ATOM      6  N   UNL     1     -18.014   6.095  22.551  0.00  0.00    -0.313 N 
ATOM      9  C   UNL     1     -15.836   7.067  23.262  0.00  0.00    +0.145 C 
ATOM     10  C   UNL     1     -13.758   6.539  22.123  0.00  0.00    +0.070 C 
ATOM     11  C   UNL     1     -14.738   7.682  22.379  0.00  0.00    +0.048 C 
ATOM     12  C   UNL     1     -16.458   4.779  23.918  0.00  0.00    +0.075 C 
ATOM     13  C   UNL     1     -14.609   5.290  22.314  0.00  0.00    +0.104 C 
ATOM     14  C   UNL     1     -17.599   4.759  22.913  0.00  0.00    +0.123 C 
ATOM     15  C   UNL     1     -17.201   7.202  22.596  0.00  0.00    +0.230 C 
ATOM     35  H   UNL     1     -18.929   6.202  22.124  0.00  0.00    +0.149 HD
ENDROOT
BRANCH  10   7
ATOM      7  N   UNL     1     -13.124   6.613  20.815  0.00  0.00    -0.308 NA
ATOM     36  H   UNL     1     -13.164   5.693  20.374  0.00  0.00    +0.123 HD
BRANCH   7  18
ATOM     18  C   UNL     1     -11.730   7.021  20.933  0.00  0.00    +0.116 C 
BRANCH  18  20
ATOM     20  C   UNL     1     -11.277   7.820  19.746  0.00  0.00    -0.033 A 
ATOM     21  C   UNL     1     -10.765   9.106  19.925  0.00  0.00    +0.008 A 
ATOM     22  C   UNL     1     -11.367   7.278  18.464  0.00  0.00    +0.008 A 
ATOM     24  C   UNL     1     -10.344   9.848  18.821  0.00  0.00    +0.046 A 
ATOM     25  C   UNL     1     -10.945   8.020  17.361  0.00  0.00    +0.046 A 
ATOM     26  C   UNL     1     -10.434   9.305  17.540  0.00  0.00    +0.120 A 
BRANCH  26   3
ATOM      3  O   UNL     1     -10.023  10.029  16.463  0.00  0.00    -0.495 OA
ATOM     32  C   UNL     1     -10.967  10.931  15.887  0.00  0.00    +0.277 C 
ENDBRANCH  26   3
ENDBRANCH  18  20
ENDBRANCH   7  18
ENDBRANCH  10   7
BRANCH  12  16
ATOM     16  C   UNL     1     -15.952   3.365  24.202  0.00  0.00    +0.029 C 
BRANCH  16  17
ATOM     17  C   UNL     1     -17.086   2.351  24.130  0.00  0.00    +0.097 C 
BRANCH  17  19
ATOM      2  O   UNL     1     -16.908   0.073  24.930  0.00  0.00    -0.276 OA
ATOM      8  N   UNL     1     -16.902   1.813  26.467  0.00  0.00    -0.311 N 
ATOM     19  C   UNL     1     -16.956   1.272  25.191  0.00  0.00    +0.213 C 
ATOM     37  H   UNL     1     -16.976   2.818  26.596  0.00  0.00    +0.149 HD
BRANCH   8  23
ATOM     23  C   UNL     1     -16.780   0.992  27.647  0.00  0.00    +0.139 C 
BRANCH  23  27
ATOM     27  C   UNL     1     -16.111   1.724  28.774  0.00  0.00    -0.030 A 
ATOM     28  C   UNL     1     -15.737   3.059  28.615  0.00  0.00    +0.009 A 
ATOM     29  C   UNL     1     -15.863   1.069  29.981  0.00  0.00    +0.009 A 
ATOM     30  C   UNL     1     -15.116   3.739  29.663  0.00  0.00    +0.046 A 
ATOM     31  C   UNL     1     -15.242   1.750  31.028  0.00  0.00    +0.046 A 
ATOM     33  C   UNL     1     -14.868   3.084  30.868  0.00  0.00    +0.120 A 
BRANCH  33   4
ATOM      4  O   UNL     1     -14.262   3.748  31.891  0.00  0.00    -0.495 OA
ATOM     34  C   UNL     1     -14.655   3.396  33.216  0.00  0.00    +0.277 C 
ENDBRANCH  33   4
ENDBRANCH  23  27
ENDBRANCH   8  23
ENDBRANCH  17  19
ENDBRANCH  16  17
ENDBRANCH  12  16
TORSDOF 10
ENDMDL
MODEL 9
REMARK VINA RESULT:      -6.6     21.813     25.616
REMARK  Name = 45360663
REMARK  12 active torsions:
REMARK  status: ('A' for Active; 'I' for Inactive)
REMARK    1  A    between atoms: O_3  and  C_26
REMARK    2  A    between atoms: O_3  and  C_32
REMARK    3  A    between atoms: O_4  and  C_33
REMARK    4  A    between atoms: O_4  and  C_34
REMARK    5  A    between atoms: N_7  and  C_10
REMARK    6  A    between atoms: N_7  and  C_18
REMARK    7  A    between atoms: N_8  and  C_23
REMARK    8  A    between atoms: C_12  and  C_16
REMARK    9  A    between atoms: C_16  and  C_17
REMARK   10  A    between atoms: C_17  and  C_19
REMARK   11  A    between atoms: C_18  and  C_20
REMARK   12  A    between atoms: C_23  and  C_27
REMARK                            x       y       z     vdW  Elec       q    Type
REMARK                         _______ _______ _______ _____ _____    ______ ____
ROOT
ATOM      1  O   UNL     1      -2.846 -14.546  13.841  0.00  0.00    -0.274 OA
ATOM      5  N   UNL     1      -2.329 -11.257  12.344  0.00  0.00    -0.286 NA
ATOM      6  N   UNL     1      -4.062 -13.461  12.253  0.00  0.00    -0.313 N 
ATOM      9  C   UNL     1      -1.919 -12.478  13.050  0.00  0.00    +0.145 C 
ATOM     10  C   UNL     1      -1.856 -10.500  14.458  0.00  0.00    +0.070 C 
ATOM     11  C   UNL     1      -1.564 -12.000  14.468  0.00  0.00    +0.048 C 
ATOM     12  C   UNL     1      -3.109 -11.497  11.135  0.00  0.00    +0.075 C 
ATOM     13  C   UNL     1      -2.881 -10.345  13.342  0.00  0.00    +0.104 C 
ATOM     14  C   UNL     1      -4.363 -12.298  11.452  0.00  0.00    +0.123 C 
ATOM     15  C   UNL     1      -2.986 -13.567  13.102  0.00  0.00    +0.230 C 
ATOM     35  H   UNL     1      -4.755 -14.203  12.281  0.00  0.00    +0.149 HD
ENDROOT
BRANCH  10   7
ATOM      7  N   UNL     1      -2.320 -10.001  15.744  0.00  0.00    -0.308 NA
ATOM     36  H   UNL     1      -1.520  -9.645  16.269  0.00  0.00    +0.123 HD
BRANCH   7  18
ATOM     18  C   UNL     1      -2.961 -11.058  16.515  0.00  0.00    +0.116 C 
BRANCH  18  20
ATOM     20  C   UNL     1      -4.355 -10.685  16.929  0.00  0.00    -0.033 A 
ATOM     21  C   UNL     1      -5.187 -10.003  16.041  0.00  0.00    +0.008 A 
ATOM     22  C   UNL     1      -4.818 -11.020  18.202  0.00  0.00    +0.008 A 
ATOM     24  C   UNL     1      -6.483  -9.657  16.426  0.00  0.00    +0.046 A 
ATOM     25  C   UNL     1      -6.112 -10.674  18.586  0.00  0.00    +0.046 A 
ATOM     26  C   UNL     1      -6.945  -9.992  17.698  0.00  0.00    +0.120 A 
BRANCH  26   3
ATOM      3  O   UNL     1      -8.209  -9.655  18.073  0.00  0.00    -0.495 OA
ATOM     32  C   UNL     1      -8.942  -8.802  17.195  0.00  0.00    +0.277 C 
ENDBRANCH  26   3
ENDBRANCH  18  20
ENDBRANCH   7  18
ENDBRANCH  10   7
BRANCH  12  16
ATOM     16  C   UNL     1      -3.456 -10.209  10.388  0.00  0.00    +0.029 C 
BRANCH  16  17
ATOM     17  C   UNL     1      -4.889  -9.778  10.669  0.00  0.00    +0.097 C 
BRANCH  17  19
ATOM      2  O   UNL     1      -5.774  -8.149   9.113  0.00  0.00    -0.276 OA
ATOM      8  N   UNL     1      -6.047 -10.409   8.659  0.00  0.00    -0.311 N 
ATOM     19  C   UNL     1      -5.609  -9.329   9.411  0.00  0.00    +0.213 C 
ATOM     37  H   UNL     1      -5.892 -11.356   8.992  0.00  0.00    +0.149 HD
BRANCH   8  23
ATOM     23  C   UNL     1      -6.761 -10.244   7.416  0.00  0.00    +0.139 C 
BRANCH  23  27
ATOM     27  C   UNL     1      -6.056 -10.909   6.270  0.00  0.00    -0.030 A 
ATOM     28  C   UNL     1      -6.670 -10.980   5.019  0.00  0.00    +0.009 A 
ATOM     29  C   UNL     1      -4.785 -11.455   6.455  0.00  0.00    +0.009 A 
ATOM     30  C   UNL     1      -6.014 -11.597   3.954  0.00  0.00    +0.046 A 
ATOM     31  C   UNL     1      -4.130 -12.072   5.390  0.00  0.00    +0.046 A 
ATOM     33  C   UNL     1      -4.744 -12.143   4.140  0.00  0.00    +0.120 A 
BRANCH  33   4
ATOM      4  O   UNL     1      -4.104 -12.745   3.100  0.00  0.00    -0.495 OA
ATOM     34  C   UNL     1      -2.699 -12.523   2.987  0.00  0.00    +0.277 C 
ENDBRANCH  33   4
ENDBRANCH  23  27
ENDBRANCH   8  23
ENDBRANCH  17  19
ENDBRANCH  16  17
ENDBRANCH  12  16
TORSDOF 10
ENDMDL
MODEL 10
REMARK VINA RESULT:      -6.6     19.538     23.242
REMARK  Name = 45360663
REMARK  12 active torsions:
REMARK  status: ('A' for Active; 'I' for Inactive)
REMARK    1  A    between atoms: O_3  and  C_26
REMARK    2  A    between atoms: O_3  and  C_32
REMARK    3  A    between atoms: O_4  and  C_33
REMARK    4  A    between atoms: O_4  and  C_34
REMARK    5  A    between atoms: N_7  and  C_10
REMARK    6  A    between atoms: N_7  and  C_18
REMARK    7  A    between atoms: N_8  and  C_23
REMARK    8  A    between atoms: C_12  and  C_16
REMARK    9  A    between atoms: C_16  and  C_17
REMARK   10  A    between atoms: C_17  and  C_19
REMARK   11  A    between atoms: C_18  and  C_20
REMARK   12  A    between atoms: C_23  and  C_27
REMARK                            x       y       z     vdW  Elec       q    Type
REMARK                         _______ _______ _______ _____ _____    ______ ____
ROOT
ATOM      1  O   UNL     1      -3.137 -14.347  11.093  0.00  0.00    -0.274 OA
ATOM      5  N   UNL     1      -3.674 -10.827  11.898  0.00  0.00    -0.286 NA
ATOM      6  N   UNL     1      -4.943 -13.022  10.696  0.00  0.00    -0.313 N 
ATOM      9  C   UNL     1      -2.866 -12.025  11.636  0.00  0.00    +0.145 C 
ATOM     10  C   UNL     1      -2.728 -11.272  13.941  0.00  0.00    +0.070 C 
ATOM     11  C   UNL     1      -2.190 -12.334  12.982  0.00  0.00    +0.048 C 
ATOM     12  C   UNL     1      -4.728 -10.588  10.918  0.00  0.00    +0.075 C 
ATOM     13  C   UNL     1      -4.051 -10.861  13.309  0.00  0.00    +0.104 C 
ATOM     14  C   UNL     1      -5.669 -11.781  10.835  0.00  0.00    +0.123 C 
ATOM     15  C   UNL     1      -3.661 -13.230  11.145  0.00  0.00    +0.230 C 
ATOM     35  H   UNL     1      -5.456 -13.828  10.352  0.00  0.00    +0.149 HD
ENDROOT
BRANCH  10   7
ATOM      7  N   UNL     1      -2.863 -11.754  15.307  0.00  0.00    -0.308 NA
ATOM     36  H   UNL     1      -3.699 -12.336  15.372  0.00  0.00    +0.123 HD
BRANCH   7  18
ATOM     18  C   UNL     1      -2.984 -10.643  16.243  0.00  0.00    +0.116 C 
BRANCH  18  20
ATOM     20  C   UNL     1      -4.153 -10.814  17.169  0.00  0.00    -0.033 A 
ATOM     21  C   UNL     1      -5.357 -10.164  16.901  0.00  0.00    +0.008 A 
ATOM     22  C   UNL     1      -4.034 -11.624  18.299  0.00  0.00    +0.008 A 
ATOM     24  C   UNL     1      -6.443 -10.324  17.762  0.00  0.00    +0.046 A 
ATOM     25  C   UNL     1      -5.120 -11.783  19.160  0.00  0.00    +0.046 A 
ATOM     26  C   UNL     1      -6.324 -11.133  18.891  0.00  0.00    +0.120 A 
BRANCH  26   3
ATOM      3  O   UNL     1      -7.384 -11.289  19.731  0.00  0.00    -0.495 OA
ATOM     32  C   UNL     1      -7.868 -12.617  19.926  0.00  0.00    +0.277 C 
ENDBRANCH  26   3
ENDBRANCH  18  20
ENDBRANCH   7  18
ENDBRANCH  10   7
BRANCH  12  16
ATOM     16  C   UNL     1      -5.502  -9.297  11.181  0.00  0.00    +0.029 C 
BRANCH  16  17
ATOM     17  C   UNL     1      -5.369  -8.328  10.014  0.00  0.00    +0.097 C 
BRANCH  17  19
ATOM      2  O   UNL     1      -7.183  -9.404   8.826  0.00  0.00    -0.276 OA
ATOM      8  N   UNL     1      -6.898  -7.110   8.612  0.00  0.00    -0.311 N 
ATOM     19  C   UNL     1      -6.577  -8.370   9.096  0.00  0.00    +0.213 C 
ATOM     37  H   UNL     1      -6.326  -6.309   8.865  0.00  0.00    +0.149 HD
BRANCH   8  23
ATOM     23  C   UNL     1      -8.007  -6.887   7.717  0.00  0.00    +0.139 C 
BRANCH  23  27
ATOM     27  C   UNL     1      -9.216  -6.367   8.439  0.00  0.00    -0.030 A 
ATOM     28  C   UNL     1     -10.119  -7.258   9.020  0.00  0.00    +0.009 A 
ATOM     29  C   UNL     1      -9.436  -4.992   8.530  0.00  0.00    +0.009 A 
ATOM     30  C   UNL     1     -11.242  -6.774   9.692  0.00  0.00    +0.046 A 
ATOM     31  C   UNL     1     -10.559  -4.509   9.201  0.00  0.00    +0.046 A 
ATOM     33  C   UNL     1     -11.462  -5.400   9.781  0.00  0.00    +0.120 A 
BRANCH  33   4
ATOM      4  O   UNL     1     -12.557  -4.928  10.437  0.00  0.00    -0.495 OA
ATOM     34  C   UNL     1     -12.476  -3.607  10.969  0.00  0.00    +0.277 C 
ENDBRANCH  33   4
ENDBRANCH  23  27
ENDBRANCH   8  23
ENDBRANCH  17  19
ENDBRANCH  16  17
ENDBRANCH  12  16
TORSDOF 10
ENDMDL
