MODEL 1
REMARK VINA RESULT:      -7.4      0.000      0.000
REMARK  Name = 45361408
REMARK  8 active torsions:
REMARK  status: ('A' for Active; 'I' for Inactive)
REMARK    1  A    between atoms: O_1  and  C_9
REMARK    2  A    between atoms: N_4  and  C_13
REMARK    3  A    between atoms: C_6  and  C_16
REMARK    4  A    between atoms: C_8  and  C_18
REMARK    5  A    between atoms: C_11  and  C_17
REMARK    6  A    between atoms: C_17  and  C_19
REMARK    7  A    between atoms: C_17  and  C_20
REMARK    8  A    between atoms: C_21  and  C_26
REMARK                            x       y       z     vdW  Elec       q    Type
REMARK                         _______ _______ _______ _____ _____    ______ ____
ROOT
ATOM      6  C   UNL     1      -4.811 -11.320  17.357  0.00  0.00    -0.027 C 
ATOM      7  C   UNL     1      -5.784 -10.558  16.397  0.00  0.00    +0.028 C 
ATOM      8  C   UNL     1      -7.253 -10.585  16.953  0.00  0.00    +0.012 C 
ATOM      9  C   UNL     1      -5.617 -11.038  14.926  0.00  0.00    +0.122 C 
ATOM     10  C   UNL     1      -3.360 -11.178  16.840  0.00  0.00    +0.007 C 
ATOM     11  C   UNL     1      -4.146 -10.991  14.450  0.00  0.00    +0.029 C 
ATOM     12  C   UNL     1      -4.877 -10.673  18.760  0.00  0.00    +0.009 C 
ATOM     13  C   UNL     1      -7.295 -10.002  18.393  0.00  0.00    +0.076 C 
ATOM     14  C   UNL     1      -3.184 -11.683  15.415  0.00  0.00    +0.007 C 
ATOM     15  C   UNL     1      -6.285 -10.647  19.340  0.00  0.00    +0.023 C 
ATOM     16  C   UNL     1      -5.153 -12.828  17.474  0.00  0.00    +0.011 C 
ATOM     18  C   UNL     1      -8.259  -9.827  16.070  0.00  0.00    +0.010 C 
ENDROOT
BRANCH  13   4
ATOM      3  O   UNL     1      -8.551 -12.409  19.325  0.00  0.00    -0.270 OA
ATOM      4  N   UNL     1      -8.614 -10.117  18.980  0.00  0.00    -0.308 N 
ATOM     21  C   UNL     1      -9.133 -11.330  19.399  0.00  0.00    +0.244 C 
ATOM     32  H   UNL     1      -9.195  -9.287  18.967  0.00  0.00    +0.149 HD
BRANCH  21  26
ATOM     26  C   UNL     1     -10.510 -11.285  19.956  0.00  0.00    +0.037 A 
ATOM     27  C   UNL     1     -11.111 -12.452  20.427  0.00  0.00    +0.013 A 
ATOM     28  C   UNL     1     -11.201 -10.074  20.007  0.00  0.00    +0.013 A 
ATOM     29  C   UNL     1     -12.403 -12.409  20.949  0.00  0.00    +0.001 A 
ATOM     30  C   UNL     1     -12.494 -10.032  20.530  0.00  0.00    +0.001 A 
ATOM     31  C   UNL     1     -13.095 -11.199  21.001  0.00  0.00    +0.000 A 
ENDBRANCH  21  26
ENDBRANCH  13   4
BRANCH   9   1
ATOM      1  O   UNL     1      -6.355 -10.179  14.057  0.00  0.00    -0.391 OA
ATOM     33  H   UNL     1      -5.723  -9.712  13.484  0.00  0.00    +0.210 HD
ENDBRANCH   9   1
BRANCH  11  17
ATOM     17  C   UNL     1      -3.984 -11.590  13.047  0.00  0.00    +0.078 C 
ATOM     19  C   UNL     1      -3.309 -12.948  13.106  0.00  0.00    +0.017 C 
BRANCH  17  20
ATOM      2  O   UNL     1      -1.981 -10.433  12.479  0.00  0.00    -0.275 OA
ATOM      5  N   UNL     1      -3.838 -10.042  11.158  0.00  0.00    -0.301 N 
ATOM     20  C   UNL     1      -3.166 -10.640  12.209  0.00  0.00    +0.219 C 
ATOM     22  C   UNL     1      -3.190  -9.097  10.261  0.00  0.00    +0.108 C 
ATOM     23  C   UNL     1      -5.233 -10.248  10.785  0.00  0.00    +0.108 C 
ATOM     24  C   UNL     1      -4.160  -8.951   9.099  0.00  0.00    +0.020 C 
ATOM     25  C   UNL     1      -5.516  -9.159   9.760  0.00  0.00    +0.020 C 
ENDBRANCH  17  20
ENDBRANCH  11  17
TORSDOF 5
ENDMDL
MODEL 2
REMARK VINA RESULT:      -7.1     25.538     27.971
REMARK  Name = 45361408
REMARK  8 active torsions:
REMARK  status: ('A' for Active; 'I' for Inactive)
REMARK    1  A    between atoms: O_1  and  C_9
REMARK    2  A    between atoms: N_4  and  C_13
REMARK    3  A    between atoms: C_6  and  C_16
REMARK    4  A    between atoms: C_8  and  C_18
REMARK    5  A    between atoms: C_11  and  C_17
REMARK    6  A    between atoms: C_17  and  C_19
REMARK    7  A    between atoms: C_17  and  C_20
REMARK    8  A    between atoms: C_21  and  C_26
REMARK                            x       y       z     vdW  Elec       q    Type
REMARK                         _______ _______ _______ _____ _____    ______ ____
ROOT
ATOM      6  C   UNL     1       9.489   5.926   5.955  0.00  0.00    -0.027 C 
ATOM      7  C   UNL     1      10.483   7.044   5.494  0.00  0.00    +0.028 C 
ATOM      8  C   UNL     1       9.995   8.458   5.975  0.00  0.00    +0.012 C 
ATOM      9  C   UNL     1      10.798   6.927   3.975  0.00  0.00    +0.122 C 
ATOM     10  C   UNL     1      10.055   4.540   5.564  0.00  0.00    +0.007 C 
ATOM     11  C   UNL     1      11.264   5.509   3.572  0.00  0.00    +0.029 C 
ATOM     12  C   UNL     1       9.364   5.967   7.495  0.00  0.00    +0.009 C 
ATOM     13  C   UNL     1       9.801   8.465   7.517  0.00  0.00    +0.076 C 
ATOM     14  C   UNL     1      10.327   4.409   4.072  0.00  0.00    +0.007 C 
ATOM     15  C   UNL     1       8.920   7.323   8.024  0.00  0.00    +0.023 C 
ATOM     16  C   UNL     1       8.082   6.086   5.325  0.00  0.00    +0.011 C 
ATOM     18  C   UNL     1      10.943   9.603   5.580  0.00  0.00    +0.010 C 
ENDROOT
BRANCH  13   4
ATOM      3  O   UNL     1      11.165  10.500   9.014  0.00  0.00    -0.270 OA
ATOM      4  N   UNL     1       9.242   9.717   7.982  0.00  0.00    -0.308 N 
ATOM     21  C   UNL     1       9.985  10.638   8.701  0.00  0.00    +0.244 C 
ATOM     32  H   UNL     1       8.244   9.846   7.860  0.00  0.00    +0.149 HD
BRANCH  21  26
ATOM     26  C   UNL     1       9.260  11.861   9.128  0.00  0.00    +0.037 A 
ATOM     27  C   UNL     1       9.286  13.004   8.328  0.00  0.00    +0.013 A 
ATOM     28  C   UNL     1       8.550  11.867  10.330  0.00  0.00    +0.013 A 
ATOM     29  C   UNL     1       8.604  14.152   8.728  0.00  0.00    +0.001 A 
ATOM     30  C   UNL     1       7.868  13.016  10.730  0.00  0.00    +0.001 A 
ATOM     31  C   UNL     1       7.895  14.158   9.930  0.00  0.00    +0.000 A 
ENDBRANCH  21  26
ENDBRANCH  13   4
BRANCH   9   1
ATOM      1  O   UNL     1      11.862   7.818   3.639  0.00  0.00    -0.391 OA
ATOM     33  H   UNL     1      12.391   7.405   2.935  0.00  0.00    +0.210 HD
ENDBRANCH   9   1
BRANCH  11  17
ATOM     17  C   UNL     1      11.443   5.379   2.055  0.00  0.00    +0.078 C 
ATOM     19  C   UNL     1      10.159   4.921   1.388  0.00  0.00    +0.017 C 
BRANCH  17  20
ATOM      2  O   UNL     1      12.371   3.186   1.979  0.00  0.00    -0.275 OA
ATOM      5  N   UNL     1      13.733   4.932   1.319  0.00  0.00    -0.301 N 
ATOM     20  C   UNL     1      12.548   4.390   1.783  0.00  0.00    +0.219 C 
ATOM     22  C   UNL     1      14.896   4.112   1.016  0.00  0.00    +0.108 C 
ATOM     23  C   UNL     1      14.005   6.342   1.062  0.00  0.00    +0.108 C 
ATOM     24  C   UNL     1      15.826   5.038   0.248  0.00  0.00    +0.020 C 
ATOM     25  C   UNL     1      15.510   6.404   0.844  0.00  0.00    +0.020 C 
ENDBRANCH  17  20
ENDBRANCH  11  17
TORSDOF 5
ENDMDL
MODEL 3
REMARK VINA RESULT:      -7.0     18.631     21.888
REMARK  Name = 45361408
REMARK  8 active torsions:
REMARK  status: ('A' for Active; 'I' for Inactive)
REMARK    1  A    between atoms: O_1  and  C_9
REMARK    2  A    between atoms: N_4  and  C_13
REMARK    3  A    between atoms: C_6  and  C_16
REMARK    4  A    between atoms: C_8  and  C_18
REMARK    5  A    between atoms: C_11  and  C_17
REMARK    6  A    between atoms: C_17  and  C_19
REMARK    7  A    between atoms: C_17  and  C_20
REMARK    8  A    between atoms: C_21  and  C_26
REMARK                            x       y       z     vdW  Elec       q    Type
REMARK                         _______ _______ _______ _____ _____    ______ ____
ROOT
ATOM      6  C   UNL     1     -17.196   5.772  22.560  0.00  0.00    -0.027 C 
ATOM      7  C   UNL     1     -15.820   5.345  23.170  0.00  0.00    +0.028 C 
ATOM      8  C   UNL     1     -14.649   5.626  22.161  0.00  0.00    +0.012 C 
ATOM      9  C   UNL     1     -15.879   3.897  23.738  0.00  0.00    +0.122 C 
ATOM     10  C   UNL     1     -18.309   5.587  23.618  0.00  0.00    +0.007 C 
ATOM     11  C   UNL     1     -17.058   3.691  24.717  0.00  0.00    +0.029 C 
ATOM     12  C   UNL     1     -17.140   7.273  22.192  0.00  0.00    +0.009 C 
ATOM     13  C   UNL     1     -14.649   7.123  21.739  0.00  0.00    +0.076 C 
ATOM     14  C   UNL     1     -18.396   4.163  24.147  0.00  0.00    +0.007 C 
ATOM     15  C   UNL     1     -16.006   7.611  21.234  0.00  0.00    +0.023 C 
ATOM     16  C   UNL     1     -17.567   4.951  21.299  0.00  0.00    +0.011 C 
ATOM     18  C   UNL     1     -13.261   5.255  22.709  0.00  0.00    +0.010 C 
ENDROOT
BRANCH  13   4
ATOM      3  O   UNL     1     -12.719   9.248  21.749  0.00  0.00    -0.270 OA
ATOM      4  N   UNL     1     -13.656   7.393  20.721  0.00  0.00    -0.308 N 
ATOM     21  C   UNL     1     -12.766   8.449  20.818  0.00  0.00    +0.244 C 
ATOM     32  H   UNL     1     -13.711   6.844  19.870  0.00  0.00    +0.149 HD
BRANCH  21  26
ATOM     26  C   UNL     1     -11.826   8.608  19.679  0.00  0.00    +0.037 A 
ATOM     27  C   UNL     1     -10.960   9.700  19.634  0.00  0.00    +0.013 A 
ATOM     28  C   UNL     1     -11.811   7.663  18.651  0.00  0.00    +0.013 A 
ATOM     29  C   UNL     1     -10.077   9.848  18.565  0.00  0.00    +0.001 A 
ATOM     30  C   UNL     1     -10.928   7.812  17.582  0.00  0.00    +0.001 A 
ATOM     31  C   UNL     1     -10.062   8.903  17.538  0.00  0.00    +0.000 A 
ENDBRANCH  21  26
ENDBRANCH  13   4
BRANCH   9   1
ATOM      1  O   UNL     1     -14.686   3.624  24.472  0.00  0.00    -0.391 OA
ATOM     33  H   UNL     1     -14.880   2.919  25.113  0.00  0.00    +0.210 HD
ENDBRANCH   9   1
BRANCH  11  17
ATOM     17  C   UNL     1     -17.178   2.229  25.162  0.00  0.00    +0.078 C 
ATOM     19  C   UNL     1     -17.877   1.390  24.108  0.00  0.00    +0.017 C 
BRANCH  17  20
ATOM      2  O   UNL     1     -19.140   1.862  26.463  0.00  0.00    -0.275 OA
ATOM      5  N   UNL     1     -17.233   2.519  27.591  0.00  0.00    -0.301 N 
ATOM     20  C   UNL     1     -17.949   2.181  26.457  0.00  0.00    +0.219 C 
ATOM     22  C   UNL     1     -17.835   2.528  28.916  0.00  0.00    +0.108 C 
ATOM     23  C   UNL     1     -15.826   2.900  27.652  0.00  0.00    +0.108 C 
ATOM     24  C   UNL     1     -16.655   2.627  29.869  0.00  0.00    +0.020 C 
ATOM     25  C   UNL     1     -15.637   3.428  29.067  0.00  0.00    +0.020 C 
ENDBRANCH  17  20
ENDBRANCH  11  17
TORSDOF 5
ENDMDL
MODEL 4
REMARK VINA RESULT:      -6.9     28.992     31.079
REMARK  Name = 45361408
REMARK  8 active torsions:
REMARK  status: ('A' for Active; 'I' for Inactive)
REMARK    1  A    between atoms: O_1  and  C_9
REMARK    2  A    between atoms: N_4  and  C_13
REMARK    3  A    between atoms: C_6  and  C_16
REMARK    4  A    between atoms: C_8  and  C_18
REMARK    5  A    between atoms: C_11  and  C_17
REMARK    6  A    between atoms: C_17  and  C_19
REMARK    7  A    between atoms: C_17  and  C_20
REMARK    8  A    between atoms: C_21  and  C_26
REMARK                            x       y       z     vdW  Elec       q    Type
REMARK                         _______ _______ _______ _____ _____    ______ ____
ROOT
ATOM      6  C   UNL     1      14.559   7.707  20.585  0.00  0.00    -0.027 C 
ATOM      7  C   UNL     1      15.310   8.611  21.618  0.00  0.00    +0.028 C 
ATOM      8  C   UNL     1      14.638  10.028  21.713  0.00  0.00    +0.012 C 
ATOM      9  C   UNL     1      16.844   8.615  21.355  0.00  0.00    +0.122 C 
ATOM     10  C   UNL     1      15.175   6.288  20.599  0.00  0.00    +0.007 C 
ATOM     11  C   UNL     1      17.435   7.189  21.267  0.00  0.00    +0.029 C 
ATOM     12  C   UNL     1      13.077   7.582  21.008  0.00  0.00    +0.009 C 
ATOM     13  C   UNL     1      13.130   9.887  22.065  0.00  0.00    +0.076 C 
ATOM     14  C   UNL     1      16.667   6.285  20.303  0.00  0.00    +0.007 C 
ATOM     15  C   UNL     1      12.379   8.928  21.142  0.00  0.00    +0.023 C 
ATOM     16  C   UNL     1      14.632   8.267  19.142  0.00  0.00    +0.011 C 
ATOM     18  C   UNL     1      15.310  10.961  22.735  0.00  0.00    +0.010 C 
ENDROOT
BRANCH  13   4
ATOM      3  O   UNL     1      11.108  10.782  23.895  0.00  0.00    -0.270 OA
ATOM      4  N   UNL     1      12.453  11.167  22.047  0.00  0.00    -0.308 N 
ATOM     21  C   UNL     1      11.486  11.506  22.978  0.00  0.00    +0.244 C 
ATOM     32  H   UNL     1      12.632  11.768  21.250  0.00  0.00    +0.149 HD
BRANCH  21  26
ATOM     26  C   UNL     1      10.867  12.845  22.807  0.00  0.00    +0.037 A 
ATOM     27  C   UNL     1      10.277  13.486  23.897  0.00  0.00    +0.013 A 
ATOM     28  C   UNL     1      10.877  13.463  21.556  0.00  0.00    +0.013 A 
ATOM     29  C   UNL     1       9.697  14.743  23.737  0.00  0.00    +0.001 A 
ATOM     30  C   UNL     1      10.296  14.721  21.396  0.00  0.00    +0.001 A 
ATOM     31  C   UNL     1       9.706  15.361  22.486  0.00  0.00    +0.000 A 
ENDBRANCH  21  26
ENDBRANCH  13   4
BRANCH   9   1
ATOM      1  O   UNL     1      17.511   9.268  22.435  0.00  0.00    -0.391 OA
ATOM     33  H   UNL     1      16.946   9.997  22.744  0.00  0.00    +0.210 HD
ENDBRANCH   9   1
BRANCH  11  17
ATOM     17  C   UNL     1      18.918   7.212  20.877  0.00  0.00    +0.078 C 
ATOM     19  C   UNL     1      19.283   6.002  20.038  0.00  0.00    +0.017 C 
BRANCH  17  20
ATOM      2  O   UNL     1      19.595   6.374  23.001  0.00  0.00    -0.275 OA
ATOM      5  N   UNL     1      20.650   8.282  22.234  0.00  0.00    -0.301 N 
ATOM     20  C   UNL     1      19.746   7.240  22.136  0.00  0.00    +0.219 C 
ATOM     22  C   UNL     1      21.517   8.452  23.390  0.00  0.00    +0.108 C 
ATOM     23  C   UNL     1      20.880   9.332  21.248  0.00  0.00    +0.108 C 
ATOM     24  C   UNL     1      22.541   9.486  22.948  0.00  0.00    +0.020 C 
ATOM     25  C   UNL     1      21.752  10.348  21.971  0.00  0.00    +0.020 C 
ENDBRANCH  17  20
ENDBRANCH  11  17
TORSDOF 5
ENDMDL
MODEL 5
REMARK VINA RESULT:      -6.9     29.654     32.627
REMARK  Name = 45361408
REMARK  8 active torsions:
REMARK  status: ('A' for Active; 'I' for Inactive)
REMARK    1  A    between atoms: O_1  and  C_9
REMARK    2  A    between atoms: N_4  and  C_13
REMARK    3  A    between atoms: C_6  and  C_16
REMARK    4  A    between atoms: C_8  and  C_18
REMARK    5  A    between atoms: C_11  and  C_17
REMARK    6  A    between atoms: C_17  and  C_19
REMARK    7  A    between atoms: C_17  and  C_20
REMARK    8  A    between atoms: C_21  and  C_26
REMARK                            x       y       z     vdW  Elec       q    Type
REMARK                         _______ _______ _______ _____ _____    ______ ____
ROOT
ATOM      6  C   UNL     1      19.312   9.885  22.034  0.00  0.00    -0.027 C 
ATOM      7  C   UNL     1      18.469   8.628  21.635  0.00  0.00    +0.028 C 
ATOM      8  C   UNL     1      19.388   7.512  21.019  0.00  0.00    +0.012 C 
ATOM      9  C   UNL     1      17.235   9.026  20.775  0.00  0.00    +0.122 C 
ATOM     10  C   UNL     1      18.398  10.916  22.737  0.00  0.00    +0.007 C 
ATOM     11  C   UNL     1      16.382  10.133  21.437  0.00  0.00    +0.029 C 
ATOM     12  C   UNL     1      20.405   9.459  23.041  0.00  0.00    +0.009 C 
ATOM     13  C   UNL     1      20.528   7.145  22.011  0.00  0.00    +0.076 C 
ATOM     14  C   UNL     1      17.211  11.338  21.883  0.00  0.00    +0.007 C 
ATOM     15  C   UNL     1      21.312   8.359  22.510  0.00  0.00    +0.023 C 
ATOM     16  C   UNL     1      19.982  10.564  20.812  0.00  0.00    +0.011 C 
ATOM     18  C   UNL     1      18.626   6.233  20.630  0.00  0.00    +0.010 C 
ENDROOT
BRANCH  13   4
ATOM      3  O   UNL     1      21.566   4.775  23.254  0.00  0.00    -0.270 OA
ATOM      4  N   UNL     1      21.462   6.203  21.430  0.00  0.00    -0.308 N 
ATOM     21  C   UNL     1      21.905   5.084  22.114  0.00  0.00    +0.244 C 
ATOM     32  H   UNL     1      21.872   6.455  20.538  0.00  0.00    +0.149 HD
BRANCH  21  26
ATOM     26  C   UNL     1      22.881   4.230  21.391  0.00  0.00    +0.037 A 
ATOM     27  C   UNL     1      22.942   2.861  21.654  0.00  0.00    +0.013 A 
ATOM     28  C   UNL     1      23.738   4.797  20.446  0.00  0.00    +0.013 A 
ATOM     29  C   UNL     1      23.858   2.060  20.974  0.00  0.00    +0.001 A 
ATOM     30  C   UNL     1      24.654   3.995  19.766  0.00  0.00    +0.001 A 
ATOM     31  C   UNL     1      24.715   2.627  20.030  0.00  0.00    +0.000 A 
ENDBRANCH  21  26
ENDBRANCH  13   4
BRANCH   9   1
ATOM      1  O   UNL     1      16.381   7.894  20.614  0.00  0.00    -0.391 OA
ATOM     33  H   UNL     1      15.488   8.216  20.402  0.00  0.00    +0.210 HD
ENDBRANCH   9   1
BRANCH  11  17
ATOM     17  C   UNL     1      15.248  10.604  20.518  0.00  0.00    +0.078 C 
ATOM     19  C   UNL     1      15.446  12.048  20.098  0.00  0.00    +0.017 C 
BRANCH  17  20
ATOM      2  O   UNL     1      13.731  11.078  22.292  0.00  0.00    -0.275 OA
ATOM      5  N   UNL     1      13.034   9.577  20.679  0.00  0.00    -0.301 N 
ATOM     20  C   UNL     1      13.940  10.451  21.251  0.00  0.00    +0.219 C 
ATOM     22  C   UNL     1      11.729   9.315  21.269  0.00  0.00    +0.108 C 
ATOM     23  C   UNL     1      13.217   8.810  19.451  0.00  0.00    +0.108 C 
ATOM     24  C   UNL     1      10.960   8.582  20.180  0.00  0.00    +0.020 C 
ATOM     25  C   UNL     1      12.056   7.826  19.442  0.00  0.00    +0.020 C 
ENDBRANCH  17  20
ENDBRANCH  11  17
TORSDOF 5
ENDMDL
MODEL 6
REMARK VINA RESULT:      -6.9     29.645     32.035
REMARK  Name = 45361408
REMARK  8 active torsions:
REMARK  status: ('A' for Active; 'I' for Inactive)
REMARK    1  A    between atoms: O_1  and  C_9
REMARK    2  A    between atoms: N_4  and  C_13
REMARK    3  A    between atoms: C_6  and  C_16
REMARK    4  A    between atoms: C_8  and  C_18
REMARK    5  A    between atoms: C_11  and  C_17
REMARK    6  A    between atoms: C_17  and  C_19
REMARK    7  A    between atoms: C_17  and  C_20
REMARK    8  A    between atoms: C_21  and  C_26
REMARK                            x       y       z     vdW  Elec       q    Type
REMARK                         _______ _______ _______ _____ _____    ______ ____
ROOT
ATOM      6  C   UNL     1      19.719   9.509  21.566  0.00  0.00    -0.027 C 
ATOM      7  C   UNL     1      19.416   8.053  21.080  0.00  0.00    +0.028 C 
ATOM      8  C   UNL     1      17.924   7.663  21.382  0.00  0.00    +0.012 C 
ATOM      9  C   UNL     1      20.487   7.050  21.598  0.00  0.00    +0.122 C 
ATOM     10  C   UNL     1      21.158   9.900  21.153  0.00  0.00    +0.007 C 
ATOM     11  C   UNL     1      21.929   7.501  21.272  0.00  0.00    +0.029 C 
ATOM     12  C   UNL     1      18.746  10.487  20.868  0.00  0.00    +0.009 C 
ATOM     13  C   UNL     1      16.956   8.695  20.739  0.00  0.00    +0.076 C 
ATOM     14  C   UNL     1      22.212   8.943  21.691  0.00  0.00    +0.007 C 
ATOM     15  C   UNL     1      17.282  10.143  21.104  0.00  0.00    +0.023 C 
ATOM     16  C   UNL     1      19.583   9.663  23.102  0.00  0.00    +0.011 C 
ATOM     18  C   UNL     1      17.548   6.250  20.903  0.00  0.00    +0.010 C 
ENDROOT
BRANCH  13   4
ATOM      3  O   UNL     1      14.708   8.632  18.954  0.00  0.00    -0.270 OA
ATOM      4  N   UNL     1      15.577   8.431  21.094  0.00  0.00    -0.308 N 
ATOM     21  C   UNL     1      14.559   8.424  20.156  0.00  0.00    +0.244 C 
ATOM     32  H   UNL     1      15.364   8.365  22.084  0.00  0.00    +0.149 HD
BRANCH  21  26
ATOM     26  C   UNL     1      13.196   8.163  20.684  0.00  0.00    +0.037 A 
ATOM     27  C   UNL     1      12.348   9.229  20.986  0.00  0.00    +0.013 A 
ATOM     28  C   UNL     1      12.763   6.851  20.879  0.00  0.00    +0.013 A 
ATOM     29  C   UNL     1      11.068   8.984  21.481  0.00  0.00    +0.001 A 
ATOM     30  C   UNL     1      11.482   6.606  21.374  0.00  0.00    +0.001 A 
ATOM     31  C   UNL     1      10.635   7.672  21.676  0.00  0.00    +0.000 A 
ENDBRANCH  21  26
ENDBRANCH  13   4
BRANCH   9   1
ATOM      1  O   UNL     1      20.301   5.784  20.964  0.00  0.00    -0.391 OA
ATOM     33  H   UNL     1      19.373   5.722  20.678  0.00  0.00    +0.210 HD
ENDBRANCH   9   1
BRANCH  11  17
ATOM     17  C   UNL     1      22.972   6.570  21.903  0.00  0.00    +0.078 C 
ATOM     19  C   UNL     1      23.790   7.296  22.955  0.00  0.00    +0.017 C 
BRANCH  17  20
ATOM      2  O   UNL     1      24.489   6.830  20.085  0.00  0.00    -0.275 OA
ATOM      5  N   UNL     1      23.943   4.672  20.704  0.00  0.00    -0.301 N 
ATOM     20  C   UNL     1      23.874   6.048  20.814  0.00  0.00    +0.219 C 
ATOM     22  C   UNL     1      24.764   4.013  19.699  0.00  0.00    +0.108 C 
ATOM     23  C   UNL     1      23.247   3.695  21.534  0.00  0.00    +0.108 C 
ATOM     24  C   UNL     1      24.805   2.557  20.136  0.00  0.00    +0.020 C 
ATOM     25  C   UNL     1      23.455   2.369  20.816  0.00  0.00    +0.020 C 
ENDBRANCH  17  20
ENDBRANCH  11  17
TORSDOF 5
ENDMDL
MODEL 7
REMARK VINA RESULT:      -6.9      4.108      5.910
REMARK  Name = 45361408
REMARK  8 active torsions:
REMARK  status: ('A' for Active; 'I' for Inactive)
REMARK    1  A    between atoms: O_1  and  C_9
REMARK    2  A    between atoms: N_4  and  C_13
REMARK    3  A    between atoms: C_6  and  C_16
REMARK    4  A    between atoms: C_8  and  C_18
REMARK    5  A    between atoms: C_11  and  C_17
REMARK    6  A    between atoms: C_17  and  C_19
REMARK    7  A    between atoms: C_17  and  C_20
REMARK    8  A    between atoms: C_21  and  C_26
REMARK                            x       y       z     vdW  Elec       q    Type
REMARK                         _______ _______ _______ _____ _____    ______ ____
ROOT
ATOM      6  C   UNL     1      -9.504 -10.843  18.381  0.00  0.00    -0.027 C 
ATOM      7  C   UNL     1      -8.821  -9.936  17.304  0.00  0.00    +0.028 C 
ATOM      8  C   UNL     1      -9.894  -9.298  16.350  0.00  0.00    +0.012 C 
ATOM      9  C   UNL     1      -7.655 -10.683  16.594  0.00  0.00    +0.122 C 
ATOM     10  C   UNL     1      -8.433 -11.363  19.369  0.00  0.00    +0.007 C 
ATOM     11  C   UNL     1      -6.643 -11.291  17.593  0.00  0.00    +0.029 C 
ATOM     12  C   UNL     1     -10.516  -9.995  19.186  0.00  0.00    +0.009 C 
ATOM     13  C   UNL     1     -10.949  -8.510  17.176  0.00  0.00    +0.076 C 
ATOM     14  C   UNL     1      -7.312 -12.129  18.682  0.00  0.00    +0.007 C 
ATOM     15  C   UNL     1     -11.567  -9.329  18.309  0.00  0.00    +0.023 C 
ATOM     16  C   UNL     1     -10.237 -12.057  17.757  0.00  0.00    +0.011 C 
ATOM     18  C   UNL     1      -9.292  -8.369  15.281  0.00  0.00    +0.010 C 
ENDROOT
BRANCH  13   4
ATOM      3  O   UNL     1     -11.328  -5.792  16.334  0.00  0.00    -0.270 OA
ATOM      4  N   UNL     1     -12.018  -8.005  16.339  0.00  0.00    -0.308 N 
ATOM     21  C   UNL     1     -12.114  -6.670  15.987  0.00  0.00    +0.244 C 
ATOM     32  H   UNL     1     -12.766  -8.652  16.111  0.00  0.00    +0.149 HD
BRANCH  21  26
ATOM     26  C   UNL     1     -13.283  -6.307  15.146  0.00  0.00    +0.037 A 
ATOM     27  C   UNL     1     -13.154  -5.334  14.154  0.00  0.00    +0.013 A 
ATOM     28  C   UNL     1     -14.510  -6.940  15.346  0.00  0.00    +0.013 A 
ATOM     29  C   UNL     1     -14.251  -4.994  13.364  0.00  0.00    +0.001 A 
ATOM     30  C   UNL     1     -15.607  -6.599  14.555  0.00  0.00    +0.001 A 
ATOM     31  C   UNL     1     -15.478  -5.627  13.565  0.00  0.00    +0.000 A 
ENDBRANCH  21  26
ENDBRANCH  13   4
BRANCH   9   1
ATOM      1  O   UNL     1      -6.925  -9.764  15.781  0.00  0.00    -0.391 OA
ATOM     33  H   UNL     1      -7.463  -8.960  15.675  0.00  0.00    +0.210 HD
ENDBRANCH   9   1
BRANCH  11  17
ATOM     17  C   UNL     1      -5.577 -12.132  16.881  0.00  0.00    +0.078 C 
ATOM     19  C   UNL     1      -5.636 -13.581  17.324  0.00  0.00    +0.017 C 
BRANCH  17  20
ATOM      2  O   UNL     1      -3.853 -11.405  18.355  0.00  0.00    -0.275 OA
ATOM      5  N   UNL     1      -3.458 -11.202  16.087  0.00  0.00    -0.301 N 
ATOM     20  C   UNL     1      -4.220 -11.550  17.187  0.00  0.00    +0.219 C 
ATOM     22  C   UNL     1      -2.129 -10.623  16.216  0.00  0.00    +0.108 C 
ATOM     23  C   UNL     1      -3.830 -11.352  14.685  0.00  0.00    +0.108 C 
ATOM     24  C   UNL     1      -1.541 -10.704  14.816  0.00  0.00    +0.020 C 
ATOM     25  C   UNL     1      -2.769 -10.570  13.924  0.00  0.00    +0.020 C 
ENDBRANCH  17  20
ENDBRANCH  11  17
TORSDOF 5
ENDMDL
MODEL 8
REMARK VINA RESULT:      -6.8     24.908     30.827
REMARK  Name = 45361408
REMARK  8 active torsions:
REMARK  status: ('A' for Active; 'I' for Inactive)
REMARK    1  A    between atoms: O_1  and  C_9
REMARK    2  A    between atoms: N_4  and  C_13
REMARK    3  A    between atoms: C_6  and  C_16
REMARK    4  A    between atoms: C_8  and  C_18
REMARK    5  A    between atoms: C_11  and  C_17
REMARK    6  A    between atoms: C_17  and  C_19
REMARK    7  A    between atoms: C_17  and  C_20
REMARK    8  A    between atoms: C_21  and  C_26
REMARK                            x       y       z     vdW  Elec       q    Type
REMARK                         _______ _______ _______ _____ _____    ______ ____
ROOT
ATOM      6  C   UNL     1      12.742   8.761   3.311  0.00  0.00    -0.027 C 
ATOM      7  C   UNL     1      13.026   8.342   4.792  0.00  0.00    +0.028 C 
ATOM      8  C   UNL     1      14.498   7.816   4.951  0.00  0.00    +0.012 C 
ATOM      9  C   UNL     1      11.916   7.395   5.333  0.00  0.00    +0.122 C 
ATOM     10  C   UNL     1      11.326   9.377   3.213  0.00  0.00    +0.007 C 
ATOM     11  C   UNL     1      10.495   7.972   5.137  0.00  0.00    +0.029 C 
ATOM     12  C   UNL     1      13.759   9.847   2.890  0.00  0.00    +0.009 C 
ATOM     13  C   UNL     1      15.510   8.887   4.455  0.00  0.00    +0.076 C 
ATOM     14  C   UNL     1      10.234   8.438   3.705  0.00  0.00    +0.007 C 
ATOM     15  C   UNL     1      15.206   9.403   3.049  0.00  0.00    +0.023 C 
ATOM     16  C   UNL     1      12.835   7.566   2.327  0.00  0.00    +0.011 C 
ATOM     18  C   UNL     1      14.855   7.412   6.392  0.00  0.00    +0.010 C 
ENDROOT
BRANCH  13   4
ATOM      3  O   UNL     1      17.662   9.870   6.080  0.00  0.00    -0.270 OA
ATOM      4  N   UNL     1      16.870   8.392   4.479  0.00  0.00    -0.308 N 
ATOM     21  C   UNL     1      17.841   8.937   5.302  0.00  0.00    +0.244 C 
ATOM     32  H   UNL     1      17.118   7.700   3.780  0.00  0.00    +0.149 HD
BRANCH  21  26
ATOM     26  C   UNL     1      19.194   8.335   5.190  0.00  0.00    +0.037 A 
ATOM     27  C   UNL     1      19.575   7.686   4.016  0.00  0.00    +0.013 A 
ATOM     28  C   UNL     1      20.085   8.419   6.261  0.00  0.00    +0.013 A 
ATOM     29  C   UNL     1      20.845   7.121   3.911  0.00  0.00    +0.001 A 
ATOM     30  C   UNL     1      21.356   7.854   6.156  0.00  0.00    +0.001 A 
ATOM     31  C   UNL     1      21.736   7.205   4.982  0.00  0.00    +0.000 A 
ENDBRANCH  21  26
ENDBRANCH  13   4
BRANCH   9   1
ATOM      1  O   UNL     1      12.092   7.209   6.738  0.00  0.00    -0.391 OA
ATOM     33  H   UNL     1      11.571   6.433   7.008  0.00  0.00    +0.210 HD
ENDBRANCH   9   1
BRANCH  11  17
ATOM     17  C   UNL     1       9.412   6.970   5.555  0.00  0.00    +0.078 C 
ATOM     19  C   UNL     1       8.159   7.135   4.717  0.00  0.00    +0.017 C 
BRANCH  17  20
ATOM      2  O   UNL     1       8.727   8.293   7.414  0.00  0.00    -0.275 OA
ATOM      5  N   UNL     1       9.248   6.080   7.828  0.00  0.00    -0.301 N 
ATOM     20  C   UNL     1       9.093   7.186   7.013  0.00  0.00    +0.219 C 
ATOM     22  C   UNL     1       8.987   6.128   9.259  0.00  0.00    +0.108 C 
ATOM     23  C   UNL     1       9.672   4.746   7.417  0.00  0.00    +0.108 C 
ATOM     24  C   UNL     1       8.959   4.669   9.690  0.00  0.00    +0.020 C 
ATOM     25  C   UNL     1       9.938   4.013   8.725  0.00  0.00    +0.020 C 
ENDBRANCH  17  20
ENDBRANCH  11  17
TORSDOF 5
ENDMDL
MODEL 9
REMARK VINA RESULT:      -6.5     18.822     21.792
REMARK  Name = 45361408
REMARK  8 active torsions:
REMARK  status: ('A' for Active; 'I' for Inactive)
REMARK    1  A    between atoms: O_1  and  C_9
REMARK    2  A    between atoms: N_4  and  C_13
REMARK    3  A    between atoms: C_6  and  C_16
REMARK    4  A    between atoms: C_8  and  C_18
REMARK    5  A    between atoms: C_11  and  C_17
REMARK    6  A    between atoms: C_17  and  C_19
REMARK    7  A    between atoms: C_17  and  C_20
REMARK    8  A    between atoms: C_21  and  C_26
REMARK                            x       y       z     vdW  Elec       q    Type
REMARK                         _______ _______ _______ _____ _____    ______ ____
ROOT
ATOM      6  C   UNL     1     -12.944   7.057  21.103  0.00  0.00    -0.027 C 
ATOM      7  C   UNL     1     -13.990   6.996  19.941  0.00  0.00    +0.028 C 
ATOM      8  C   UNL     1     -13.789   8.195  18.945  0.00  0.00    +0.012 C 
ATOM      9  C   UNL     1     -15.435   6.819  20.490  0.00  0.00    +0.122 C 
ATOM     10  C   UNL     1     -13.097   5.805  22.000  0.00  0.00    +0.007 C 
ATOM     11  C   UNL     1     -15.557   5.627  21.468  0.00  0.00    +0.029 C 
ATOM     12  C   UNL     1     -11.520   7.035  20.502  0.00  0.00    +0.009 C 
ATOM     13  C   UNL     1     -12.331   8.207  18.404  0.00  0.00    +0.076 C 
ATOM     14  C   UNL     1     -14.499   5.651  22.571  0.00  0.00    +0.007 C 
ATOM     15  C   UNL     1     -11.274   8.160  19.507  0.00  0.00    +0.023 C 
ATOM     16  C   UNL     1     -13.107   8.322  21.983  0.00  0.00    +0.011 C 
ATOM     18  C   UNL     1     -14.768   8.181  17.759  0.00  0.00    +0.010 C 
ENDROOT
BRANCH  13   4
ATOM      3  O   UNL     1     -10.394   8.412  16.296  0.00  0.00    -0.270 OA
ATOM      4  N   UNL     1     -12.077   9.365  17.573  0.00  0.00    -0.308 N 
ATOM     21  C   UNL     1     -11.115   9.365  16.578  0.00  0.00    +0.244 C 
ATOM     32  H   UNL     1     -12.555  10.223  17.826  0.00  0.00    +0.149 HD
BRANCH  21  26
ATOM     26  C   UNL     1     -10.958  10.639  15.832  0.00  0.00    +0.037 A 
ATOM     27  C   UNL     1     -11.774  10.911  14.733  0.00  0.00    +0.013 A 
ATOM     28  C   UNL     1      -9.995  11.567  16.230  0.00  0.00    +0.013 A 
ATOM     29  C   UNL     1     -11.627  12.107  14.033  0.00  0.00    +0.001 A 
ATOM     30  C   UNL     1      -9.848  12.764  15.529  0.00  0.00    +0.001 A 
ATOM     31  C   UNL     1     -10.663  13.034  14.431  0.00  0.00    +0.000 A 
ENDBRANCH  21  26
ENDBRANCH  13   4
BRANCH   9   1
ATOM      1  O   UNL     1     -16.327   6.553  19.408  0.00  0.00    -0.391 OA
ATOM     33  H   UNL     1     -17.121   6.123  19.769  0.00  0.00    +0.210 HD
ENDBRANCH   9   1
BRANCH  11  17
ATOM     17  C   UNL     1     -16.953   5.550  22.098  0.00  0.00    +0.078 C 
ATOM     19  C   UNL     1     -17.076   6.497  23.277  0.00  0.00    +0.017 C 
BRANCH  17  20
ATOM      2  O   UNL     1     -16.705   3.710  23.590  0.00  0.00    -0.275 OA
ATOM      5  N   UNL     1     -18.001   3.374  21.707  0.00  0.00    -0.301 N 
ATOM     20  C   UNL     1     -17.202   4.132  22.544  0.00  0.00    +0.219 C 
ATOM     22  C   UNL     1     -18.330   1.986  21.994  0.00  0.00    +0.108 C 
ATOM     23  C   UNL     1     -18.622   3.813  20.462  0.00  0.00    +0.108 C 
ATOM     24  C   UNL     1     -19.456   1.654  21.028  0.00  0.00    +0.020 C 
ATOM     25  C   UNL     1     -19.140   2.532  19.824  0.00  0.00    +0.020 C 
ENDBRANCH  17  20
ENDBRANCH  11  17
TORSDOF 5
ENDMDL
MODEL 10
REMARK VINA RESULT:      -6.4      2.689     10.233
REMARK  Name = 45361408
REMARK  8 active torsions:
REMARK  status: ('A' for Active; 'I' for Inactive)
REMARK    1  A    between atoms: O_1  and  C_9
REMARK    2  A    between atoms: N_4  and  C_13
REMARK    3  A    between atoms: C_6  and  C_16
REMARK    4  A    between atoms: C_8  and  C_18
REMARK    5  A    between atoms: C_11  and  C_17
REMARK    6  A    between atoms: C_17  and  C_19
REMARK    7  A    between atoms: C_17  and  C_20
REMARK    8  A    between atoms: C_21  and  C_26
REMARK                            x       y       z     vdW  Elec       q    Type
REMARK                         _______ _______ _______ _____ _____    ______ ____
ROOT
ATOM      6  C   UNL     1     -10.467 -10.064  18.012  0.00  0.00    -0.027 C 
ATOM      7  C   UNL     1      -9.545 -11.138  18.678  0.00  0.00    +0.028 C 
ATOM      8  C   UNL     1      -8.284 -11.424  17.785  0.00  0.00    +0.012 C 
ATOM      9  C   UNL     1     -10.358 -12.393  19.107  0.00  0.00    +0.122 C 
ATOM     10  C   UNL     1     -11.636  -9.725  18.967  0.00  0.00    +0.007 C 
ATOM     11  C   UNL     1     -11.586 -12.036  19.977  0.00  0.00    +0.029 C 
ATOM     12  C   UNL     1      -9.653  -8.770  17.785  0.00  0.00    +0.009 C 
ATOM     13  C   UNL     1      -7.514 -10.104  17.501  0.00  0.00    +0.076 C 
ATOM     14  C   UNL     1     -12.458 -10.945  19.357  0.00  0.00    +0.007 C 
ATOM     15  C   UNL     1      -8.402  -8.990  16.946  0.00  0.00    +0.023 C 
ATOM     16  C   UNL     1     -11.053 -10.542  16.658  0.00  0.00    +0.011 C 
ATOM     18  C   UNL     1      -7.317 -12.452  18.396  0.00  0.00    +0.010 C 
ENDROOT
BRANCH  13   4
ATOM      3  O   UNL     1      -4.730 -10.270  18.180  0.00  0.00    -0.270 OA
ATOM      4  N   UNL     1      -6.412 -10.312  16.585  0.00  0.00    -0.308 N 
ATOM     21  C   UNL     1      -5.097 -10.377  17.012  0.00  0.00    +0.244 C 
ATOM     32  H   UNL     1      -6.630 -10.293  15.595  0.00  0.00    +0.149 HD
BRANCH  21  26
ATOM     26  C   UNL     1      -4.081 -10.568  15.947  0.00  0.00    +0.037 A 
ATOM     27  C   UNL     1      -2.736 -10.721  16.283  0.00  0.00    +0.013 A 
ATOM     28  C   UNL     1      -4.472 -10.595  14.607  0.00  0.00    +0.013 A 
ATOM     29  C   UNL     1      -1.782 -10.901  15.282  0.00  0.00    +0.001 A 
ATOM     30  C   UNL     1      -3.517 -10.776  13.606  0.00  0.00    +0.001 A 
ATOM     31  C   UNL     1      -2.173 -10.928  13.943  0.00  0.00    +0.000 A 
ENDBRANCH  21  26
ENDBRANCH  13   4
BRANCH   9   1
ATOM      1  O   UNL     1      -9.532 -13.249  19.897  0.00  0.00    -0.391 OA
ATOM     33  H   UNL     1      -8.608 -12.971  19.780  0.00  0.00    +0.210 HD
ENDBRANCH   9   1
BRANCH  11  17
ATOM     17  C   UNL     1     -12.446 -13.270  20.279  0.00  0.00    +0.078 C 
ATOM     19  C   UNL     1     -13.577 -13.408  19.277  0.00  0.00    +0.017 C 
BRANCH  17  20
ATOM      2  O   UNL     1     -13.994 -12.439  21.888  0.00  0.00    -0.275 OA
ATOM      5  N   UNL     1     -12.325 -13.841  22.655  0.00  0.00    -0.301 N 
ATOM     20  C   UNL     1     -13.002 -13.139  21.674  0.00  0.00    +0.219 C 
ATOM     22  C   UNL     1     -12.733 -13.813  24.051  0.00  0.00    +0.108 C 
ATOM     23  C   UNL     1     -11.152 -14.689  22.468  0.00  0.00    +0.108 C 
ATOM     24  C   UNL     1     -11.948 -14.944  24.699  0.00  0.00    +0.020 C 
ATOM     25  C   UNL     1     -10.664 -14.978  23.881  0.00  0.00    +0.020 C 
ENDBRANCH  17  20
ENDBRANCH  11  17
TORSDOF 5
ENDMDL
