MODEL 1
REMARK VINA RESULT:      -6.8      0.000      0.000
REMARK  Name = 11883066
REMARK  10 active torsions:
REMARK  status: ('A' for Active; 'I' for Inactive)
REMARK    1  A    between atoms: O_2  and  C_15
REMARK    2  A    between atoms: O_3  and  C_20
REMARK    3  A    between atoms: N_8  and  C_26
REMARK    4  A    between atoms: C_10  and  C_18
REMARK    5  A    between atoms: C_12  and  C_20
REMARK    6  A    between atoms: C_12  and  C_21
REMARK    7  A    between atoms: C_13  and  C_23
REMARK    8  A    between atoms: C_23  and  C_24
REMARK    9  A    between atoms: C_26  and  C_28
REMARK   10  A    between atoms: C_27  and  C_29
REMARK                            x       y       z     vdW  Elec       q    Type
REMARK                         _______ _______ _______ _____ _____    ______ ____
ROOT
ATOM      1  S   UNL     1      15.167   7.979   6.282  0.00  0.00    -0.057 S 
ATOM      5  O   UNL     1      12.493   6.544   2.796  0.00  0.00    -0.266 OA
ATOM      7  N   UNL     1      15.077   7.513   3.739  0.00  0.00    -0.229 NA
ATOM      9  N   UNL     1      13.060   7.101   4.993  0.00  0.00    -0.258 N 
ATOM     10  C   UNL     1      18.625   9.000   3.473  0.00  0.00    -0.019 C 
ATOM     11  C   UNL     1      19.022   8.518   4.938  0.00  0.00    +0.011 C 
ATOM     12  C   UNL     1      20.431   8.970   5.482  0.00  0.00    +0.021 C 
ATOM     13  C   UNL     1      17.409   8.095   2.970  0.00  0.00    +0.054 C 
ATOM     14  C   UNL     1      19.826   8.781   2.515  0.00  0.00    +0.010 C 
ATOM     15  C   UNL     1      21.507   8.725   4.386  0.00  0.00    +0.123 C 
ATOM     16  C   UNL     1      17.858   8.746   5.946  0.00  0.00    +0.049 C 
ATOM     17  C   UNL     1      21.141   9.338   3.039  0.00  0.00    +0.032 C 
ATOM     18  C   UNL     1      18.213  10.491   3.421  0.00  0.00    +0.012 C 
ATOM     19  C   UNL     1      16.348   7.971   4.034  0.00  0.00    +0.058 A 
ATOM     21  C   UNL     1      20.809   8.087   6.706  0.00  0.00    +0.016 C 
ATOM     22  C   UNL     1      16.577   8.251   5.365  0.00  0.00    +0.015 A 
ATOM     25  C   UNL     1      14.367   7.483   4.845  0.00  0.00    +0.165 A 
ATOM     27  C   UNL     1      12.182   6.652   3.980  0.00  0.00    +0.285 C 
ATOM     41  H   UNL     1      12.699   7.161   5.941  0.00  0.00    +0.157 HD
ENDROOT
BRANCH  27  29
ATOM      6  O   UNL     1      10.571   5.125   4.960  0.00  0.00    -0.458 OA
ATOM     29  C   UNL     1      10.812   6.353   4.430  0.00  0.00    +0.189 A 
ATOM     32  C   UNL     1       9.662   7.108   4.420  0.00  0.00    +0.054 A 
ATOM     35  C   UNL     1       8.650   6.293   4.982  0.00  0.00    +0.042 A 
ATOM     37  C   UNL     1       9.253   5.097   5.293  0.00  0.00    +0.196 A 
ENDBRANCH  27  29
BRANCH  15   2
ATOM      2  O   UNL     1      22.772   9.243   4.798  0.00  0.00    -0.391 OA
ATOM     38  H   UNL     1      23.208   8.560   5.337  0.00  0.00    +0.210 HD
ENDBRANCH  15   2
BRANCH  12  20
ATOM     20  C   UNL     1      20.485  10.428   5.991  0.00  0.00    +0.165 C 
BRANCH  20   3
ATOM      3  O   UNL     1      21.365  10.468   7.092  0.00  0.00    -0.394 OA
ATOM     39  H   UNL     1      21.163   9.698   7.652  0.00  0.00    +0.209 HD
ENDBRANCH  20   3
ENDBRANCH  12  20
BRANCH  13  23
ATOM     23  C   UNL     1      16.807   8.525   1.625  0.00  0.00    +0.106 C 
BRANCH  23  24
ATOM      4  O   UNL     1      17.697   7.617  -0.433  0.00  0.00    -0.276 OA
ATOM      8  N   UNL     1      16.249   6.334   0.854  0.00  0.00    -0.311 N 
ATOM     24  C   UNL     1      16.988   7.469   0.558  0.00  0.00    +0.214 C 
ATOM     40  H   UNL     1      15.677   6.320   1.694  0.00  0.00    +0.149 HD
BRANCH   8  26
ATOM     26  C   UNL     1      16.229   5.162   0.008  0.00  0.00    +0.139 C 
BRANCH  26  28
ATOM     28  C   UNL     1      14.945   4.395   0.141  0.00  0.00    -0.030 A 
ATOM     30  C   UNL     1      14.185   4.106  -0.992  0.00  0.00    +0.005 A 
ATOM     31  C   UNL     1      14.513   3.971   1.398  0.00  0.00    +0.005 A 
ATOM     33  C   UNL     1      12.993   3.392  -0.869  0.00  0.00    +0.000 A 
ATOM     34  C   UNL     1      13.320   3.257   1.521  0.00  0.00    +0.000 A 
ATOM     36  C   UNL     1      12.560   2.969   0.387  0.00  0.00    +0.000 A 
ENDBRANCH  26  28
ENDBRANCH   8  26
ENDBRANCH  23  24
ENDBRANCH  13  23
TORSDOF 8
ENDMDL
MODEL 2
REMARK VINA RESULT:      -6.7     14.538     17.040
REMARK  Name = 11883066
REMARK  10 active torsions:
REMARK  status: ('A' for Active; 'I' for Inactive)
REMARK    1  A    between atoms: O_2  and  C_15
REMARK    2  A    between atoms: O_3  and  C_20
REMARK    3  A    between atoms: N_8  and  C_26
REMARK    4  A    between atoms: C_10  and  C_18
REMARK    5  A    between atoms: C_12  and  C_20
REMARK    6  A    between atoms: C_12  and  C_21
REMARK    7  A    between atoms: C_13  and  C_23
REMARK    8  A    between atoms: C_23  and  C_24
REMARK    9  A    between atoms: C_26  and  C_28
REMARK   10  A    between atoms: C_27  and  C_29
REMARK                            x       y       z     vdW  Elec       q    Type
REMARK                         _______ _______ _______ _____ _____    ______ ____
ROOT
ATOM      1  S   UNL     1      20.776  -5.062   0.969  0.00  0.00    -0.057 S 
ATOM      5  O   UNL     1      18.085  -6.296  -2.581  0.00  0.00    -0.266 OA
ATOM      7  N   UNL     1      19.613  -7.047  -0.212  0.00  0.00    -0.229 NA
ATOM      9  N   UNL     1      19.303  -4.866  -1.190  0.00  0.00    -0.258 N 
ATOM     10  C   UNL     1      21.425  -9.402   2.247  0.00  0.00    -0.019 C 
ATOM     11  C   UNL     1      21.427  -8.314   3.410  0.00  0.00    +0.011 C 
ATOM     12  C   UNL     1      22.195  -8.686   4.735  0.00  0.00    +0.021 C 
ATOM     13  C   UNL     1      20.262  -9.021   1.219  0.00  0.00    +0.054 C 
ATOM     14  C   UNL     1      21.109 -10.797   2.847  0.00  0.00    +0.010 C 
ATOM     15  C   UNL     1      21.800 -10.126   5.170  0.00  0.00    +0.123 C 
ATOM     16  C   UNL     1      21.770  -6.898   2.862  0.00  0.00    +0.049 C 
ATOM     17  C   UNL     1      21.960 -11.154   4.057  0.00  0.00    +0.032 C 
ATOM     18  C   UNL     1      22.774  -9.478   1.492  0.00  0.00    +0.012 C 
ATOM     19  C   UNL     1      20.299  -7.554   0.876  0.00  0.00    +0.058 A 
ATOM     21  C   UNL     1      21.746  -7.721   5.870  0.00  0.00    +0.016 C 
ATOM     22  C   UNL     1      20.967  -6.617   1.638  0.00  0.00    +0.015 A 
ATOM     25  C   UNL     1      19.799  -5.747  -0.266  0.00  0.00    +0.165 A 
ATOM     27  C   UNL     1      18.477  -5.166  -2.298  0.00  0.00    +0.285 C 
ATOM     41  H   UNL     1      19.575  -3.897  -1.050  0.00  0.00    +0.157 HD
ENDROOT
BRANCH  27  29
ATOM      6  O   UNL     1      18.819  -3.863  -4.316  0.00  0.00    -0.458 OA
ATOM     29  C   UNL     1      18.136  -4.015  -3.151  0.00  0.00    +0.189 A 
ATOM     32  C   UNL     1      17.212  -3.007  -2.998  0.00  0.00    +0.054 A 
ATOM     35  C   UNL     1      17.336  -2.183  -4.143  0.00  0.00    +0.042 A 
ATOM     37  C   UNL     1      18.326  -2.746  -4.913  0.00  0.00    +0.196 A 
ENDBRANCH  27  29
BRANCH  15   2
ATOM      2  O   UNL     1      22.575 -10.542   6.294  0.00  0.00    -0.391 OA
ATOM     38  H   UNL     1      22.830  -9.743   6.788  0.00  0.00    +0.210 HD
ENDBRANCH  15   2
BRANCH  12  20
ATOM     20  C   UNL     1      23.730  -8.538   4.649  0.00  0.00    +0.165 C 
BRANCH  20   3
ATOM      3  O   UNL     1      24.211  -8.265   5.947  0.00  0.00    -0.394 OA
ATOM     39  H   UNL     1      23.871  -8.962   6.534  0.00  0.00    +0.209 HD
ENDBRANCH  20   3
ENDBRANCH  12  20
BRANCH  13  23
ATOM     23  C   UNL     1      20.217  -9.892  -0.044  0.00  0.00    +0.106 C 
BRANCH  23  24
ATOM      4  O   UNL     1      18.185  -9.785  -1.353  0.00  0.00    -0.276 OA
ATOM      8  N   UNL     1      18.317 -11.257   0.441  0.00  0.00    -0.311 N 
ATOM     24  C   UNL     1      18.804 -10.281  -0.416  0.00  0.00    +0.214 C 
ATOM     40  H   UNL     1      18.905 -11.588   1.201  0.00  0.00    +0.149 HD
BRANCH   8  26
ATOM     26  C   UNL     1      16.990 -11.818   0.326  0.00  0.00    +0.139 C 
BRANCH  26  28
ATOM     28  C   UNL     1      16.388 -12.118   1.668  0.00  0.00    -0.030 A 
ATOM     30  C   UNL     1      15.599 -13.255   1.840  0.00  0.00    +0.005 A 
ATOM     31  C   UNL     1      16.620 -11.260   2.743  0.00  0.00    +0.005 A 
ATOM     33  C   UNL     1      15.040 -13.534   3.087  0.00  0.00    +0.000 A 
ATOM     34  C   UNL     1      16.061 -11.539   3.991  0.00  0.00    +0.000 A 
ATOM     36  C   UNL     1      15.270 -12.676   4.163  0.00  0.00    +0.000 A 
ENDBRANCH  26  28
ENDBRANCH   8  26
ENDBRANCH  23  24
ENDBRANCH  13  23
TORSDOF 8
ENDMDL
MODEL 3
REMARK VINA RESULT:      -6.6     30.976     35.287
REMARK  Name = 11883066
REMARK  10 active torsions:
REMARK  status: ('A' for Active; 'I' for Inactive)
REMARK    1  A    between atoms: O_2  and  C_15
REMARK    2  A    between atoms: O_3  and  C_20
REMARK    3  A    between atoms: N_8  and  C_26
REMARK    4  A    between atoms: C_10  and  C_18
REMARK    5  A    between atoms: C_12  and  C_20
REMARK    6  A    between atoms: C_12  and  C_21
REMARK    7  A    between atoms: C_13  and  C_23
REMARK    8  A    between atoms: C_23  and  C_24
REMARK    9  A    between atoms: C_26  and  C_28
REMARK   10  A    between atoms: C_27  and  C_29
REMARK                            x       y       z     vdW  Elec       q    Type
REMARK                         _______ _______ _______ _____ _____    ______ ____
ROOT
ATOM      1  S   UNL     1     -12.735   5.147  22.339  0.00  0.00    -0.057 S 
ATOM      5  O   UNL     1     -17.152   4.502  23.537  0.00  0.00    -0.266 OA
ATOM      7  N   UNL     1     -15.175   5.877  21.890  0.00  0.00    -0.229 NA
ATOM      9  N   UNL     1     -14.837   4.189  23.577  0.00  0.00    -0.258 N 
ATOM     10  C   UNL     1     -13.792   8.590  19.524  0.00  0.00    -0.019 C 
ATOM     11  C   UNL     1     -12.533   7.703  19.116  0.00  0.00    +0.011 C 
ATOM     12  C   UNL     1     -11.454   8.378  18.185  0.00  0.00    +0.021 C 
ATOM     13  C   UNL     1     -14.928   7.608  20.072  0.00  0.00    +0.054 C 
ATOM     14  C   UNL     1     -14.338   9.317  18.267  0.00  0.00    +0.010 C 
ATOM     15  C   UNL     1     -12.172   9.097  17.007  0.00  0.00    +0.123 C 
ATOM     16  C   UNL     1     -11.927   6.975  20.352  0.00  0.00    +0.049 C 
ATOM     17  C   UNL     1     -13.272  10.048  17.466  0.00  0.00    +0.032 C 
ATOM     18  C   UNL     1     -13.459   9.647  20.605  0.00  0.00    +0.012 C 
ATOM     19  C   UNL     1     -14.359   6.614  21.052  0.00  0.00    +0.058 A 
ATOM     21  C   UNL     1     -10.552   7.271  17.569  0.00  0.00    +0.016 C 
ATOM     22  C   UNL     1     -13.012   6.332  21.147  0.00  0.00    +0.015 A 
ATOM     25  C   UNL     1     -14.427   5.078  22.619  0.00  0.00    +0.165 A 
ATOM     27  C   UNL     1     -16.163   3.936  23.997  0.00  0.00    +0.285 C 
ATOM     41  H   UNL     1     -14.089   3.670  24.029  0.00  0.00    +0.157 HD
ENDROOT
BRANCH  27  29
ATOM      6  O   UNL     1     -16.457   1.648  24.748  0.00  0.00    -0.458 OA
ATOM     29  C   UNL     1     -16.296   2.954  25.086  0.00  0.00    +0.189 A 
ATOM     32  C   UNL     1     -16.290   3.101  26.454  0.00  0.00    +0.054 A 
ATOM     35  C   UNL     1     -16.457   1.801  26.990  0.00  0.00    +0.042 A 
ATOM     37  C   UNL     1     -16.555   0.953  25.912  0.00  0.00    +0.196 A 
ENDBRANCH  27  29
BRANCH  15   2
ATOM      2  O   UNL     1     -11.234   9.827  16.217  0.00  0.00    -0.391 OA
ATOM     38  H   UNL     1     -10.837   9.205  15.583  0.00  0.00    +0.210 HD
ENDBRANCH  15   2
BRANCH  12  20
ATOM     20  C   UNL     1     -10.490   9.341  18.913  0.00  0.00    +0.165 C 
BRANCH  20   3
ATOM      3  O   UNL     1      -9.332   9.474  18.119  0.00  0.00    -0.394 OA
ATOM     39  H   UNL     1      -9.234  10.419  17.907  0.00  0.00    +0.209 HD
ENDBRANCH  20   3
ENDBRANCH  12  20
BRANCH  13  23
ATOM     23  C   UNL     1     -16.162   8.319  20.645  0.00  0.00    +0.106 C 
BRANCH  23  24
ATOM      4  O   UNL     1     -18.475   8.622  20.006  0.00  0.00    -0.276 OA
ATOM      8  N   UNL     1     -17.157   7.097  18.849  0.00  0.00    -0.311 N 
ATOM     24  C   UNL     1     -17.401   8.055  19.821  0.00  0.00    +0.214 C 
ATOM     40  H   UNL     1     -16.235   6.673  18.792  0.00  0.00    +0.149 HD
BRANCH   8  26
ATOM     26  C   UNL     1     -18.162   6.644  17.916  0.00  0.00    +0.139 C 
BRANCH  26  28
ATOM     28  C   UNL     1     -17.567   6.245  16.597  0.00  0.00    -0.030 A 
ATOM     30  C   UNL     1     -16.586   7.042  16.005  0.00  0.00    +0.005 A 
ATOM     31  C   UNL     1     -17.994   5.078  15.963  0.00  0.00    +0.005 A 
ATOM     33  C   UNL     1     -16.032   6.671  14.780  0.00  0.00    +0.000 A 
ATOM     34  C   UNL     1     -17.440   4.707  14.737  0.00  0.00    +0.000 A 
ATOM     36  C   UNL     1     -16.459   5.505  14.145  0.00  0.00    +0.000 A 
ENDBRANCH  26  28
ENDBRANCH   8  26
ENDBRANCH  23  24
ENDBRANCH  13  23
TORSDOF 8
ENDMDL
MODEL 4
REMARK VINA RESULT:      -6.5     27.622     33.037
REMARK  Name = 11883066
REMARK  10 active torsions:
REMARK  status: ('A' for Active; 'I' for Inactive)
REMARK    1  A    between atoms: O_2  and  C_15
REMARK    2  A    between atoms: O_3  and  C_20
REMARK    3  A    between atoms: N_8  and  C_26
REMARK    4  A    between atoms: C_10  and  C_18
REMARK    5  A    between atoms: C_12  and  C_20
REMARK    6  A    between atoms: C_12  and  C_21
REMARK    7  A    between atoms: C_13  and  C_23
REMARK    8  A    between atoms: C_23  and  C_24
REMARK    9  A    between atoms: C_26  and  C_28
REMARK   10  A    between atoms: C_27  and  C_29
REMARK                            x       y       z     vdW  Elec       q    Type
REMARK                         _______ _______ _______ _____ _____    ______ ____
ROOT
ATOM      1  S   UNL     1      -9.792  -9.769  12.918  0.00  0.00    -0.057 S 
ATOM      5  O   UNL     1      -5.202  -9.835  13.455  0.00  0.00    -0.266 OA
ATOM      7  N   UNL     1      -7.866  -9.856  14.643  0.00  0.00    -0.229 NA
ATOM      9  N   UNL     1      -7.241  -9.768  12.317  0.00  0.00    -0.258 N 
ATOM     10  C   UNL     1     -10.517  -9.541  17.426  0.00  0.00    -0.019 C 
ATOM     11  C   UNL     1     -11.621 -10.305  16.569  0.00  0.00    +0.011 C 
ATOM     12  C   UNL     1     -13.070 -10.393  17.185  0.00  0.00    +0.021 C 
ATOM     13  C   UNL     1      -9.082  -9.946  16.852  0.00  0.00    +0.054 C 
ATOM     14  C   UNL     1     -10.600 -10.004  18.904  0.00  0.00    +0.010 C 
ATOM     15  C   UNL     1     -12.968 -10.823  18.676  0.00  0.00    +0.123 C 
ATOM     16  C   UNL     1     -11.598  -9.852  15.080  0.00  0.00    +0.049 C 
ATOM     17  C   UNL     1     -12.006  -9.960  19.485  0.00  0.00    +0.032 C 
ATOM     18  C   UNL     1     -10.676  -8.002  17.376  0.00  0.00    +0.012 C 
ATOM     19  C   UNL     1      -9.056  -9.864  15.347  0.00  0.00    +0.058 A 
ATOM     21  C   UNL     1     -13.872 -11.497  16.439  0.00  0.00    +0.016 C 
ATOM     22  C   UNL     1     -10.197  -9.841  14.571  0.00  0.00    +0.015 A 
ATOM     25  C   UNL     1      -8.132  -9.801  13.356  0.00  0.00    +0.165 A 
ATOM     27  C   UNL     1      -5.830  -9.785  12.400  0.00  0.00    +0.285 C 
ATOM     41  H   UNL     1      -7.660  -9.718  11.392  0.00  0.00    +0.157 HD
ENDROOT
BRANCH  27  29
ATOM      6  O   UNL     1      -4.919 -10.842  10.415  0.00  0.00    -0.458 OA
ATOM     29  C   UNL     1      -5.127  -9.692  11.109  0.00  0.00    +0.189 A 
ATOM     32  C   UNL     1      -4.610  -8.616  10.426  0.00  0.00    +0.054 A 
ATOM     35  C   UNL     1      -4.048  -9.137   9.236  0.00  0.00    +0.042 A 
ATOM     37  C   UNL     1      -4.262 -10.495   9.276  0.00  0.00    +0.196 A 
ENDBRANCH  27  29
BRANCH  15   2
ATOM      2  O   UNL     1     -14.252 -10.787  19.298  0.00  0.00    -0.391 OA
ATOM     38  H   UNL     1     -14.348 -11.600  19.823  0.00  0.00    +0.210 HD
ENDBRANCH  15   2
BRANCH  12  20
ATOM     20  C   UNL     1     -13.907  -9.103  17.039  0.00  0.00    +0.165 C 
BRANCH  20   3
ATOM      3  O   UNL     1     -15.256  -9.481  16.871  0.00  0.00    -0.394 OA
ATOM     39  H   UNL     1     -15.408 -10.266  17.426  0.00  0.00    +0.209 HD
ENDBRANCH  20   3
ENDBRANCH  12  20
BRANCH  13  23
ATOM     23  C   UNL     1      -7.906  -9.181  17.476  0.00  0.00    +0.106 C 
BRANCH  23  24
ATOM      4  O   UNL     1      -7.003 -10.524  19.275  0.00  0.00    -0.276 OA
ATOM      8  N   UNL     1      -5.876 -10.418  17.245  0.00  0.00    -0.311 N 
ATOM     24  C   UNL     1      -6.904 -10.110  18.122  0.00  0.00    +0.214 C 
ATOM     40  H   UNL     1      -5.877 -10.007  16.316  0.00  0.00    +0.149 HD
BRANCH   8  26
ATOM     26  C   UNL     1      -4.773 -11.285  17.593  0.00  0.00    +0.139 C 
BRANCH  26  28
ATOM     28  C   UNL     1      -3.815 -11.463  16.451  0.00  0.00    -0.030 A 
ATOM     30  C   UNL     1      -2.700 -10.632  16.341  0.00  0.00    +0.005 A 
ATOM     31  C   UNL     1      -4.039 -12.460  15.502  0.00  0.00    +0.005 A 
ATOM     33  C   UNL     1      -1.809 -10.798  15.280  0.00  0.00    +0.000 A 
ATOM     34  C   UNL     1      -3.148 -12.625  14.440  0.00  0.00    +0.000 A 
ATOM     36  C   UNL     1      -2.033 -11.793  14.330  0.00  0.00    +0.000 A 
ENDBRANCH  26  28
ENDBRANCH   8  26
ENDBRANCH  23  24
ENDBRANCH  13  23
TORSDOF 8
ENDMDL
MODEL 5
REMARK VINA RESULT:      -6.5     31.171     34.950
REMARK  Name = 11883066
REMARK  10 active torsions:
REMARK  status: ('A' for Active; 'I' for Inactive)
REMARK    1  A    between atoms: O_2  and  C_15
REMARK    2  A    between atoms: O_3  and  C_20
REMARK    3  A    between atoms: N_8  and  C_26
REMARK    4  A    between atoms: C_10  and  C_18
REMARK    5  A    between atoms: C_12  and  C_20
REMARK    6  A    between atoms: C_12  and  C_21
REMARK    7  A    between atoms: C_13  and  C_23
REMARK    8  A    between atoms: C_23  and  C_24
REMARK    9  A    between atoms: C_26  and  C_28
REMARK   10  A    between atoms: C_27  and  C_29
REMARK                            x       y       z     vdW  Elec       q    Type
REMARK                         _______ _______ _______ _____ _____    ______ ____
ROOT
ATOM      1  S   UNL     1     -10.187 -12.798  20.227  0.00  0.00    -0.057 S 
ATOM      5  O   UNL     1     -13.315  -9.465  19.541  0.00  0.00    -0.266 OA
ATOM      7  N   UNL     1     -10.707 -10.620  18.932  0.00  0.00    -0.229 NA
ATOM      9  N   UNL     1     -12.400 -11.412  20.453  0.00  0.00    -0.258 N 
ATOM     10  C   UNL     1      -7.106 -10.734  17.554  0.00  0.00    -0.019 C 
ATOM     11  C   UNL     1      -7.059 -12.326  17.591  0.00  0.00    +0.011 C 
ATOM     12  C   UNL     1      -5.687 -13.009  17.221  0.00  0.00    +0.021 C 
ATOM     13  C   UNL     1      -8.640 -10.288  17.523  0.00  0.00    +0.054 C 
ATOM     14  C   UNL     1      -6.423 -10.228  16.257  0.00  0.00    +0.010 C 
ATOM     15  C   UNL     1      -5.121 -12.354  15.928  0.00  0.00    +0.123 C 
ATOM     16  C   UNL     1      -7.707 -12.884  18.892  0.00  0.00    +0.049 C 
ATOM     17  C   UNL     1      -5.050 -10.834  16.007  0.00  0.00    +0.032 C 
ATOM     18  C   UNL     1      -6.406 -10.084  18.772  0.00  0.00    +0.012 C 
ATOM     19  C   UNL     1      -9.446 -11.041  18.550  0.00  0.00    +0.058 A 
ATOM     21  C   UNL     1      -5.937 -14.512  16.906  0.00  0.00    +0.016 C 
ATOM     22  C   UNL     1      -9.015 -12.214  19.137  0.00  0.00    +0.015 A 
ATOM     25  C   UNL     1     -11.189 -11.465  19.817  0.00  0.00    +0.165 A 
ATOM     27  C   UNL     1     -13.405 -10.430  20.296  0.00  0.00    +0.285 C 
ATOM     41  H   UNL     1     -12.574 -12.167  21.111  0.00  0.00    +0.157 HD
ENDROOT
BRANCH  27  29
ATOM      6  O   UNL     1     -14.584 -11.636  22.041  0.00  0.00    -0.458 OA
ATOM     29  C   UNL     1     -14.591 -10.609  21.152  0.00  0.00    +0.189 A 
ATOM     32  C   UNL     1     -15.770  -9.905  21.237  0.00  0.00    +0.054 A 
ATOM     35  C   UNL     1     -16.536 -10.541  22.243  0.00  0.00    +0.042 A 
ATOM     37  C   UNL     1     -15.772 -11.588  22.700  0.00  0.00    +0.196 A 
ENDBRANCH  27  29
BRANCH  15   2
ATOM      2  O   UNL     1      -3.818 -12.861  15.638  0.00  0.00    -0.391 OA
ATOM     38  H   UNL     1      -3.588 -12.582  14.735  0.00  0.00    +0.210 HD
ENDBRANCH  15   2
BRANCH  12  20
ATOM     20  C   UNL     1      -4.636 -12.992  18.353  0.00  0.00    +0.165 C 
BRANCH  20   3
ATOM      3  O   UNL     1      -4.039 -14.269  18.406  0.00  0.00    -0.394 OA
ATOM     39  H   UNL     1      -4.589 -14.868  17.872  0.00  0.00    +0.209 HD
ENDBRANCH  20   3
ENDBRANCH  12  20
BRANCH  13  23
ATOM     23  C   UNL     1      -8.867  -8.774  17.631  0.00  0.00    +0.106 C 
BRANCH  23  24
ATOM      4  O   UNL     1      -9.439  -8.734  15.281  0.00  0.00    -0.276 OA
ATOM      8  N   UNL     1     -10.176  -7.023  16.670  0.00  0.00    -0.311 N 
ATOM     24  C   UNL     1      -9.510  -8.205  16.387  0.00  0.00    +0.214 C 
ATOM     40  H   UNL     1     -10.158  -6.658  17.618  0.00  0.00    +0.149 HD
BRANCH   8  26
ATOM     26  C   UNL     1     -10.882  -6.255  15.670  0.00  0.00    +0.139 C 
BRANCH  26  28
ATOM     28  C   UNL     1     -12.335  -6.627  15.597  0.00  0.00    -0.030 A 
ATOM     30  C   UNL     1     -13.184  -5.955  14.718  0.00  0.00    +0.005 A 
ATOM     31  C   UNL     1     -12.835  -7.645  16.408  0.00  0.00    +0.005 A 
ATOM     33  C   UNL     1     -14.534  -6.301  14.650  0.00  0.00    +0.000 A 
ATOM     34  C   UNL     1     -14.186  -7.992  16.341  0.00  0.00    +0.000 A 
ATOM     36  C   UNL     1     -15.035  -7.319  15.462  0.00  0.00    +0.000 A 
ENDBRANCH  26  28
ENDBRANCH   8  26
ENDBRANCH  23  24
ENDBRANCH  13  23
TORSDOF 8
ENDMDL
MODEL 6
REMARK VINA RESULT:      -6.5     28.686     31.888
REMARK  Name = 11883066
REMARK  10 active torsions:
REMARK  status: ('A' for Active; 'I' for Inactive)
REMARK    1  A    between atoms: O_2  and  C_15
REMARK    2  A    between atoms: O_3  and  C_20
REMARK    3  A    between atoms: N_8  and  C_26
REMARK    4  A    between atoms: C_10  and  C_18
REMARK    5  A    between atoms: C_12  and  C_20
REMARK    6  A    between atoms: C_12  and  C_21
REMARK    7  A    between atoms: C_13  and  C_23
REMARK    8  A    between atoms: C_23  and  C_24
REMARK    9  A    between atoms: C_26  and  C_28
REMARK   10  A    between atoms: C_27  and  C_29
REMARK                            x       y       z     vdW  Elec       q    Type
REMARK                         _______ _______ _______ _____ _____    ______ ____
ROOT
ATOM      1  S   UNL     1      -5.838 -10.865  12.276  0.00  0.00    -0.057 S 
ATOM      5  O   UNL     1      -8.854  -8.336   9.852  0.00  0.00    -0.266 OA
ATOM      7  N   UNL     1      -8.005  -9.458  12.407  0.00  0.00    -0.229 NA
ATOM      9  N   UNL     1      -6.974  -9.669  10.239  0.00  0.00    -0.258 N 
ATOM     10  C   UNL     1      -8.329 -10.539  16.095  0.00  0.00    -0.019 C 
ATOM     11  C   UNL     1      -6.751 -10.641  16.286  0.00  0.00    +0.011 C 
ATOM     12  C   UNL     1      -6.231 -11.194  17.668  0.00  0.00    +0.021 C 
ATOM     13  C   UNL     1      -8.613  -9.575  14.853  0.00  0.00    +0.054 C 
ATOM     14  C   UNL     1      -8.961  -9.905  17.362  0.00  0.00    +0.010 C 
ATOM     15  C   UNL     1      -6.998 -10.488  18.823  0.00  0.00    +0.123 C 
ATOM     16  C   UNL     1      -6.071 -11.301  15.050  0.00  0.00    +0.049 C 
ATOM     17  C   UNL     1      -8.513 -10.552  18.664  0.00  0.00    +0.032 C 
ATOM     18  C   UNL     1      -8.994 -11.914  15.842  0.00  0.00    +0.012 C 
ATOM     19  C   UNL     1      -7.735  -9.927  13.680  0.00  0.00    +0.058 A 
ATOM     21  C   UNL     1      -4.726 -10.834  17.825  0.00  0.00    +0.016 C 
ATOM     22  C   UNL     1      -6.589 -10.688  13.795  0.00  0.00    +0.015 A 
ATOM     25  C   UNL     1      -7.076  -9.896  11.586  0.00  0.00    +0.165 A 
ATOM     27  C   UNL     1      -7.852  -8.910   9.432  0.00  0.00    +0.285 C 
ATOM     41  H   UNL     1      -6.177 -10.109   9.788  0.00  0.00    +0.157 HD
ENDROOT
BRANCH  27  29
ATOM      6  O   UNL     1      -8.144  -7.965   7.216  0.00  0.00    -0.458 OA
ATOM     29  C   UNL     1      -7.513  -8.880   7.998  0.00  0.00    +0.189 A 
ATOM     32  C   UNL     1      -6.638  -9.633   7.251  0.00  0.00    +0.054 A 
ATOM     35  C   UNL     1      -6.736  -9.149   5.924  0.00  0.00    +0.042 A 
ATOM     37  C   UNL     1      -7.665  -8.136   5.955  0.00  0.00    +0.196 A 
ENDBRANCH  27  29
BRANCH  15   2
ATOM      2  O   UNL     1      -6.644 -11.058  20.083  0.00  0.00    -0.391 OA
ATOM     38  H   UNL     1      -6.304 -10.341  20.645  0.00  0.00    +0.210 HD
ENDBRANCH  15   2
BRANCH  12  20
ATOM     20  C   UNL     1      -6.307 -12.730  17.814  0.00  0.00    +0.165 C 
BRANCH  20   3
ATOM      3  O   UNL     1      -5.191 -13.148  18.568  0.00  0.00    -0.394 OA
ATOM     39  H   UNL     1      -4.414 -13.104  17.984  0.00  0.00    +0.209 HD
ENDBRANCH  20   3
ENDBRANCH  12  20
BRANCH  13  23
ATOM     23  C   UNL     1     -10.089  -9.483  14.443  0.00  0.00    +0.106 C 
BRANCH  23  24
ATOM      4  O   UNL     1     -10.162  -7.319  15.523  0.00  0.00    -0.276 OA
ATOM      8  N   UNL     1     -11.880  -7.943  14.087  0.00  0.00    -0.311 N 
ATOM     24  C   UNL     1     -10.684  -8.130  14.762  0.00  0.00    +0.214 C 
ATOM     40  H   UNL     1     -12.237  -8.687  13.494  0.00  0.00    +0.149 HD
BRANCH   8  26
ATOM     26  C   UNL     1     -12.673  -6.740  14.204  0.00  0.00    +0.139 C 
BRANCH  26  28
ATOM     28  C   UNL     1     -12.479  -5.822  13.033  0.00  0.00    -0.030 A 
ATOM     30  C   UNL     1     -12.455  -4.441  13.225  0.00  0.00    +0.005 A 
ATOM     31  C   UNL     1     -12.321  -6.350  11.751  0.00  0.00    +0.005 A 
ATOM     33  C   UNL     1     -12.273  -3.588  12.137  0.00  0.00    +0.000 A 
ATOM     34  C   UNL     1     -12.139  -5.497  10.662  0.00  0.00    +0.000 A 
ATOM     36  C   UNL     1     -12.116  -4.115  10.855  0.00  0.00    +0.000 A 
ENDBRANCH  26  28
ENDBRANCH   8  26
ENDBRANCH  23  24
ENDBRANCH  13  23
TORSDOF 8
ENDMDL
MODEL 7
REMARK VINA RESULT:      -6.4     25.383     28.293
REMARK  Name = 11883066
REMARK  10 active torsions:
REMARK  status: ('A' for Active; 'I' for Inactive)
REMARK    1  A    between atoms: O_2  and  C_15
REMARK    2  A    between atoms: O_3  and  C_20
REMARK    3  A    between atoms: N_8  and  C_26
REMARK    4  A    between atoms: C_10  and  C_18
REMARK    5  A    between atoms: C_12  and  C_20
REMARK    6  A    between atoms: C_12  and  C_21
REMARK    7  A    between atoms: C_13  and  C_23
REMARK    8  A    between atoms: C_23  and  C_24
REMARK    9  A    between atoms: C_26  and  C_28
REMARK   10  A    between atoms: C_27  and  C_29
REMARK                            x       y       z     vdW  Elec       q    Type
REMARK                         _______ _______ _______ _____ _____    ______ ____
ROOT
ATOM      1  S   UNL     1      17.645  -2.536  30.193  0.00  0.00    -0.057 S 
ATOM      5  O   UNL     1      19.756  -3.142  26.127  0.00  0.00    -0.266 OA
ATOM      7  N   UNL     1      17.849  -4.077  28.126  0.00  0.00    -0.229 NA
ATOM      9  N   UNL     1      19.229  -2.101  28.151  0.00  0.00    -0.258 N 
ATOM     10  C   UNL     1      15.518  -6.573  29.918  0.00  0.00    -0.019 C 
ATOM     11  C   UNL     1      14.743  -5.416  30.690  0.00  0.00    +0.011 C 
ATOM     12  C   UNL     1      13.662  -5.861  31.748  0.00  0.00    +0.021 C 
ATOM     13  C   UNL     1      16.210  -5.928  28.630  0.00  0.00    +0.054 C 
ATOM     14  C   UNL     1      14.504  -7.645  29.443  0.00  0.00    +0.010 C 
ATOM     15  C   UNL     1      12.762  -6.968  31.127  0.00  0.00    +0.123 C 
ATOM     16  C   UNL     1      15.724  -4.327  31.215  0.00  0.00    +0.049 C 
ATOM     17  C   UNL     1      13.557  -8.125  30.533  0.00  0.00    +0.032 C 
ATOM     18  C   UNL     1      16.596  -7.260  30.791  0.00  0.00    +0.012 C 
ATOM     19  C   UNL     1      16.925  -4.648  28.981  0.00  0.00    +0.058 A 
ATOM     21  C   UNL     1      12.744  -4.649  32.077  0.00  0.00    +0.016 C 
ATOM     22  C   UNL     1      16.677  -3.937  30.138  0.00  0.00    +0.015 A 
ATOM     25  C   UNL     1      18.299  -2.965  28.665  0.00  0.00    +0.165 A 
ATOM     27  C   UNL     1      19.915  -2.217  26.920  0.00  0.00    +0.285 C 
ATOM     41  H   UNL     1      19.441  -1.299  28.738  0.00  0.00    +0.157 HD
ENDROOT
BRANCH  27  29
ATOM      6  O   UNL     1      21.637  -0.694  27.695  0.00  0.00    -0.458 OA
ATOM     29  C   UNL     1      20.899  -1.155  26.651  0.00  0.00    +0.189 A 
ATOM     32  C   UNL     1      21.240  -0.499  25.492  0.00  0.00    +0.054 A 
ATOM     35  C   UNL     1      22.254   0.424  25.845  0.00  0.00    +0.042 A 
ATOM     37  C   UNL     1      22.459   0.267  27.195  0.00  0.00    +0.196 A 
ENDBRANCH  27  29
BRANCH  15   2
ATOM      2  O   UNL     1      11.856  -7.484  32.101  0.00  0.00    -0.391 OA
ATOM     38  H   UNL     1      12.384  -7.817  32.847  0.00  0.00    +0.210 HD
ENDBRANCH  15   2
BRANCH  12  20
ATOM     20  C   UNL     1      14.243  -6.321  33.103  0.00  0.00    +0.165 C 
BRANCH  20   3
ATOM      3  O   UNL     1      13.350  -5.913  34.116  0.00  0.00    -0.394 OA
ATOM     39  H   UNL     1      13.283  -4.944  34.070  0.00  0.00    +0.209 HD
ENDBRANCH  20   3
ENDBRANCH  12  20
BRANCH  13  23
ATOM     23  C   UNL     1      17.122  -6.884  27.849  0.00  0.00    +0.106 C 
BRANCH  23  24
ATOM      4  O   UNL     1      15.933  -7.649  25.886  0.00  0.00    -0.276 OA
ATOM      8  N   UNL     1      17.565  -6.008  25.672  0.00  0.00    -0.311 N 
ATOM     24  C   UNL     1      16.786  -6.913  26.376  0.00  0.00    +0.214 C 
ATOM     40  H   UNL     1      18.259  -5.458  26.170  0.00  0.00    +0.149 HD
BRANCH   8  26
ATOM     26  C   UNL     1      17.463  -5.822  24.242  0.00  0.00    +0.139 C 
BRANCH  26  28
ATOM     28  C   UNL     1      17.361  -4.371  23.870  0.00  0.00    -0.030 A 
ATOM     30  C   UNL     1      18.082  -3.878  22.783  0.00  0.00    +0.005 A 
ATOM     31  C   UNL     1      16.544  -3.517  24.611  0.00  0.00    +0.005 A 
ATOM     33  C   UNL     1      17.986  -2.530  22.436  0.00  0.00    +0.000 A 
ATOM     34  C   UNL     1      16.449  -2.168  24.264  0.00  0.00    +0.000 A 
ATOM     36  C   UNL     1      17.171  -1.675  23.177  0.00  0.00    +0.000 A 
ENDBRANCH  26  28
ENDBRANCH   8  26
ENDBRANCH  23  24
ENDBRANCH  13  23
TORSDOF 8
ENDMDL
MODEL 8
REMARK VINA RESULT:      -6.3     16.548     19.079
REMARK  Name = 11883066
REMARK  10 active torsions:
REMARK  status: ('A' for Active; 'I' for Inactive)
REMARK    1  A    between atoms: O_2  and  C_15
REMARK    2  A    between atoms: O_3  and  C_20
REMARK    3  A    between atoms: N_8  and  C_26
REMARK    4  A    between atoms: C_10  and  C_18
REMARK    5  A    between atoms: C_12  and  C_20
REMARK    6  A    between atoms: C_12  and  C_21
REMARK    7  A    between atoms: C_13  and  C_23
REMARK    8  A    between atoms: C_23  and  C_24
REMARK    9  A    between atoms: C_26  and  C_28
REMARK   10  A    between atoms: C_27  and  C_29
REMARK                            x       y       z     vdW  Elec       q    Type
REMARK                         _______ _______ _______ _____ _____    ______ ____
ROOT
ATOM      1  S   UNL     1      18.666 -10.061  -1.434  0.00  0.00    -0.057 S 
ATOM      5  O   UNL     1      18.510 -14.185   0.647  0.00  0.00    -0.266 OA
ATOM      7  N   UNL     1      19.422 -11.415   0.636  0.00  0.00    -0.229 NA
ATOM      9  N   UNL     1      18.087 -12.580  -0.997  0.00  0.00    -0.258 N 
ATOM     10  C   UNL     1      21.533  -8.366   1.697  0.00  0.00    -0.019 C 
ATOM     11  C   UNL     1      20.517  -7.333   1.035  0.00  0.00    +0.011 C 
ATOM     12  C   UNL     1      20.935  -5.813   1.045  0.00  0.00    +0.021 C 
ATOM     13  C   UNL     1      20.742  -9.728   1.969  0.00  0.00    +0.054 C 
ATOM     14  C   UNL     1      22.025  -7.805   3.057  0.00  0.00    +0.010 C 
ATOM     15  C   UNL     1      21.443  -5.431   2.464  0.00  0.00    +0.123 C 
ATOM     16  C   UNL     1      20.017  -7.838  -0.351  0.00  0.00    +0.049 C 
ATOM     17  C   UNL     1      22.524  -6.370   2.987  0.00  0.00    +0.032 C 
ATOM     18  C   UNL     1      22.764  -8.655   0.803  0.00  0.00    +0.012 C 
ATOM     19  C   UNL     1      19.933 -10.136   0.765  0.00  0.00    +0.058 A 
ATOM     21  C   UNL     1      19.680  -4.941   0.753  0.00  0.00    +0.016 C 
ATOM     22  C   UNL     1      19.604  -9.267  -0.255  0.00  0.00    +0.015 A 
ATOM     25  C   UNL     1      18.744 -11.492  -0.488  0.00  0.00    +0.165 A 
ATOM     27  C   UNL     1      17.994 -13.868  -0.423  0.00  0.00    +0.285 C 
ATOM     41  H   UNL     1      17.628 -12.425  -1.891  0.00  0.00    +0.157 HD
ENDROOT
BRANCH  27  29
ATOM      6  O   UNL     1      17.871 -15.371  -2.323  0.00  0.00    -0.458 OA
ATOM     29  C   UNL     1      17.256 -14.858  -1.226  0.00  0.00    +0.189 A 
ATOM     32  C   UNL     1      16.000 -15.398  -1.080  0.00  0.00    +0.054 A 
ATOM     35  C   UNL     1      15.832 -16.302  -2.157  0.00  0.00    +0.042 A 
ATOM     37  C   UNL     1      16.998 -16.249  -2.884  0.00  0.00    +0.196 A 
ENDBRANCH  27  29
BRANCH  15   2
ATOM      2  O   UNL     1      21.950  -4.096   2.474  0.00  0.00    -0.391 OA
ATOM     38  H   UNL     1      22.299  -3.908   1.586  0.00  0.00    +0.210 HD
ENDBRANCH  15   2
BRANCH  12  20
ATOM     20  C   UNL     1      21.969  -5.425  -0.034  0.00  0.00    +0.165 C 
BRANCH  20   3
ATOM      3  O   UNL     1      21.515  -4.248  -0.664  0.00  0.00    -0.394 OA
ATOM     39  H   UNL     1      21.103  -3.693   0.021  0.00  0.00    +0.209 HD
ENDBRANCH  20   3
ENDBRANCH  12  20
BRANCH  13  23
ATOM     23  C   UNL     1      21.618 -10.883   2.475  0.00  0.00    +0.106 C 
BRANCH  23  24
ATOM      4  O   UNL     1      21.500 -11.348   4.847  0.00  0.00    -0.276 OA
ATOM      8  N   UNL     1      19.961 -12.329   3.408  0.00  0.00    -0.311 N 
ATOM     24  C   UNL     1      21.047 -11.525   3.719  0.00  0.00    +0.214 C 
ATOM     40  H   UNL     1      19.677 -12.424   2.437  0.00  0.00    +0.149 HD
BRANCH   8  26
ATOM     26  C   UNL     1      19.218 -13.072   4.400  0.00  0.00    +0.139 C 
BRANCH  26  28
ATOM     28  C   UNL     1      17.784 -13.265   4.000  0.00  0.00    -0.030 A 
ATOM     30  C   UNL     1      17.124 -14.451   4.320  0.00  0.00    +0.005 A 
ATOM     31  C   UNL     1      17.110 -12.257   3.310  0.00  0.00    +0.005 A 
ATOM     33  C   UNL     1      15.791 -14.630   3.950  0.00  0.00    +0.000 A 
ATOM     34  C   UNL     1      15.777 -12.436   2.939  0.00  0.00    +0.000 A 
ATOM     36  C   UNL     1      15.118 -13.624   3.258  0.00  0.00    +0.000 A 
ENDBRANCH  26  28
ENDBRANCH   8  26
ENDBRANCH  23  24
ENDBRANCH  13  23
TORSDOF 8
ENDMDL
MODEL 9
REMARK VINA RESULT:      -6.2     25.554     28.169
REMARK  Name = 11883066
REMARK  10 active torsions:
REMARK  status: ('A' for Active; 'I' for Inactive)
REMARK    1  A    between atoms: O_2  and  C_15
REMARK    2  A    between atoms: O_3  and  C_20
REMARK    3  A    between atoms: N_8  and  C_26
REMARK    4  A    between atoms: C_10  and  C_18
REMARK    5  A    between atoms: C_12  and  C_20
REMARK    6  A    between atoms: C_12  and  C_21
REMARK    7  A    between atoms: C_13  and  C_23
REMARK    8  A    between atoms: C_23  and  C_24
REMARK    9  A    between atoms: C_26  and  C_28
REMARK   10  A    between atoms: C_27  and  C_29
REMARK                            x       y       z     vdW  Elec       q    Type
REMARK                         _______ _______ _______ _____ _____    ______ ____
ROOT
ATOM      1  S   UNL     1      15.829  -3.363  31.755  0.00  0.00    -0.057 S 
ATOM      5  O   UNL     1      17.988   0.720  31.582  0.00  0.00    -0.266 OA
ATOM      7  N   UNL     1      17.611  -1.966  30.506  0.00  0.00    -0.229 NA
ATOM      9  N   UNL     1      16.504  -0.906  32.367  0.00  0.00    -0.258 N 
ATOM     10  C   UNL     1      18.443  -5.113  28.439  0.00  0.00    -0.019 C 
ATOM     11  C   UNL     1      16.951  -5.662  28.528  0.00  0.00    +0.011 C 
ATOM     12  C   UNL     1      16.676  -7.089  27.916  0.00  0.00    +0.021 C 
ATOM     13  C   UNL     1      18.404  -3.537  28.699  0.00  0.00    +0.054 C 
ATOM     14  C   UNL     1      18.999  -5.360  27.012  0.00  0.00    +0.010 C 
ATOM     15  C   UNL     1      17.338  -7.181  26.512  0.00  0.00    +0.123 C 
ATOM     16  C   UNL     1      16.356  -5.464  29.953  0.00  0.00    +0.049 C 
ATOM     17  C   UNL     1      18.810  -6.785  26.515  0.00  0.00    +0.032 C 
ATOM     18  C   UNL     1      19.391  -5.781  29.465  0.00  0.00    +0.012 C 
ATOM     19  C   UNL     1      17.550  -3.204  29.896  0.00  0.00    +0.058 A 
ATOM     21  C   UNL     1      15.143  -7.269  27.718  0.00  0.00    +0.016 C 
ATOM     22  C   UNL     1      16.625  -4.078  30.430  0.00  0.00    +0.015 A 
ATOM     25  C   UNL     1      16.753  -1.939  31.503  0.00  0.00    +0.165 A 
ATOM     27  C   UNL     1      17.120   0.367  32.377  0.00  0.00    +0.285 C 
ATOM     41  H   UNL     1      15.801  -1.098  33.075  0.00  0.00    +0.157 HD
ENDROOT
BRANCH  27  29
ATOM      6  O   UNL     1      16.868   0.852  34.741  0.00  0.00    -0.458 OA
ATOM     29  C   UNL     1      16.681   1.264  33.460  0.00  0.00    +0.189 A 
ATOM     32  C   UNL     1      16.087   2.504  33.433  0.00  0.00    +0.054 A 
ATOM     35  C   UNL     1      15.897   2.879  34.785  0.00  0.00    +0.042 A 
ATOM     37  C   UNL     1      16.388   1.841  35.541  0.00  0.00    +0.196 A 
ENDBRANCH  27  29
BRANCH  15   2
ATOM      2  O   UNL     1      17.218  -8.502  25.986  0.00  0.00    -0.391 OA
ATOM     38  H   UNL     1      16.972  -8.425  25.048  0.00  0.00    +0.210 HD
ENDBRANCH  15   2
BRANCH  12  20
ATOM     20  C   UNL     1      17.118  -8.266  28.812  0.00  0.00    +0.165 C 
BRANCH  20   3
ATOM      3  O   UNL     1      16.272  -9.360  28.536  0.00  0.00    -0.394 OA
ATOM     39  H   UNL     1      16.473 -10.054  29.189  0.00  0.00    +0.209 HD
ENDBRANCH  20   3
ENDBRANCH  12  20
BRANCH  13  23
ATOM     23  C   UNL     1      19.785  -2.872  28.792  0.00  0.00    +0.106 C 
BRANCH  23  24
ATOM      4  O   UNL     1      20.913  -1.050  27.669  0.00  0.00    -0.276 OA
ATOM      8  N   UNL     1      19.094  -2.075  26.648  0.00  0.00    -0.311 N 
ATOM     24  C   UNL     1      20.019  -1.892  27.665  0.00  0.00    +0.214 C 
ATOM     40  H   UNL     1      18.379  -2.789  26.751  0.00  0.00    +0.149 HD
BRANCH   8  26
ATOM     26  C   UNL     1      19.075  -1.276  25.444  0.00  0.00    +0.139 C 
BRANCH  26  28
ATOM     28  C   UNL     1      17.935  -1.645  24.541  0.00  0.00    -0.030 A 
ATOM     30  C   UNL     1      17.010  -2.609  24.944  0.00  0.00    +0.005 A 
ATOM     31  C   UNL     1      17.799  -1.025  23.299  0.00  0.00    +0.005 A 
ATOM     33  C   UNL     1      15.949  -2.952  24.106  0.00  0.00    +0.000 A 
ATOM     34  C   UNL     1      16.738  -1.368  22.460  0.00  0.00    +0.000 A 
ATOM     36  C   UNL     1      15.814  -2.332  22.864  0.00  0.00    +0.000 A 
ENDBRANCH  26  28
ENDBRANCH   8  26
ENDBRANCH  23  24
ENDBRANCH  13  23
TORSDOF 8
ENDMDL
MODEL 10
REMARK VINA RESULT:      -6.1     14.974     19.562
REMARK  Name = 11883066
REMARK  10 active torsions:
REMARK  status: ('A' for Active; 'I' for Inactive)
REMARK    1  A    between atoms: O_2  and  C_15
REMARK    2  A    between atoms: O_3  and  C_20
REMARK    3  A    between atoms: N_8  and  C_26
REMARK    4  A    between atoms: C_10  and  C_18
REMARK    5  A    between atoms: C_12  and  C_20
REMARK    6  A    between atoms: C_12  and  C_21
REMARK    7  A    between atoms: C_13  and  C_23
REMARK    8  A    between atoms: C_23  and  C_24
REMARK    9  A    between atoms: C_26  and  C_28
REMARK   10  A    between atoms: C_27  and  C_29
REMARK                            x       y       z     vdW  Elec       q    Type
REMARK                         _______ _______ _______ _____ _____    ______ ____
ROOT
ATOM      1  S   UNL     1      -1.421  12.321   8.052  0.00  0.00    -0.057 S 
ATOM      5  O   UNL     1       2.803  12.205   6.178  0.00  0.00    -0.266 OA
ATOM      7  N   UNL     1      -0.047  11.618   5.976  0.00  0.00    -0.229 NA
ATOM      9  N   UNL     1       1.167  12.648   7.786  0.00  0.00    -0.258 N 
ATOM     10  C   UNL     1      -3.245   9.981   4.576  0.00  0.00    -0.019 C 
ATOM     11  C   UNL     1      -4.195  11.039   5.293  0.00  0.00    +0.011 C 
ATOM     12  C   UNL     1      -5.749  10.800   5.174  0.00  0.00    +0.021 C 
ATOM     13  C   UNL     1      -1.793  10.633   4.444  0.00  0.00    +0.054 C 
ATOM     14  C   UNL     1      -3.782   9.689   3.150  0.00  0.00    +0.010 C 
ATOM     15  C   UNL     1      -6.107  10.478   3.695  0.00  0.00    +0.123 C 
ATOM     16  C   UNL     1      -3.716  11.343   6.742  0.00  0.00    +0.049 C 
ATOM     17  C   UNL     1      -5.265   9.352   3.106  0.00  0.00    +0.032 C 
ATOM     18  C   UNL     1      -3.141   8.644   5.351  0.00  0.00    +0.012 C 
ATOM     19  C   UNL     1      -1.364  11.271   5.741  0.00  0.00    +0.058 A 
ATOM     21  C   UNL     1      -6.494  12.113   5.554  0.00  0.00    +0.016 C 
ATOM     22  C   UNL     1      -2.247  11.597   6.750  0.00  0.00    +0.015 A 
ATOM     25  C   UNL     1       0.043  12.171   7.166  0.00  0.00    +0.165 A 
ATOM     27  C   UNL     1       2.486  12.649   7.280  0.00  0.00    +0.285 C 
ATOM     41  H   UNL     1       1.015  13.033   8.714  0.00  0.00    +0.157 HD
ENDROOT
BRANCH  27  29
ATOM      6  O   UNL     1       3.338  12.979   9.528  0.00  0.00    -0.458 OA
ATOM     29  C   UNL     1       3.506  13.188   8.196  0.00  0.00    +0.189 A 
ATOM     32  C   UNL     1       4.659  13.900   7.961  0.00  0.00    +0.054 A 
ATOM     35  C   UNL     1       5.237  14.144   9.231  0.00  0.00    +0.042 A 
ATOM     37  C   UNL     1       4.395  13.564  10.150  0.00  0.00    +0.196 A 
ENDBRANCH  27  29
BRANCH  15   2
ATOM      2  O   UNL     1      -7.486  10.130   3.577  0.00  0.00    -0.391 OA
ATOM     38  H   UNL     1      -7.549   9.160   3.606  0.00  0.00    +0.210 HD
ENDBRANCH  15   2
BRANCH  12  20
ATOM     20  C   UNL     1      -6.306   9.718   6.125  0.00  0.00    +0.165 C 
BRANCH  20   3
ATOM      3  O   UNL     1      -7.597  10.119   6.527  0.00  0.00    -0.394 OA
ATOM     39  H   UNL     1      -8.058   9.327   6.853  0.00  0.00    +0.209 HD
ENDBRANCH  20   3
ENDBRANCH  12  20
BRANCH  13  23
ATOM     23  C   UNL     1      -0.715   9.685   3.902  0.00  0.00    +0.106 C 
BRANCH  23  24
ATOM      4  O   UNL     1       0.831  11.036   2.623  0.00  0.00    -0.276 OA
ATOM      8  N   UNL     1      -0.664   9.645   1.514  0.00  0.00    -0.311 N 
ATOM     24  C   UNL     1      -0.079  10.212   2.636  0.00  0.00    +0.214 C 
ATOM     40  H   UNL     1      -1.428   8.985   1.633  0.00  0.00    +0.149 HD
BRANCH   8  26
ATOM     26  C   UNL     1      -0.259   9.966   0.164  0.00  0.00    +0.139 C 
BRANCH  26  28
ATOM     28  C   UNL     1      -1.428  10.025  -0.775  0.00  0.00    -0.030 A 
ATOM     30  C   UNL     1      -2.685   9.590  -0.353  0.00  0.00    +0.005 A 
ATOM     31  C   UNL     1      -1.259  10.516  -2.070  0.00  0.00    +0.005 A 
ATOM     33  C   UNL     1      -3.772   9.645  -1.226  0.00  0.00    +0.000 A 
ATOM     34  C   UNL     1      -2.347  10.571  -2.943  0.00  0.00    +0.000 A 
ATOM     36  C   UNL     1      -3.603  10.135  -2.520  0.00  0.00    +0.000 A 
ENDBRANCH  26  28
ENDBRANCH   8  26
ENDBRANCH  23  24
ENDBRANCH  13  23
TORSDOF 8
ENDMDL
