MODEL 1
REMARK VINA RESULT:      -6.4      0.000      0.000
REMARK  Name = 25390218
REMARK  14 active torsions:
REMARK  status: ('A' for Active; 'I' for Inactive)
REMARK    1  A    between atoms: O_2  and  C_8
REMARK    2  A    between atoms: O_3  and  C_10
REMARK    3  A    between atoms: N_6  and  C_12
REMARK    4  A    between atoms: N_7  and  C_19
REMARK    5  A    between atoms: N_7  and  C_20
REMARK    6  A    between atoms: C_9  and  C_12
REMARK    7  A    between atoms: C_11  and  C_13
REMARK    8  A    between atoms: C_13  and  C_14
REMARK    9  A    between atoms: C_15  and  C_16
REMARK   10  A    between atoms: C_15  and  C_17
REMARK   11  A    between atoms: C_15  and  C_18
REMARK   12  A    between atoms: C_17  and  C_21
REMARK   13  A    between atoms: C_18  and  C_22
REMARK   14  A    between atoms: C_19  and  C_23
REMARK                            x       y       z     vdW  Elec       q    Type
REMARK                         _______ _______ _______ _____ _____    ______ ____
ROOT
ATOM      1  O   UNL     1      -6.426 -11.359  16.512  0.00  0.00    -0.366 OA
ATOM      8  C   UNL     1      -6.335 -10.562  18.729  0.00  0.00    +0.176 C 
ATOM      9  C   UNL     1      -7.162 -10.559  17.453  0.00  0.00    +0.167 C 
ATOM     10  C   UNL     1      -5.759 -11.963  18.714  0.00  0.00    +0.175 C 
ATOM     11  C   UNL     1      -5.470 -12.171  17.231  0.00  0.00    +0.159 C 
ENDROOT
BRANCH   8   2
ATOM      2  O   UNL     1      -7.121 -10.292  19.870  0.00  0.00    -0.387 OA
ATOM     30  H   UNL     1      -7.536  -9.423  19.740  0.00  0.00    +0.210 HD
ENDBRANCH   8   2
BRANCH  10   3
ATOM      3  O   UNL     1      -6.751 -12.910  19.108  0.00  0.00    -0.387 OA
ATOM     31  H   UNL     1      -7.580 -12.421  19.248  0.00  0.00    +0.210 HD
ENDBRANCH  10   3
BRANCH   9  12
ATOM     12  C   UNL     1      -7.381  -9.169  16.882  0.00  0.00    +0.138 C 
BRANCH  12   6
ATOM      5  O   UNL     1      -9.597  -8.430  15.208  0.00  0.00    -0.276 OA
ATOM      6  N   UNL     1      -8.643  -8.614  17.313  0.00  0.00    -0.313 N 
ATOM     16  C   UNL     1      -9.659  -8.287  16.427  0.00  0.00    +0.216 C 
ATOM     29  H   UNL     1      -8.777  -8.462  18.309  0.00  0.00    +0.149 HD
BRANCH  16  15
ATOM     15  C   UNL     1     -10.886  -7.701  17.134  0.00  0.00    +0.074 C 
BRANCH  15  17
ATOM     17  C   UNL     1     -12.050  -8.706  17.205  0.00  0.00    +0.009 C 
ATOM     21  C   UNL     1     -12.003  -9.561  18.466  0.00  0.00    +0.004 C 
ENDBRANCH  15  17
BRANCH  15  18
ATOM     18  C   UNL     1     -11.306  -6.379  16.459  0.00  0.00    +0.009 C 
ATOM     22  C   UNL     1     -12.675  -6.411  15.790  0.00  0.00    +0.004 C 
ENDBRANCH  15  18
ENDBRANCH  16  15
ENDBRANCH  12   6
ENDBRANCH   9  12
BRANCH  11  13
ATOM     13  C   UNL     1      -4.075 -11.716  16.827  0.00  0.00    +0.130 C 
BRANCH  13  14
ATOM      4  O   UNL     1      -4.293 -13.164  14.931  0.00  0.00    -0.276 OA
ATOM      7  N   UNL     1      -2.502 -11.691  14.907  0.00  0.00    -0.300 N 
ATOM     14  C   UNL     1      -3.646 -12.264  15.471  0.00  0.00    +0.218 C 
ATOM     20  C   UNL     1      -1.753 -10.628  15.566  0.00  0.00    +0.132 C 
BRANCH   7  19
ATOM     19  C   UNL     1      -1.971 -12.114  13.613  0.00  0.00    +0.142 C 
BRANCH  19  23
ATOM     23  C   UNL     1      -2.441 -11.228  12.495  0.00  0.00    -0.030 A 
ATOM     24  C   UNL     1      -3.714 -11.406  11.954  0.00  0.00    +0.005 A 
ATOM     25  C   UNL     1      -1.605 -10.229  11.999  0.00  0.00    +0.005 A 
ATOM     26  C   UNL     1      -4.152 -10.583  10.916  0.00  0.00    +0.000 A 
ATOM     27  C   UNL     1      -2.043  -9.406  10.962  0.00  0.00    +0.000 A 
ATOM     28  C   UNL     1      -3.316  -9.583  10.419  0.00  0.00    +0.000 A 
ENDBRANCH  19  23
ENDBRANCH   7  19
ENDBRANCH  13  14
ENDBRANCH  11  13
TORSDOF 11
ENDMDL
MODEL 2
REMARK VINA RESULT:      -6.2     26.768     28.815
REMARK  Name = 25390218
REMARK  14 active torsions:
REMARK  status: ('A' for Active; 'I' for Inactive)
REMARK    1  A    between atoms: O_2  and  C_8
REMARK    2  A    between atoms: O_3  and  C_10
REMARK    3  A    between atoms: N_6  and  C_12
REMARK    4  A    between atoms: N_7  and  C_19
REMARK    5  A    between atoms: N_7  and  C_20
REMARK    6  A    between atoms: C_9  and  C_12
REMARK    7  A    between atoms: C_11  and  C_13
REMARK    8  A    between atoms: C_13  and  C_14
REMARK    9  A    between atoms: C_15  and  C_16
REMARK   10  A    between atoms: C_15  and  C_17
REMARK   11  A    between atoms: C_15  and  C_18
REMARK   12  A    between atoms: C_17  and  C_21
REMARK   13  A    between atoms: C_18  and  C_22
REMARK   14  A    between atoms: C_19  and  C_23
REMARK                            x       y       z     vdW  Elec       q    Type
REMARK                         _______ _______ _______ _____ _____    ______ ____
ROOT
ATOM      1  O   UNL     1      11.546   6.736  20.450  0.00  0.00    -0.366 OA
ATOM      8  C   UNL     1      13.210   8.223  21.214  0.00  0.00    +0.176 C 
ATOM      9  C   UNL     1      11.916   7.522  21.596  0.00  0.00    +0.167 C 
ATOM     10  C   UNL     1      13.883   7.169  20.358  0.00  0.00    +0.175 C 
ATOM     11  C   UNL     1      12.703   6.576  19.597  0.00  0.00    +0.159 C 
ENDROOT
BRANCH   8   2
ATOM      2  O   UNL     1      13.967   8.592  22.346  0.00  0.00    -0.387 OA
ATOM     30  H   UNL     1      13.650   9.464  22.637  0.00  0.00    +0.210 HD
ENDBRANCH   8   2
BRANCH  10   3
ATOM      3  O   UNL     1      14.439   6.144  21.182  0.00  0.00    -0.387 OA
ATOM     31  H   UNL     1      15.294   5.891  20.793  0.00  0.00    +0.210 HD
ENDBRANCH  10   3
BRANCH   9  12
ATOM     12  C   UNL     1      10.792   8.483  21.942  0.00  0.00    +0.138 C 
BRANCH  12   6
ATOM      5  O   UNL     1      10.828  10.540  23.948  0.00  0.00    -0.276 OA
ATOM      6  N   UNL     1      11.198   9.857  21.764  0.00  0.00    -0.313 N 
ATOM     16  C   UNL     1      11.182  10.783  22.797  0.00  0.00    +0.216 C 
ATOM     29  H   UNL     1      11.505  10.143  20.838  0.00  0.00    +0.149 HD
BRANCH  16  15
ATOM     15  C   UNL     1      11.643  12.173  22.345  0.00  0.00    +0.074 C 
BRANCH  15  17
ATOM     17  C   UNL     1      12.317  12.141  20.962  0.00  0.00    +0.009 C 
ATOM     21  C   UNL     1      12.297  13.501  20.274  0.00  0.00    +0.004 C 
ENDBRANCH  15  17
BRANCH  15  18
ATOM     18  C   UNL     1      12.555  12.804  23.417  0.00  0.00    +0.009 C 
ATOM     22  C   UNL     1      13.943  12.185  23.518  0.00  0.00    +0.004 C 
ENDBRANCH  15  18
ENDBRANCH  16  15
ENDBRANCH  12   6
ENDBRANCH   9  12
BRANCH  11  13
ATOM     13  C   UNL     1      12.418   7.295  18.286  0.00  0.00    +0.130 C 
BRANCH  13  14
ATOM      4  O   UNL     1      14.612   7.381  17.328  0.00  0.00    -0.276 OA
ATOM      7  N   UNL     1      13.575   9.417  17.724  0.00  0.00    -0.300 N 
ATOM     14  C   UNL     1      13.639   8.020  17.734  0.00  0.00    +0.218 C 
ATOM     20  C   UNL     1      12.413  10.151  18.210  0.00  0.00    +0.132 C 
BRANCH   7  19
ATOM     19  C   UNL     1      14.670  10.247  17.225  0.00  0.00    +0.142 C 
BRANCH  19  23
ATOM     23  C   UNL     1      15.196  11.177  18.279  0.00  0.00    -0.030 A 
ATOM     24  C   UNL     1      15.556  10.679  19.532  0.00  0.00    +0.005 A 
ATOM     25  C   UNL     1      15.327  12.538  18.007  0.00  0.00    +0.005 A 
ATOM     26  C   UNL     1      16.046  11.541  20.511  0.00  0.00    +0.000 A 
ATOM     27  C   UNL     1      15.817  13.401  18.986  0.00  0.00    +0.000 A 
ATOM     28  C   UNL     1      16.176  12.903  20.239  0.00  0.00    +0.000 A 
ENDBRANCH  19  23
ENDBRANCH   7  19
ENDBRANCH  13  14
ENDBRANCH  11  13
TORSDOF 11
ENDMDL
MODEL 3
REMARK VINA RESULT:      -6.2     27.113     29.620
REMARK  Name = 25390218
REMARK  14 active torsions:
REMARK  status: ('A' for Active; 'I' for Inactive)
REMARK    1  A    between atoms: O_2  and  C_8
REMARK    2  A    between atoms: O_3  and  C_10
REMARK    3  A    between atoms: N_6  and  C_12
REMARK    4  A    between atoms: N_7  and  C_19
REMARK    5  A    between atoms: N_7  and  C_20
REMARK    6  A    between atoms: C_9  and  C_12
REMARK    7  A    between atoms: C_11  and  C_13
REMARK    8  A    between atoms: C_13  and  C_14
REMARK    9  A    between atoms: C_15  and  C_16
REMARK   10  A    between atoms: C_15  and  C_17
REMARK   11  A    between atoms: C_15  and  C_18
REMARK   12  A    between atoms: C_17  and  C_21
REMARK   13  A    between atoms: C_18  and  C_22
REMARK   14  A    between atoms: C_19  and  C_23
REMARK                            x       y       z     vdW  Elec       q    Type
REMARK                         _______ _______ _______ _____ _____    ______ ____
ROOT
ATOM      1  O   UNL     1      11.551  10.638  20.848  0.00  0.00    -0.366 OA
ATOM      8  C   UNL     1      13.443   9.558  21.750  0.00  0.00    +0.176 C 
ATOM      9  C   UNL     1      12.611  10.829  21.801  0.00  0.00    +0.167 C 
ATOM     10  C   UNL     1      12.377   8.508  21.508  0.00  0.00    +0.175 C 
ATOM     11  C   UNL     1      11.434   9.228  20.551  0.00  0.00    +0.159 C 
ENDROOT
BRANCH   8   2
ATOM      2  O   UNL     1      14.170   9.352  22.941  0.00  0.00    -0.387 OA
ATOM     30  H   UNL     1      14.316  10.223  23.347  0.00  0.00    +0.210 HD
ENDBRANCH   8   2
BRANCH  10   3
ATOM      3  O   UNL     1      11.665   8.239  22.714  0.00  0.00    -0.387 OA
ATOM     31  H   UNL     1      11.800   7.300  22.929  0.00  0.00    +0.210 HD
ENDBRANCH  10   3
BRANCH   9  12
ATOM     12  C   UNL     1      13.399  12.078  21.447  0.00  0.00    +0.138 C 
BRANCH  12   6
ATOM      5  O   UNL     1      15.189  12.774  19.310  0.00  0.00    -0.276 OA
ATOM      6  N   UNL     1      14.816  11.808  21.384  0.00  0.00    -0.313 N 
ATOM     16  C   UNL     1      15.603  12.185  20.306  0.00  0.00    +0.216 C 
ATOM     29  H   UNL     1      15.240  11.322  22.168  0.00  0.00    +0.149 HD
BRANCH  16  15
ATOM     15  C   UNL     1      17.068  11.769  20.475  0.00  0.00    +0.074 C 
BRANCH  15  17
ATOM     17  C   UNL     1      17.937  12.203  19.282  0.00  0.00    +0.009 C 
ATOM     21  C   UNL     1      19.389  12.445  19.679  0.00  0.00    +0.004 C 
ENDBRANCH  15  17
BRANCH  15  18
ATOM     18  C   UNL     1      17.161  10.251  20.734  0.00  0.00    +0.009 C 
ATOM     22  C   UNL     1      18.151   9.850  21.821  0.00  0.00    +0.004 C 
ENDBRANCH  15  18
ENDBRANCH  16  15
ENDBRANCH  12   6
ENDBRANCH   9  12
BRANCH  11  13
ATOM     13  C   UNL     1      11.802   9.028  19.088  0.00  0.00    +0.130 C 
BRANCH  13  14
ATOM      4  O   UNL     1      12.045   6.645  19.016  0.00  0.00    -0.276 OA
ATOM      7  N   UNL     1      13.911   7.894  18.437  0.00  0.00    -0.300 N 
ATOM     14  C   UNL     1      12.583   7.742  18.847  0.00  0.00    +0.218 C 
ATOM     20  C   UNL     1      14.526   9.201  18.245  0.00  0.00    +0.132 C 
BRANCH   7  19
ATOM     19  C   UNL     1      14.783   6.752  18.169  0.00  0.00    +0.142 C 
BRANCH  19  23
ATOM     23  C   UNL     1      15.815   6.567  19.245  0.00  0.00    -0.030 A 
ATOM     24  C   UNL     1      15.468   6.759  20.582  0.00  0.00    +0.005 A 
ATOM     25  C   UNL     1      17.118   6.203  18.907  0.00  0.00    +0.005 A 
ATOM     26  C   UNL     1      16.425   6.586  21.582  0.00  0.00    +0.000 A 
ATOM     27  C   UNL     1      18.074   6.031  19.907  0.00  0.00    +0.000 A 
ATOM     28  C   UNL     1      17.728   6.223  21.245  0.00  0.00    +0.000 A 
ENDBRANCH  19  23
ENDBRANCH   7  19
ENDBRANCH  13  14
ENDBRANCH  11  13
TORSDOF 11
ENDMDL
MODEL 4
REMARK VINA RESULT:      -6.1     24.079     27.333
REMARK  Name = 25390218
REMARK  14 active torsions:
REMARK  status: ('A' for Active; 'I' for Inactive)
REMARK    1  A    between atoms: O_2  and  C_8
REMARK    2  A    between atoms: O_3  and  C_10
REMARK    3  A    between atoms: N_6  and  C_12
REMARK    4  A    between atoms: N_7  and  C_19
REMARK    5  A    between atoms: N_7  and  C_20
REMARK    6  A    between atoms: C_9  and  C_12
REMARK    7  A    between atoms: C_11  and  C_13
REMARK    8  A    between atoms: C_13  and  C_14
REMARK    9  A    between atoms: C_15  and  C_16
REMARK   10  A    between atoms: C_15  and  C_17
REMARK   11  A    between atoms: C_15  and  C_18
REMARK   12  A    between atoms: C_17  and  C_21
REMARK   13  A    between atoms: C_18  and  C_22
REMARK   14  A    between atoms: C_19  and  C_23
REMARK                            x       y       z     vdW  Elec       q    Type
REMARK                         _______ _______ _______ _____ _____    ______ ____
ROOT
ATOM      1  O   UNL     1      11.058   6.917   7.327  0.00  0.00    -0.366 OA
ATOM      8  C   UNL     1      10.003   5.165   6.152  0.00  0.00    +0.176 C 
ATOM      9  C   UNL     1      11.270   6.002   6.238  0.00  0.00    +0.167 C 
ATOM     10  C   UNL     1       9.621   5.043   7.613  0.00  0.00    +0.175 C 
ATOM     11  C   UNL     1       9.976   6.426   8.150  0.00  0.00    +0.159 C 
ENDROOT
BRANCH   8   2
ATOM      2  O   UNL     1      10.231   3.921   5.528  0.00  0.00    -0.387 OA
ATOM     30  H   UNL     1       9.409   3.405   5.597  0.00  0.00    +0.210 HD
ENDBRANCH   8   2
BRANCH  10   3
ATOM      3  O   UNL     1      10.456   4.087   8.264  0.00  0.00    -0.387 OA
ATOM     31  H   UNL     1       9.982   3.238   8.261  0.00  0.00    +0.210 HD
ENDBRANCH  10   3
BRANCH   9  12
ATOM     12  C   UNL     1      11.565   6.778   4.967  0.00  0.00    +0.138 C 
BRANCH  12   6
ATOM      5  O   UNL     1      10.246   7.080   2.432  0.00  0.00    -0.276 OA
ATOM      6  N   UNL     1      11.674   5.900   3.825  0.00  0.00    -0.313 N 
ATOM     16  C   UNL     1      10.997   6.128   2.637  0.00  0.00    +0.216 C 
ATOM     29  H   UNL     1      12.276   5.085   3.911  0.00  0.00    +0.149 HD
BRANCH  16  15
ATOM     15  C   UNL     1      11.268   5.044   1.589  0.00  0.00    +0.074 C 
BRANCH  15  17
ATOM     17  C   UNL     1      10.018   4.718   0.753  0.00  0.00    +0.009 C 
ATOM     21  C   UNL     1      10.144   5.194  -0.689  0.00  0.00    +0.004 C 
ENDBRANCH  15  17
BRANCH  15  18
ATOM     18  C   UNL     1      11.854   3.787   2.266  0.00  0.00    +0.009 C 
ATOM     22  C   UNL     1      13.031   3.158   1.531  0.00  0.00    +0.004 C 
ENDBRANCH  15  18
ENDBRANCH  16  15
ENDBRANCH  12   6
ENDBRANCH   9  12
BRANCH  11  13
ATOM     13  C   UNL     1       8.826   7.417   8.050  0.00  0.00    +0.130 C 
BRANCH  13  14
ATOM      4  O   UNL     1       9.900   9.526   8.428  0.00  0.00    -0.276 OA
ATOM      7  N   UNL     1       8.962   9.203   6.332  0.00  0.00    -0.300 N 
ATOM     14  C   UNL     1       9.284   8.810   7.635  0.00  0.00    +0.218 C 
ATOM     20  C   UNL     1       8.232   8.339   5.412  0.00  0.00    +0.132 C 
BRANCH   7  19
ATOM     19  C   UNL     1       9.334  10.509   5.793  0.00  0.00    +0.142 C 
BRANCH  19  23
ATOM     23  C   UNL     1      10.599  10.445   4.986  0.00  0.00    -0.030 A 
ATOM     24  C   UNL     1      11.836  10.431   5.629  0.00  0.00    +0.005 A 
ATOM     25  C   UNL     1      10.535  10.399   3.593  0.00  0.00    +0.005 A 
ATOM     26  C   UNL     1      13.011  10.371   4.880  0.00  0.00    +0.000 A 
ATOM     27  C   UNL     1      11.710  10.339   2.845  0.00  0.00    +0.000 A 
ATOM     28  C   UNL     1      12.948  10.325   3.487  0.00  0.00    +0.000 A 
ENDBRANCH  19  23
ENDBRANCH   7  19
ENDBRANCH  13  14
ENDBRANCH  11  13
TORSDOF 11
ENDMDL
MODEL 5
REMARK VINA RESULT:      -6.0      1.837      7.640
REMARK  Name = 25390218
REMARK  14 active torsions:
REMARK  status: ('A' for Active; 'I' for Inactive)
REMARK    1  A    between atoms: O_2  and  C_8
REMARK    2  A    between atoms: O_3  and  C_10
REMARK    3  A    between atoms: N_6  and  C_12
REMARK    4  A    between atoms: N_7  and  C_19
REMARK    5  A    between atoms: N_7  and  C_20
REMARK    6  A    between atoms: C_9  and  C_12
REMARK    7  A    between atoms: C_11  and  C_13
REMARK    8  A    between atoms: C_13  and  C_14
REMARK    9  A    between atoms: C_15  and  C_16
REMARK   10  A    between atoms: C_15  and  C_17
REMARK   11  A    between atoms: C_15  and  C_18
REMARK   12  A    between atoms: C_17  and  C_21
REMARK   13  A    between atoms: C_18  and  C_22
REMARK   14  A    between atoms: C_19  and  C_23
REMARK                            x       y       z     vdW  Elec       q    Type
REMARK                         _______ _______ _______ _____ _____    ______ ____
ROOT
ATOM      1  O   UNL     1      -5.947 -10.587  18.159  0.00  0.00    -0.366 OA
ATOM      8  C   UNL     1      -4.755 -12.114  16.814  0.00  0.00    +0.176 C 
ATOM      9  C   UNL     1      -4.989 -10.637  17.087  0.00  0.00    +0.167 C 
ATOM     10  C   UNL     1      -4.855 -12.699  18.208  0.00  0.00    +0.175 C 
ATOM     11  C   UNL     1      -5.980 -11.873  18.819  0.00  0.00    +0.159 C 
ENDROOT
BRANCH   8   2
ATOM      2  O   UNL     1      -3.508 -12.348  16.197  0.00  0.00    -0.387 OA
ATOM     30  H   UNL     1      -3.643 -12.292  15.236  0.00  0.00    +0.210 HD
ENDBRANCH   8   2
BRANCH  10   3
ATOM      3  O   UNL     1      -3.661 -12.434  18.942  0.00  0.00    -0.387 OA
ATOM     31  H   UNL     1      -2.993 -13.080  18.654  0.00  0.00    +0.210 HD
ENDBRANCH  10   3
BRANCH   9  12
ATOM     12  C   UNL     1      -5.526  -9.881  15.885  0.00  0.00    +0.138 C 
BRANCH  12   6
ATOM      5  O   UNL     1      -6.438 -10.404  13.211  0.00  0.00    -0.276 OA
ATOM      6  N   UNL     1      -4.703 -10.093  14.717  0.00  0.00    -0.313 N 
ATOM     16  C   UNL     1      -5.236 -10.340  13.461  0.00  0.00    +0.216 C 
ATOM     29  H   UNL     1      -3.695 -10.057  14.836  0.00  0.00    +0.149 HD
BRANCH  16  15
ATOM     15  C   UNL     1      -4.154 -10.546  12.395  0.00  0.00    +0.074 C 
BRANCH  15  17
ATOM     17  C   UNL     1      -2.736 -10.501  12.991  0.00  0.00    +0.009 C 
ATOM     21  C   UNL     1      -1.995 -11.823  12.828  0.00  0.00    +0.004 C 
ENDBRANCH  15  17
BRANCH  15  18
ATOM     18  C   UNL     1      -4.333  -9.525  11.253  0.00  0.00    +0.009 C 
ATOM     22  C   UNL     1      -3.153  -9.428  10.294  0.00  0.00    +0.004 C 
ENDBRANCH  15  18
ENDBRANCH  16  15
ENDBRANCH  12   6
ENDBRANCH   9  12
BRANCH  11  13
ATOM     13  C   UNL     1      -7.357 -12.479  18.590  0.00  0.00    +0.130 C 
BRANCH  13  14
ATOM      4  O   UNL     1      -8.348 -10.976  20.172  0.00  0.00    -0.276 OA
ATOM      7  N   UNL     1      -9.645 -11.549  18.336  0.00  0.00    -0.300 N 
ATOM     14  C   UNL     1      -8.484 -11.597  19.115  0.00  0.00    +0.218 C 
ATOM     20  C   UNL     1      -9.782 -12.293  17.090  0.00  0.00    +0.132 C 
BRANCH   7  19
ATOM     19  C   UNL     1     -10.807 -10.747  18.712  0.00  0.00    +0.142 C 
BRANCH  19  23
ATOM     23  C   UNL     1     -10.950  -9.525  17.852  0.00  0.00    -0.030 A 
ATOM     24  C   UNL     1     -12.190  -9.204  17.299  0.00  0.00    +0.005 A 
ATOM     25  C   UNL     1      -9.845  -8.711  17.606  0.00  0.00    +0.005 A 
ATOM     26  C   UNL     1     -12.325  -8.069  16.500  0.00  0.00    +0.000 A 
ATOM     27  C   UNL     1      -9.980  -7.576  16.807  0.00  0.00    +0.000 A 
ATOM     28  C   UNL     1     -11.219  -7.255  16.253  0.00  0.00    +0.000 A 
ENDBRANCH  19  23
ENDBRANCH   7  19
ENDBRANCH  13  14
ENDBRANCH  11  13
TORSDOF 11
ENDMDL
MODEL 6
REMARK VINA RESULT:      -6.0     26.829     29.350
REMARK  Name = 25390218
REMARK  14 active torsions:
REMARK  status: ('A' for Active; 'I' for Inactive)
REMARK    1  A    between atoms: O_2  and  C_8
REMARK    2  A    between atoms: O_3  and  C_10
REMARK    3  A    between atoms: N_6  and  C_12
REMARK    4  A    between atoms: N_7  and  C_19
REMARK    5  A    between atoms: N_7  and  C_20
REMARK    6  A    between atoms: C_9  and  C_12
REMARK    7  A    between atoms: C_11  and  C_13
REMARK    8  A    between atoms: C_13  and  C_14
REMARK    9  A    between atoms: C_15  and  C_16
REMARK   10  A    between atoms: C_15  and  C_17
REMARK   11  A    between atoms: C_15  and  C_18
REMARK   12  A    between atoms: C_17  and  C_21
REMARK   13  A    between atoms: C_18  and  C_22
REMARK   14  A    between atoms: C_19  and  C_23
REMARK                            x       y       z     vdW  Elec       q    Type
REMARK                         _______ _______ _______ _____ _____    ______ ____
ROOT
ATOM      1  O   UNL     1      12.419   9.517  18.973  0.00  0.00    -0.366 OA
ATOM      8  C   UNL     1      12.775   7.190  19.111  0.00  0.00    +0.176 C 
ATOM      9  C   UNL     1      12.098   8.373  19.783  0.00  0.00    +0.167 C 
ATOM     10  C   UNL     1      12.639   7.554  17.647  0.00  0.00    +0.175 C 
ATOM     11  C   UNL     1      12.862   9.062  17.673  0.00  0.00    +0.159 C 
ENDROOT
BRANCH   8   2
ATOM      2  O   UNL     1      12.156   5.966  19.443  0.00  0.00    -0.387 OA
ATOM     30  H   UNL     1      12.836   5.392  19.835  0.00  0.00    +0.210 HD
ENDBRANCH   8   2
BRANCH  10   3
ATOM      3  O   UNL     1      11.307   7.311  17.198  0.00  0.00    -0.387 OA
ATOM     31  H   UNL     1      10.914   6.654  17.799  0.00  0.00    +0.210 HD
ENDBRANCH  10   3
BRANCH   9  12
ATOM     12  C   UNL     1      12.569   8.606  21.207  0.00  0.00    +0.138 C 
BRANCH  12   6
ATOM      5  O   UNL     1      15.071   9.997  20.954  0.00  0.00    -0.276 OA
ATOM      6  N   UNL     1      13.888   8.060  21.424  0.00  0.00    -0.313 N 
ATOM     16  C   UNL     1      15.044   8.812  21.277  0.00  0.00    +0.216 C 
ATOM     29  H   UNL     1      13.956   7.083  21.694  0.00  0.00    +0.149 HD
BRANCH  16  15
ATOM     15  C   UNL     1      16.312   7.996  21.548  0.00  0.00    +0.074 C 
BRANCH  15  17
ATOM     17  C   UNL     1      17.573   8.680  20.991  0.00  0.00    +0.009 C 
ATOM     21  C   UNL     1      18.785   8.489  21.896  0.00  0.00    +0.004 C 
ENDBRANCH  15  17
BRANCH  15  18
ATOM     18  C   UNL     1      16.147   6.562  21.004  0.00  0.00    +0.009 C 
ATOM     22  C   UNL     1      16.503   6.393  19.532  0.00  0.00    +0.004 C 
ENDBRANCH  15  18
ENDBRANCH  16  15
ENDBRANCH  12   6
ENDBRANCH   9  12
BRANCH  11  13
ATOM     13  C   UNL     1      14.325   9.452  17.516  0.00  0.00    +0.130 C 
BRANCH  13  14
ATOM      4  O   UNL     1      14.403   9.544  15.124  0.00  0.00    -0.276 OA
ATOM      7  N   UNL     1      15.118  11.437  16.256  0.00  0.00    -0.300 N 
ATOM     14  C   UNL     1      14.613  10.135  16.185  0.00  0.00    +0.218 C 
ATOM     20  C   UNL     1      15.358  12.116  17.523  0.00  0.00    +0.132 C 
BRANCH   7  19
ATOM     19  C   UNL     1      15.442  12.217  15.063  0.00  0.00    +0.142 C 
BRANCH  19  23
ATOM     23  C   UNL     1      14.258  12.989  14.557  0.00  0.00    -0.030 A 
ATOM     24  C   UNL     1      13.465  12.461  13.538  0.00  0.00    +0.005 A 
ATOM     25  C   UNL     1      13.950  14.234  15.106  0.00  0.00    +0.005 A 
ATOM     26  C   UNL     1      12.364  13.177  13.068  0.00  0.00    +0.000 A 
ATOM     27  C   UNL     1      12.849  14.950  14.636  0.00  0.00    +0.000 A 
ATOM     28  C   UNL     1      12.057  14.422  13.616  0.00  0.00    +0.000 A 
ENDBRANCH  19  23
ENDBRANCH   7  19
ENDBRANCH  13  14
ENDBRANCH  11  13
TORSDOF 11
ENDMDL
MODEL 7
REMARK VINA RESULT:      -6.0     18.507     20.986
REMARK  Name = 25390218
REMARK  14 active torsions:
REMARK  status: ('A' for Active; 'I' for Inactive)
REMARK    1  A    between atoms: O_2  and  C_8
REMARK    2  A    between atoms: O_3  and  C_10
REMARK    3  A    between atoms: N_6  and  C_12
REMARK    4  A    between atoms: N_7  and  C_19
REMARK    5  A    between atoms: N_7  and  C_20
REMARK    6  A    between atoms: C_9  and  C_12
REMARK    7  A    between atoms: C_11  and  C_13
REMARK    8  A    between atoms: C_13  and  C_14
REMARK    9  A    between atoms: C_15  and  C_16
REMARK   10  A    between atoms: C_15  and  C_17
REMARK   11  A    between atoms: C_15  and  C_18
REMARK   12  A    between atoms: C_17  and  C_21
REMARK   13  A    between atoms: C_18  and  C_22
REMARK   14  A    between atoms: C_19  and  C_23
REMARK                            x       y       z     vdW  Elec       q    Type
REMARK                         _______ _______ _______ _____ _____    ______ ____
ROOT
ATOM      1  O   UNL     1     -15.816   1.941  25.764  0.00  0.00    -0.366 OA
ATOM      8  C   UNL     1     -18.058   2.039  25.038  0.00  0.00    +0.176 C 
ATOM      9  C   UNL     1     -16.644   2.508  24.734  0.00  0.00    +0.167 C 
ATOM     10  C   UNL     1     -17.805   0.648  25.583  0.00  0.00    +0.175 C 
ATOM     11  C   UNL     1     -16.530   0.852  26.394  0.00  0.00    +0.159 C 
ENDROOT
BRANCH   8   2
ATOM      2  O   UNL     1     -18.878   2.048  23.890  0.00  0.00    -0.387 OA
ATOM     30  H   UNL     1     -19.575   1.383  24.024  0.00  0.00    +0.210 HD
ENDBRANCH   8   2
BRANCH  10   3
ATOM      3  O   UNL     1     -17.513  -0.256  24.518  0.00  0.00    -0.387 OA
ATOM     31  H   UNL     1     -16.830   0.160  23.964  0.00  0.00    +0.210 HD
ENDBRANCH  10   3
BRANCH   9  12
ATOM     12  C   UNL     1     -16.499   4.019  24.734  0.00  0.00    +0.138 C 
BRANCH  12   6
ATOM      5  O   UNL     1     -13.812   4.668  23.950  0.00  0.00    -0.276 OA
ATOM      6  N   UNL     1     -16.069   4.509  23.446  0.00  0.00    -0.313 N 
ATOM     16  C   UNL     1     -14.743   4.796  23.158  0.00  0.00    +0.216 C 
ATOM     29  H   UNL     1     -16.778   4.644  22.730  0.00  0.00    +0.149 HD
BRANCH  16  15
ATOM     15  C   UNL     1     -14.552   5.315  21.729  0.00  0.00    +0.074 C 
BRANCH  15  17
ATOM     17  C   UNL     1     -13.701   6.596  21.685  0.00  0.00    +0.009 C 
ATOM     21  C   UNL     1     -12.286   6.337  21.181  0.00  0.00    +0.004 C 
ENDBRANCH  15  17
BRANCH  15  18
ATOM     18  C   UNL     1     -15.922   5.509  21.047  0.00  0.00    +0.009 C 
ATOM     22  C   UNL     1     -16.114   6.862  20.375  0.00  0.00    +0.004 C 
ENDBRANCH  15  18
ENDBRANCH  16  15
ENDBRANCH  12   6
ENDBRANCH   9  12
BRANCH  11  13
ATOM     13  C   UNL     1     -16.799   1.246  27.839  0.00  0.00    +0.130 C 
BRANCH  13  14
ATOM      4  O   UNL     1     -15.222  -0.103  29.036  0.00  0.00    -0.276 OA
ATOM      7  N   UNL     1     -14.952   2.194  29.199  0.00  0.00    -0.300 N 
ATOM     14  C   UNL     1     -15.590   1.036  28.743  0.00  0.00    +0.218 C 
ATOM     20  C   UNL     1     -15.406   3.532  28.839  0.00  0.00    +0.132 C 
BRANCH   7  19
ATOM     19  C   UNL     1     -13.780   2.150  30.072  0.00  0.00    +0.142 C 
BRANCH  19  23
ATOM     23  C   UNL     1     -14.097   2.620  31.462  0.00  0.00    -0.030 A 
ATOM     24  C   UNL     1     -14.847   1.812  32.317  0.00  0.00    +0.005 A 
ATOM     25  C   UNL     1     -13.640   3.863  31.899  0.00  0.00    +0.005 A 
ATOM     26  C   UNL     1     -15.140   2.247  33.609  0.00  0.00    +0.000 A 
ATOM     27  C   UNL     1     -13.934   4.298  33.191  0.00  0.00    +0.000 A 
ATOM     28  C   UNL     1     -14.684   3.491  34.046  0.00  0.00    +0.000 A 
ENDBRANCH  19  23
ENDBRANCH   7  19
ENDBRANCH  13  14
ENDBRANCH  11  13
TORSDOF 11
ENDMDL
MODEL 8
REMARK VINA RESULT:      -6.0     18.816     21.000
REMARK  Name = 25390218
REMARK  14 active torsions:
REMARK  status: ('A' for Active; 'I' for Inactive)
REMARK    1  A    between atoms: O_2  and  C_8
REMARK    2  A    between atoms: O_3  and  C_10
REMARK    3  A    between atoms: N_6  and  C_12
REMARK    4  A    between atoms: N_7  and  C_19
REMARK    5  A    between atoms: N_7  and  C_20
REMARK    6  A    between atoms: C_9  and  C_12
REMARK    7  A    between atoms: C_11  and  C_13
REMARK    8  A    between atoms: C_13  and  C_14
REMARK    9  A    between atoms: C_15  and  C_16
REMARK   10  A    between atoms: C_15  and  C_17
REMARK   11  A    between atoms: C_15  and  C_18
REMARK   12  A    between atoms: C_17  and  C_21
REMARK   13  A    between atoms: C_18  and  C_22
REMARK   14  A    between atoms: C_19  and  C_23
REMARK                            x       y       z     vdW  Elec       q    Type
REMARK                         _______ _______ _______ _____ _____    ______ ____
ROOT
ATOM      1  O   UNL     1     -14.980   4.018  24.239  0.00  0.00    -0.366 OA
ATOM      8  C   UNL     1     -16.675   4.493  22.670  0.00  0.00    +0.176 C 
ATOM      9  C   UNL     1     -15.178   4.563  22.923  0.00  0.00    +0.167 C 
ATOM     10  C   UNL     1     -17.041   3.203  23.376  0.00  0.00    +0.175 C 
ATOM     11  C   UNL     1     -16.149   3.254  24.611  0.00  0.00    +0.159 C 
ENDROOT
BRANCH   8   2
ATOM      2  O   UNL     1     -16.980   4.483  21.292  0.00  0.00    -0.387 OA
ATOM     30  H   UNL     1     -16.667   5.324  20.918  0.00  0.00    +0.210 HD
ENDBRANCH   8   2
BRANCH  10   3
ATOM      3  O   UNL     1     -16.647   2.080  22.590  0.00  0.00    -0.387 OA
ATOM     31  H   UNL     1     -15.966   1.599  23.092  0.00  0.00    +0.210 HD
ENDBRANCH  10   3
BRANCH   9  12
ATOM     12  C   UNL     1     -14.624   5.975  22.866  0.00  0.00    +0.138 C 
BRANCH  12   6
ATOM      5  O   UNL     1     -13.573   8.479  21.925  0.00  0.00    -0.276 OA
ATOM      6  N   UNL     1     -13.855   6.193  21.663  0.00  0.00    -0.313 N 
ATOM     16  C   UNL     1     -13.387   7.444  21.289  0.00  0.00    +0.216 C 
ATOM     29  H   UNL     1     -13.657   5.388  21.076  0.00  0.00    +0.149 HD
BRANCH  16  15
ATOM     15  C   UNL     1     -12.615   7.410  19.965  0.00  0.00    +0.074 C 
BRANCH  15  17
ATOM     17  C   UNL     1     -11.126   7.753  20.152  0.00  0.00    +0.009 C 
ATOM     21  C   UNL     1     -10.768   9.117  19.576  0.00  0.00    +0.004 C 
ENDBRANCH  15  17
BRANCH  15  18
ATOM     18  C   UNL     1     -13.294   8.330  18.931  0.00  0.00    +0.009 C 
ATOM     22  C   UNL     1     -14.749   7.991  18.633  0.00  0.00    +0.004 C 
ENDBRANCH  15  18
ENDBRANCH  16  15
ENDBRANCH  12   6
ENDBRANCH   9  12
BRANCH  11  13
ATOM     13  C   UNL     1     -16.806   3.953  25.793  0.00  0.00    +0.130 C 
BRANCH  13  14
ATOM      4  O   UNL     1     -17.133   1.819  26.830  0.00  0.00    -0.276 OA
ATOM      7  N   UNL     1     -16.999   3.648  28.248  0.00  0.00    -0.300 N 
ATOM     14  C   UNL     1     -16.994   3.033  26.992  0.00  0.00    +0.218 C 
ATOM     20  C   UNL     1     -16.833   5.087  28.416  0.00  0.00    +0.132 C 
BRANCH   7  19
ATOM     19  C   UNL     1     -17.169   2.895  29.489  0.00  0.00    +0.142 C 
BRANCH  19  23
ATOM     23  C   UNL     1     -15.946   2.094  29.833  0.00  0.00    -0.030 A 
ATOM     24  C   UNL     1     -16.008   0.700  29.847  0.00  0.00    +0.005 A 
ATOM     25  C   UNL     1     -14.750   2.742  30.138  0.00  0.00    +0.005 A 
ATOM     26  C   UNL     1     -14.873  -0.045  30.165  0.00  0.00    +0.000 A 
ATOM     27  C   UNL     1     -13.615   1.997  30.456  0.00  0.00    +0.000 A 
ATOM     28  C   UNL     1     -13.676   0.603  30.471  0.00  0.00    +0.000 A 
ENDBRANCH  19  23
ENDBRANCH   7  19
ENDBRANCH  13  14
ENDBRANCH  11  13
TORSDOF 11
ENDMDL
MODEL 9
REMARK VINA RESULT:      -6.0     27.900     31.225
REMARK  Name = 25390218
REMARK  14 active torsions:
REMARK  status: ('A' for Active; 'I' for Inactive)
REMARK    1  A    between atoms: O_2  and  C_8
REMARK    2  A    between atoms: O_3  and  C_10
REMARK    3  A    between atoms: N_6  and  C_12
REMARK    4  A    between atoms: N_7  and  C_19
REMARK    5  A    between atoms: N_7  and  C_20
REMARK    6  A    between atoms: C_9  and  C_12
REMARK    7  A    between atoms: C_11  and  C_13
REMARK    8  A    between atoms: C_13  and  C_14
REMARK    9  A    between atoms: C_15  and  C_16
REMARK   10  A    between atoms: C_15  and  C_17
REMARK   11  A    between atoms: C_15  and  C_18
REMARK   12  A    between atoms: C_17  and  C_21
REMARK   13  A    between atoms: C_18  and  C_22
REMARK   14  A    between atoms: C_19  and  C_23
REMARK                            x       y       z     vdW  Elec       q    Type
REMARK                         _______ _______ _______ _____ _____    ______ ____
ROOT
ATOM      1  O   UNL     1      19.233   6.310  20.081  0.00  0.00    -0.366 OA
ATOM      8  C   UNL     1      20.270   6.208  22.197  0.00  0.00    +0.176 C 
ATOM      9  C   UNL     1      20.461   5.915  20.718  0.00  0.00    +0.167 C 
ATOM     10  C   UNL     1      19.429   7.467  22.150  0.00  0.00    +0.175 C 
ATOM     11  C   UNL     1      18.505   7.188  20.969  0.00  0.00    +0.159 C 
ENDROOT
BRANCH   8   2
ATOM      2  O   UNL     1      21.500   6.382  22.866  0.00  0.00    -0.387 OA
ATOM     30  H   UNL     1      21.329   6.928  23.653  0.00  0.00    +0.210 HD
ENDBRANCH   8   2
BRANCH  10   3
ATOM      3  O   UNL     1      20.241   8.593  21.820  0.00  0.00    -0.387 OA
ATOM     31  H   UNL     1      21.092   8.481  22.276  0.00  0.00    +0.210 HD
ENDBRANCH  10   3
BRANCH   9  12
ATOM     12  C   UNL     1      20.742   4.452  20.426  0.00  0.00    +0.138 C 
BRANCH  12   6
ATOM      5  O   UNL     1      23.592   4.140  20.229  0.00  0.00    -0.276 OA
ATOM      6  N   UNL     1      21.619   3.874  21.417  0.00  0.00    -0.313 N 
ATOM     16  C   UNL     1      22.989   3.766  21.233  0.00  0.00    +0.216 C 
ATOM     29  H   UNL     1      21.201   3.538  22.280  0.00  0.00    +0.149 HD
BRANCH  16  15
ATOM     15  C   UNL     1      23.690   3.103  22.424  0.00  0.00    +0.074 C 
BRANCH  15  17
ATOM     17  C   UNL     1      24.038   1.630  22.147  0.00  0.00    +0.009 C 
ATOM     21  C   UNL     1      25.542   1.388  22.094  0.00  0.00    +0.004 C 
ENDBRANCH  15  17
BRANCH  15  18
ATOM     18  C   UNL     1      22.837   3.265  23.699  0.00  0.00    +0.009 C 
ATOM     22  C   UNL     1      22.562   1.969  24.450  0.00  0.00    +0.004 C 
ENDBRANCH  15  18
ENDBRANCH  16  15
ENDBRANCH  12   6
ENDBRANCH   9  12
BRANCH  11  13
ATOM     13  C   UNL     1      17.219   6.480  21.373  0.00  0.00    +0.130 C 
BRANCH  13  14
ATOM      4  O   UNL     1      15.883   6.073  19.426  0.00  0.00    -0.276 OA
ATOM      7  N   UNL     1      15.249   7.860  20.761  0.00  0.00    -0.300 N 
ATOM     14  C   UNL     1      16.063   6.774  20.425  0.00  0.00    +0.218 C 
ATOM     20  C   UNL     1      15.481   8.675  21.948  0.00  0.00    +0.132 C 
BRANCH   7  19
ATOM     19  C   UNL     1      14.103   8.261  19.948  0.00  0.00    +0.142 C 
BRANCH  19  23
ATOM     23  C   UNL     1      12.799   7.982  20.636  0.00  0.00    -0.030 A 
ATOM     24  C   UNL     1      11.962   9.037  21.000  0.00  0.00    +0.005 A 
ATOM     25  C   UNL     1      12.423   6.667  20.912  0.00  0.00    +0.005 A 
ATOM     26  C   UNL     1      10.750   8.779  21.639  0.00  0.00    +0.000 A 
ATOM     27  C   UNL     1      11.210   6.409  21.551  0.00  0.00    +0.000 A 
ATOM     28  C   UNL     1      10.374   7.464  21.915  0.00  0.00    +0.000 A 
ENDBRANCH  19  23
ENDBRANCH   7  19
ENDBRANCH  13  14
ENDBRANCH  11  13
TORSDOF 11
ENDMDL
MODEL 10
REMARK VINA RESULT:      -6.0      1.388      1.812
REMARK  Name = 25390218
REMARK  14 active torsions:
REMARK  status: ('A' for Active; 'I' for Inactive)
REMARK    1  A    between atoms: O_2  and  C_8
REMARK    2  A    between atoms: O_3  and  C_10
REMARK    3  A    between atoms: N_6  and  C_12
REMARK    4  A    between atoms: N_7  and  C_19
REMARK    5  A    between atoms: N_7  and  C_20
REMARK    6  A    between atoms: C_9  and  C_12
REMARK    7  A    between atoms: C_11  and  C_13
REMARK    8  A    between atoms: C_13  and  C_14
REMARK    9  A    between atoms: C_15  and  C_16
REMARK   10  A    between atoms: C_15  and  C_17
REMARK   11  A    between atoms: C_15  and  C_18
REMARK   12  A    between atoms: C_17  and  C_21
REMARK   13  A    between atoms: C_18  and  C_22
REMARK   14  A    between atoms: C_19  and  C_23
REMARK                            x       y       z     vdW  Elec       q    Type
REMARK                         _______ _______ _______ _____ _____    ______ ____
ROOT
ATOM      1  O   UNL     1      -6.049 -12.197  17.433  0.00  0.00    -0.366 OA
ATOM      8  C   UNL     1      -6.961 -10.517  18.814  0.00  0.00    +0.176 C 
ATOM      9  C   UNL     1      -7.253 -11.847  18.139  0.00  0.00    +0.167 C 
ATOM     10  C   UNL     1      -5.499 -10.675  19.177  0.00  0.00    +0.175 C 
ATOM     11  C   UNL     1      -4.951 -11.422  17.966  0.00  0.00    +0.159 C 
ENDROOT
BRANCH   8   2
ATOM      2  O   UNL     1      -7.794 -10.295  19.931  0.00  0.00    -0.387 OA
ATOM     30  H   UNL     1      -7.390  -9.586  20.460  0.00  0.00    +0.210 HD
ENDBRANCH   8   2
BRANCH  10   3
ATOM      3  O   UNL     1      -5.361 -11.520  20.318  0.00  0.00    -0.387 OA
ATOM     31  H   UNL     1      -6.065 -12.189  20.271  0.00  0.00    +0.210 HD
ENDBRANCH  10   3
BRANCH   9  12
ATOM     12  C   UNL     1      -8.416 -11.785  17.166  0.00  0.00    +0.138 C 
BRANCH  12   6
ATOM      5  O   UNL     1      -9.022  -9.237  15.983  0.00  0.00    -0.276 OA
ATOM      6  N   UNL     1      -9.422 -10.846  17.603  0.00  0.00    -0.313 N 
ATOM     16  C   UNL     1      -9.643  -9.634  16.966  0.00  0.00    +0.216 C 
ATOM     29  H   UNL     1      -9.982 -11.096  18.413  0.00  0.00    +0.149 HD
BRANCH  16  15
ATOM     15  C   UNL     1     -10.752  -8.814  17.635  0.00  0.00    +0.074 C 
BRANCH  15  17
ATOM     17  C   UNL     1     -11.644  -9.676  18.546  0.00  0.00    +0.009 C 
ATOM     21  C   UNL     1     -13.129  -9.432  18.305  0.00  0.00    +0.004 C 
ENDBRANCH  15  17
BRANCH  15  18
ATOM     18  C   UNL     1     -11.574  -8.063  16.567  0.00  0.00    +0.009 C 
ATOM     22  C   UNL     1     -11.272  -6.574  16.461  0.00  0.00    +0.004 C 
ENDBRANCH  15  18
ENDBRANCH  16  15
ENDBRANCH  12   6
ENDBRANCH   9  12
BRANCH  11  13
ATOM     13  C   UNL     1      -4.459 -10.493  16.865  0.00  0.00    +0.130 C 
BRANCH  13  14
ATOM      4  O   UNL     1      -3.177 -12.054  15.575  0.00  0.00    -0.276 OA
ATOM      7  N   UNL     1      -4.869 -10.930  14.456  0.00  0.00    -0.300 N 
ATOM     14  C   UNL     1      -4.100 -11.236  15.584  0.00  0.00    +0.218 C 
ATOM     20  C   UNL     1      -5.955  -9.959  14.490  0.00  0.00    +0.132 C 
BRANCH   7  19
ATOM     19  C   UNL     1      -4.641 -11.562  13.158  0.00  0.00    +0.142 C 
BRANCH  19  23
ATOM     23  C   UNL     1      -3.766 -10.725  12.270  0.00  0.00    -0.030 A 
ATOM     24  C   UNL     1      -4.329 -10.006  11.216  0.00  0.00    +0.005 A 
ATOM     25  C   UNL     1      -2.392 -10.665  12.500  0.00  0.00    +0.005 A 
ATOM     26  C   UNL     1      -3.518  -9.227  10.391  0.00  0.00    +0.000 A 
ATOM     27  C   UNL     1      -1.581  -9.887  11.676  0.00  0.00    +0.000 A 
ATOM     28  C   UNL     1      -2.143  -9.168  10.620  0.00  0.00    +0.000 A 
ENDBRANCH  19  23
ENDBRANCH   7  19
ENDBRANCH  13  14
ENDBRANCH  11  13
TORSDOF 11
ENDMDL
