MODEL 1
REMARK VINA RESULT:      -7.9      0.000      0.000
REMARK  Name = 11939955
REMARK  11 active torsions:
REMARK  status: ('A' for Active; 'I' for Inactive)
REMARK    1  A    between atoms: O_4  and  C_29
REMARK    2  A    between atoms: O_4  and  C_37
REMARK    3  A    between atoms: O_5  and  C_30
REMARK    4  A    between atoms: O_5  and  C_38
REMARK    5  A    between atoms: N_6  and  C_14
REMARK    6  A    between atoms: N_7  and  C_15
REMARK    7  A    between atoms: N_8  and  C_21
REMARK    8  A    between atoms: N_11  and  C_34
REMARK    9  A    between atoms: N_11  and  C_35
REMARK   10  A    between atoms: N_11  and  C_36
REMARK   11  A    between atoms: C_20  and  C_24
REMARK                            x       y       z     vdW  Elec       q    Type
REMARK                         _______ _______ _______ _____ _____    ______ ____
ROOT
ATOM      1  O   UNL     1      21.712   8.184  21.106  0.00  0.00    -0.370 OA
ATOM      2  O   UNL     1      20.362   6.150  23.049  0.00  0.00    -0.370 OA
ATOM     12  C   UNL     1      21.061   6.004  21.801  0.00  0.00    +0.171 C 
ATOM     13  C   UNL     1      20.688   7.191  20.934  0.00  0.00    +0.171 C 
ATOM     14  C   UNL     1      22.549   6.153  22.013  0.00  0.00    +0.130 C 
ATOM     15  C   UNL     1      19.382   7.678  21.521  0.00  0.00    +0.131 C 
ATOM     16  C   UNL     1      22.743   7.659  21.956  0.00  0.00    +0.185 C 
ATOM     17  C   UNL     1      19.529   7.317  22.988  0.00  0.00    +0.185 C 
ENDROOT
BRANCH  14   6
ATOM      6  N   UNL     1      23.270   5.515  20.934  0.00  0.00    -0.306 N 
ATOM      9  N   UNL     1      23.510   3.543  22.137  0.00  0.00    -0.214 NA
ATOM     10  N   UNL     1      24.397   3.764  19.907  0.00  0.00    -0.223 NA
ATOM     18  C   UNL     1      23.746   4.217  20.995  0.00  0.00    +0.216 A 
ATOM     20  C   UNL     1      23.987   2.281  22.161  0.00  0.00    +0.076 A 
ATOM     22  C   UNL     1      24.848   2.495  20.001  0.00  0.00    +0.116 A 
ATOM     23  C   UNL     1      24.670   1.699  21.114  0.00  0.00    +0.048 A 
ATOM     39  H   UNL     1      23.399   6.009  20.059  0.00  0.00    +0.149 HD
BRANCH  20  24
ATOM     24  C   UNL     1      23.735   1.555  23.383  0.00  0.00    +0.001 A 
ATOM     27  C   UNL     1      24.609   0.547  23.789  0.00  0.00    +0.012 A 
ATOM     28  C   UNL     1      22.617   1.864  24.160  0.00  0.00    +0.012 A 
ATOM     32  C   UNL     1      24.366  -0.153  24.970  0.00  0.00    +0.024 A 
ATOM     33  C   UNL     1      22.375   1.164  25.342  0.00  0.00    +0.024 A 
ATOM     34  C   UNL     1      23.249   0.156  25.747  0.00  0.00    +0.029 A 
BRANCH  34  11
ATOM     11  N   UNL     1      23.003  -0.553  26.942  0.00  0.00    -0.336 N 
ATOM     35  C   UNL     1      21.668  -0.598  27.507  0.00  0.00    +0.129 C 
ATOM     36  C   UNL     1      24.083  -1.235  27.627  0.00  0.00    +0.129 C 
ENDBRANCH  34  11
ENDBRANCH  20  24
ENDBRANCH  14   6
BRANCH  15   7
ATOM      3  O   UNL     1      16.990   8.884  20.508  0.00  0.00    -0.252 OA
ATOM      7  N   UNL     1      18.258   6.997  20.925  0.00  0.00    -0.292 N 
ATOM      8  N   UNL     1      16.201   6.749  19.931  0.00  0.00    -0.269 N 
ATOM     19  C   UNL     1      17.120   7.664  20.452  0.00  0.00    +0.304 C 
ATOM     40  H   UNL     1      18.320   5.993  20.782  0.00  0.00    +0.151 HD
ATOM     41  H   UNL     1      16.465   5.768  19.964  0.00  0.00    +0.156 HD
BRANCH   8  21
ATOM     21  C   UNL     1      14.935   7.020  19.361  0.00  0.00    +0.042 A 
ATOM     25  C   UNL     1      14.846   7.468  18.043  0.00  0.00    +0.069 A 
ATOM     26  C   UNL     1      13.777   6.839  20.116  0.00  0.00    +0.069 A 
ATOM     29  C   UNL     1      12.529   7.104  19.553  0.00  0.00    +0.125 A 
ATOM     30  C   UNL     1      13.597   7.733  17.480  0.00  0.00    +0.125 A 
ATOM     31  C   UNL     1      12.440   7.552  18.235  0.00  0.00    +0.091 A 
BRANCH  29   4
ATOM      4  O   UNL     1      11.397   6.926  20.289  0.00  0.00    -0.495 OA
ATOM     37  C   UNL     1      11.521   6.186  21.502  0.00  0.00    +0.277 C 
ENDBRANCH  29   4
BRANCH  30   5
ATOM      5  O   UNL     1      13.510   8.168  16.193  0.00  0.00    -0.495 OA
ATOM     38  C   UNL     1      12.711   9.325  15.952  0.00  0.00    +0.277 C 
ENDBRANCH  30   5
ENDBRANCH   8  21
ENDBRANCH  15   7
TORSDOF 7
ENDMDL
MODEL 2
REMARK VINA RESULT:      -7.8      0.377      2.052
REMARK  Name = 11939955
REMARK  11 active torsions:
REMARK  status: ('A' for Active; 'I' for Inactive)
REMARK    1  A    between atoms: O_4  and  C_29
REMARK    2  A    between atoms: O_4  and  C_37
REMARK    3  A    between atoms: O_5  and  C_30
REMARK    4  A    between atoms: O_5  and  C_38
REMARK    5  A    between atoms: N_6  and  C_14
REMARK    6  A    between atoms: N_7  and  C_15
REMARK    7  A    between atoms: N_8  and  C_21
REMARK    8  A    between atoms: N_11  and  C_34
REMARK    9  A    between atoms: N_11  and  C_35
REMARK   10  A    between atoms: N_11  and  C_36
REMARK   11  A    between atoms: C_20  and  C_24
REMARK                            x       y       z     vdW  Elec       q    Type
REMARK                         _______ _______ _______ _____ _____    ______ ____
ROOT
ATOM      1  O   UNL     1      21.674   8.317  21.112  0.00  0.00    -0.370 OA
ATOM      2  O   UNL     1      20.406   6.261  23.089  0.00  0.00    -0.370 OA
ATOM     12  C   UNL     1      21.079   6.126  21.825  0.00  0.00    +0.171 C 
ATOM     13  C   UNL     1      20.664   7.305  20.966  0.00  0.00    +0.171 C 
ATOM     14  C   UNL     1      22.568   6.303  22.002  0.00  0.00    +0.130 C 
ATOM     15  C   UNL     1      19.363   7.769  21.582  0.00  0.00    +0.131 C 
ATOM     16  C   UNL     1      22.733   7.811  21.939  0.00  0.00    +0.185 C 
ATOM     17  C   UNL     1      19.551   7.413  23.046  0.00  0.00    +0.185 C 
ENDROOT
BRANCH  14   6
ATOM      6  N   UNL     1      23.275   5.676  20.906  0.00  0.00    -0.306 N 
ATOM      9  N   UNL     1      23.522   3.688  22.081  0.00  0.00    -0.214 NA
ATOM     10  N   UNL     1      24.386   3.935  19.845  0.00  0.00    -0.223 NA
ATOM     18  C   UNL     1      23.748   4.376  20.946  0.00  0.00    +0.216 A 
ATOM     20  C   UNL     1      23.996   2.425  22.085  0.00  0.00    +0.076 A 
ATOM     22  C   UNL     1      24.833   2.663  19.918  0.00  0.00    +0.116 A 
ATOM     23  C   UNL     1      24.666   1.854  21.022  0.00  0.00    +0.048 A 
ATOM     39  H   UNL     1      23.396   6.181  20.037  0.00  0.00    +0.149 HD
BRANCH  20  24
ATOM     24  C   UNL     1      23.755   1.684  23.300  0.00  0.00    +0.001 A 
ATOM     27  C   UNL     1      24.590   0.622  23.647  0.00  0.00    +0.012 A 
ATOM     28  C   UNL     1      22.687   2.031  24.129  0.00  0.00    +0.012 A 
ATOM     32  C   UNL     1      24.358  -0.093  24.822  0.00  0.00    +0.024 A 
ATOM     33  C   UNL     1      22.456   1.317  25.304  0.00  0.00    +0.024 A 
ATOM     34  C   UNL     1      23.291   0.255  25.650  0.00  0.00    +0.029 A 
BRANCH  34  11
ATOM     11  N   UNL     1      23.056  -0.468  26.838  0.00  0.00    -0.336 N 
ATOM     35  C   UNL     1      22.812   0.229  28.086  0.00  0.00    +0.129 C 
ATOM     36  C   UNL     1      23.068  -1.917  26.830  0.00  0.00    +0.129 C 
ENDBRANCH  34  11
ENDBRANCH  20  24
ENDBRANCH  14   6
BRANCH  15   7
ATOM      3  O   UNL     1      16.963   8.938  20.545  0.00  0.00    -0.252 OA
ATOM      7  N   UNL     1      18.238   7.068  21.013  0.00  0.00    -0.292 N 
ATOM      8  N   UNL     1      16.177   6.784  20.038  0.00  0.00    -0.269 N 
ATOM     19  C   UNL     1      17.096   7.716  20.526  0.00  0.00    +0.304 C 
ATOM     40  H   UNL     1      18.302   6.060  20.901  0.00  0.00    +0.151 HD
ATOM     41  H   UNL     1      16.444   5.805  20.100  0.00  0.00    +0.156 HD
BRANCH   8  21
ATOM     21  C   UNL     1      14.908   7.034  19.466  0.00  0.00    +0.042 A 
ATOM     25  C   UNL     1      13.756   6.909  20.242  0.00  0.00    +0.069 A 
ATOM     26  C   UNL     1      14.809   7.409  18.126  0.00  0.00    +0.069 A 
ATOM     29  C   UNL     1      13.558   7.658  17.563  0.00  0.00    +0.125 A 
ATOM     30  C   UNL     1      12.505   7.158  19.678  0.00  0.00    +0.125 A 
ATOM     31  C   UNL     1      12.406   7.532  18.339  0.00  0.00    +0.091 A 
BRANCH  29   4
ATOM      4  O   UNL     1      13.460   8.025  16.255  0.00  0.00    -0.495 OA
ATOM     37  C   UNL     1      13.133   9.386  15.985  0.00  0.00    +0.277 C 
ENDBRANCH  29   4
BRANCH  30   5
ATOM      5  O   UNL     1      11.380   7.037  20.436  0.00  0.00    -0.495 OA
ATOM     38  C   UNL     1      11.385   6.034  21.450  0.00  0.00    +0.277 C 
ENDBRANCH  30   5
ENDBRANCH   8  21
ENDBRANCH  15   7
TORSDOF 7
ENDMDL
MODEL 3
REMARK VINA RESULT:      -7.2     27.985     32.361
REMARK  Name = 11939955
REMARK  11 active torsions:
REMARK  status: ('A' for Active; 'I' for Inactive)
REMARK    1  A    between atoms: O_4  and  C_29
REMARK    2  A    between atoms: O_4  and  C_37
REMARK    3  A    between atoms: O_5  and  C_30
REMARK    4  A    between atoms: O_5  and  C_38
REMARK    5  A    between atoms: N_6  and  C_14
REMARK    6  A    between atoms: N_7  and  C_15
REMARK    7  A    between atoms: N_8  and  C_21
REMARK    8  A    between atoms: N_11  and  C_34
REMARK    9  A    between atoms: N_11  and  C_35
REMARK   10  A    between atoms: N_11  and  C_36
REMARK   11  A    between atoms: C_20  and  C_24
REMARK                            x       y       z     vdW  Elec       q    Type
REMARK                         _______ _______ _______ _____ _____    ______ ____
ROOT
ATOM      1  O   UNL     1      -4.727  -8.830  10.080  0.00  0.00    -0.370 OA
ATOM      2  O   UNL     1      -5.886 -11.725  10.194  0.00  0.00    -0.370 OA
ATOM     12  C   UNL     1      -4.595 -11.169  10.496  0.00  0.00    +0.171 C 
ATOM     13  C   UNL     1      -4.329 -10.074   9.481  0.00  0.00    +0.171 C 
ATOM     14  C   UNL     1      -4.632 -10.445  11.820  0.00  0.00    +0.130 C 
ATOM     15  C   UNL     1      -5.240 -10.415   8.324  0.00  0.00    +0.131 C 
ATOM     16  C   UNL     1      -5.145  -9.069  11.432  0.00  0.00    +0.185 C 
ATOM     17  C   UNL     1      -6.409 -11.090   9.018  0.00  0.00    +0.185 C 
ENDROOT
BRANCH  14   6
ATOM      6  N   UNL     1      -3.298 -10.345  12.368  0.00  0.00    -0.306 N 
ATOM      9  N   UNL     1      -4.060 -10.706  14.532  0.00  0.00    -0.214 NA
ATOM     10  N   UNL     1      -1.719 -10.360  14.072  0.00  0.00    -0.223 NA
ATOM     18  C   UNL     1      -3.013 -10.477  13.717  0.00  0.00    +0.216 A 
ATOM     20  C   UNL     1      -3.746 -10.829  15.839  0.00  0.00    +0.076 A 
ATOM     22  C   UNL     1      -1.478 -10.493  15.393  0.00  0.00    +0.116 A 
ATOM     23  C   UNL     1      -2.461 -10.731  16.332  0.00  0.00    +0.048 A 
ATOM     39  H   UNL     1      -2.509 -10.224  11.743  0.00  0.00    +0.149 HD
BRANCH  20  24
ATOM     24  C   UNL     1      -4.865 -11.076  16.717  0.00  0.00    +0.001 A 
ATOM     27  C   UNL     1      -6.148 -11.214  16.189  0.00  0.00    +0.012 A 
ATOM     28  C   UNL     1      -4.662 -11.180  18.093  0.00  0.00    +0.012 A 
ATOM     32  C   UNL     1      -7.229 -11.454  17.036  0.00  0.00    +0.024 A 
ATOM     33  C   UNL     1      -5.744 -11.422  18.941  0.00  0.00    +0.024 A 
ATOM     34  C   UNL     1      -7.026 -11.559  18.412  0.00  0.00    +0.029 A 
BRANCH  34  11
ATOM     11  N   UNL     1      -8.120 -11.801  19.270  0.00  0.00    -0.336 N 
ATOM     35  C   UNL     1      -9.194 -10.834  19.383  0.00  0.00    +0.129 C 
ATOM     36  C   UNL     1      -8.178 -13.015  20.060  0.00  0.00    +0.129 C 
ENDBRANCH  34  11
ENDBRANCH  20  24
ENDBRANCH  14   6
BRANCH  15   7
ATOM      3  O   UNL     1      -5.661 -10.554   5.494  0.00  0.00    -0.252 OA
ATOM      7  N   UNL     1      -4.593 -11.313   7.398  0.00  0.00    -0.292 N 
ATOM      8  N   UNL     1      -4.085 -12.291   5.382  0.00  0.00    -0.269 N 
ATOM     19  C   UNL     1      -4.856 -11.318   6.023  0.00  0.00    +0.304 C 
ATOM     40  H   UNL     1      -3.864 -11.929   7.750  0.00  0.00    +0.151 HD
ATOM     41  H   UNL     1      -3.465 -12.843   5.970  0.00  0.00    +0.156 HD
BRANCH   8  21
ATOM     21  C   UNL     1      -4.059 -12.610   4.004  0.00  0.00    +0.042 A 
ATOM     25  C   UNL     1      -2.839 -12.772   3.348  0.00  0.00    +0.069 A 
ATOM     26  C   UNL     1      -5.255 -12.763   3.302  0.00  0.00    +0.069 A 
ATOM     29  C   UNL     1      -5.229 -13.079   1.944  0.00  0.00    +0.125 A 
ATOM     30  C   UNL     1      -2.815 -13.088   1.990  0.00  0.00    +0.125 A 
ATOM     31  C   UNL     1      -4.009 -13.242   1.288  0.00  0.00    +0.091 A 
BRANCH  29   4
ATOM      4  O   UNL     1      -6.396 -13.231   1.257  0.00  0.00    -0.495 OA
ATOM     37  C   UNL     1      -7.484 -12.390   1.633  0.00  0.00    +0.277 C 
ENDBRANCH  29   4
BRANCH  30   5
ATOM      5  O   UNL     1      -1.624 -13.249   1.350  0.00  0.00    -0.495 OA
ATOM     38  C   UNL     1      -0.675 -14.126   1.953  0.00  0.00    +0.277 C 
ENDBRANCH  30   5
ENDBRANCH   8  21
ENDBRANCH  15   7
TORSDOF 7
ENDMDL
MODEL 4
REMARK VINA RESULT:      -7.2     27.989     32.392
REMARK  Name = 11939955
REMARK  11 active torsions:
REMARK  status: ('A' for Active; 'I' for Inactive)
REMARK    1  A    between atoms: O_4  and  C_29
REMARK    2  A    between atoms: O_4  and  C_37
REMARK    3  A    between atoms: O_5  and  C_30
REMARK    4  A    between atoms: O_5  and  C_38
REMARK    5  A    between atoms: N_6  and  C_14
REMARK    6  A    between atoms: N_7  and  C_15
REMARK    7  A    between atoms: N_8  and  C_21
REMARK    8  A    between atoms: N_11  and  C_34
REMARK    9  A    between atoms: N_11  and  C_35
REMARK   10  A    between atoms: N_11  and  C_36
REMARK   11  A    between atoms: C_20  and  C_24
REMARK                            x       y       z     vdW  Elec       q    Type
REMARK                         _______ _______ _______ _____ _____    ______ ____
ROOT
ATOM      1  O   UNL     1      -4.766  -8.896  10.067  0.00  0.00    -0.370 OA
ATOM      2  O   UNL     1      -5.902 -11.798  10.219  0.00  0.00    -0.370 OA
ATOM     12  C   UNL     1      -4.614 -11.229  10.509  0.00  0.00    +0.171 C 
ATOM     13  C   UNL     1      -4.361 -10.142   9.480  0.00  0.00    +0.171 C 
ATOM     14  C   UNL     1      -4.651 -10.490  11.825  0.00  0.00    +0.130 C 
ATOM     15  C   UNL     1      -5.274 -10.504   8.331  0.00  0.00    +0.131 C 
ATOM     16  C   UNL     1      -5.175  -9.123  11.425  0.00  0.00    +0.185 C 
ATOM     17  C   UNL     1      -6.435 -11.180   9.039  0.00  0.00    +0.185 C 
ENDROOT
BRANCH  14   6
ATOM      6  N   UNL     1      -3.314 -10.374  12.366  0.00  0.00    -0.306 N 
ATOM      9  N   UNL     1      -4.065 -10.709  14.538  0.00  0.00    -0.214 NA
ATOM     10  N   UNL     1      -1.729 -10.355  14.063  0.00  0.00    -0.223 NA
ATOM     18  C   UNL     1      -3.023 -10.485  13.715  0.00  0.00    +0.216 A 
ATOM     20  C   UNL     1      -3.744 -10.812  15.845  0.00  0.00    +0.076 A 
ATOM     22  C   UNL     1      -1.481 -10.468  15.385  0.00  0.00    +0.116 A 
ATOM     23  C   UNL     1      -2.458 -10.699  16.331  0.00  0.00    +0.048 A 
ATOM     39  H   UNL     1      -2.529 -10.257  11.736  0.00  0.00    +0.149 HD
BRANCH  20  24
ATOM     24  C   UNL     1      -4.858 -11.054  16.731  0.00  0.00    +0.001 A 
ATOM     27  C   UNL     1      -6.161 -11.027  16.237  0.00  0.00    +0.012 A 
ATOM     28  C   UNL     1      -4.630 -11.318  18.082  0.00  0.00    +0.012 A 
ATOM     32  C   UNL     1      -7.238 -11.262  17.092  0.00  0.00    +0.024 A 
ATOM     33  C   UNL     1      -5.706 -11.554  18.937  0.00  0.00    +0.024 A 
ATOM     34  C   UNL     1      -7.009 -11.526  18.442  0.00  0.00    +0.029 A 
BRANCH  34  11
ATOM     11  N   UNL     1      -8.097 -11.764  19.308  0.00  0.00    -0.336 N 
ATOM     35  C   UNL     1      -8.170 -12.991  20.077  0.00  0.00    +0.129 C 
ATOM     36  C   UNL     1      -9.164 -10.790  19.431  0.00  0.00    +0.129 C 
ENDBRANCH  34  11
ENDBRANCH  20  24
ENDBRANCH  14   6
BRANCH  15   7
ATOM      3  O   UNL     1      -5.592 -10.574   5.486  0.00  0.00    -0.252 OA
ATOM      7  N   UNL     1      -4.625 -11.407   7.413  0.00  0.00    -0.292 N 
ATOM      8  N   UNL     1      -4.075 -12.364   5.398  0.00  0.00    -0.269 N 
ATOM     19  C   UNL     1      -4.835 -11.376   6.029  0.00  0.00    +0.304 C 
ATOM     40  H   UNL     1      -3.932 -12.055   7.779  0.00  0.00    +0.151 HD
ATOM     41  H   UNL     1      -3.498 -12.949   5.997  0.00  0.00    +0.156 HD
BRANCH   8  21
ATOM     21  C   UNL     1      -4.008 -12.657   4.016  0.00  0.00    +0.042 A 
ATOM     25  C   UNL     1      -5.181 -12.783   3.272  0.00  0.00    +0.069 A 
ATOM     26  C   UNL     1      -2.768 -12.819   3.396  0.00  0.00    +0.069 A 
ATOM     29  C   UNL     1      -2.703 -13.106   2.033  0.00  0.00    +0.125 A 
ATOM     30  C   UNL     1      -5.115 -13.071   1.909  0.00  0.00    +0.125 A 
ATOM     31  C   UNL     1      -3.876 -13.232   1.290  0.00  0.00    +0.091 A 
BRANCH  29   4
ATOM      4  O   UNL     1      -1.493 -13.263   1.427  0.00  0.00    -0.495 OA
ATOM     37  C   UNL     1      -0.647 -14.297   1.924  0.00  0.00    +0.277 C 
ENDBRANCH  29   4
BRANCH  30   5
ATOM      5  O   UNL     1      -6.260 -13.192   1.182  0.00  0.00    -0.495 OA
ATOM     38  C   UNL     1      -6.137 -13.137  -0.238  0.00  0.00    +0.277 C 
ENDBRANCH  30   5
ENDBRANCH   8  21
ENDBRANCH  15   7
TORSDOF 7
ENDMDL
MODEL 5
REMARK VINA RESULT:      -7.0     10.382     14.953
REMARK  Name = 11939955
REMARK  11 active torsions:
REMARK  status: ('A' for Active; 'I' for Inactive)
REMARK    1  A    between atoms: O_4  and  C_29
REMARK    2  A    between atoms: O_4  and  C_37
REMARK    3  A    between atoms: O_5  and  C_30
REMARK    4  A    between atoms: O_5  and  C_38
REMARK    5  A    between atoms: N_6  and  C_14
REMARK    6  A    between atoms: N_7  and  C_15
REMARK    7  A    between atoms: N_8  and  C_21
REMARK    8  A    between atoms: N_11  and  C_34
REMARK    9  A    between atoms: N_11  and  C_35
REMARK   10  A    between atoms: N_11  and  C_36
REMARK   11  A    between atoms: C_20  and  C_24
REMARK                            x       y       z     vdW  Elec       q    Type
REMARK                         _______ _______ _______ _____ _____    ______ ____
ROOT
ATOM      1  O   UNL     1      10.653  14.197  10.856  0.00  0.00    -0.370 OA
ATOM      2  O   UNL     1       9.653  12.077  12.916  0.00  0.00    -0.370 OA
ATOM     12  C   UNL     1      10.896  12.259  12.216  0.00  0.00    +0.171 C 
ATOM     13  C   UNL     1      10.558  12.763  10.826  0.00  0.00    +0.171 C 
ATOM     14  C   UNL     1      11.686  13.386  12.836  0.00  0.00    +0.130 C 
ATOM     15  C   UNL     1       9.123  12.336  10.618  0.00  0.00    +0.131 C 
ATOM     16  C   UNL     1      11.110  14.613  12.152  0.00  0.00    +0.185 C 
ATOM     17  C   UNL     1       8.565  12.373  12.029  0.00  0.00    +0.185 C 
ENDROOT
BRANCH  14   6
ATOM      6  N   UNL     1      13.089  13.245  12.511  0.00  0.00    -0.306 N 
ATOM      9  N   UNL     1      13.436  11.745  14.250  0.00  0.00    -0.214 NA
ATOM     10  N   UNL     1      15.235  12.402  12.788  0.00  0.00    -0.223 NA
ATOM     18  C   UNL     1      13.958  12.427  13.214  0.00  0.00    +0.216 A 
ATOM     20  C   UNL     1      14.311  10.959  14.912  0.00  0.00    +0.076 A 
ATOM     22  C   UNL     1      16.054  11.595  13.495  0.00  0.00    +0.116 A 
ATOM     23  C   UNL     1      15.644  10.843  14.576  0.00  0.00    +0.048 A 
ATOM     39  H   UNL     1      13.463  13.721  11.699  0.00  0.00    +0.149 HD
BRANCH  20  24
ATOM     24  C   UNL     1      13.755  10.225  16.023  0.00  0.00    +0.001 A 
ATOM     27  C   UNL     1      12.520   9.590  15.892  0.00  0.00    +0.012 A 
ATOM     28  C   UNL     1      14.454  10.147  17.229  0.00  0.00    +0.012 A 
ATOM     32  C   UNL     1      11.983   8.879  16.965  0.00  0.00    +0.024 A 
ATOM     33  C   UNL     1      13.918   9.436  18.301  0.00  0.00    +0.024 A 
ATOM     34  C   UNL     1      12.683   8.802  18.169  0.00  0.00    +0.029 A 
BRANCH  34  11
ATOM     11  N   UNL     1      12.140   8.083  19.256  0.00  0.00    -0.336 N 
ATOM     35  C   UNL     1      12.751   6.844  19.695  0.00  0.00    +0.129 C 
ATOM     36  C   UNL     1      10.958   8.569  19.940  0.00  0.00    +0.129 C 
ENDBRANCH  34  11
ENDBRANCH  20  24
ENDBRANCH  14   6
BRANCH  15   7
ATOM      3  O   UNL     1       9.958  11.527   8.000  0.00  0.00    -0.252 OA
ATOM      7  N   UNL     1       9.050  11.007  10.061  0.00  0.00    -0.292 N 
ATOM      8  N   UNL     1       9.288   9.334   8.505  0.00  0.00    -0.269 N 
ATOM     19  C   UNL     1       9.482  10.693   8.766  0.00  0.00    +0.304 C 
ATOM     40  H   UNL     1       8.731  10.249  10.658  0.00  0.00    +0.151 HD
ATOM     41  H   UNL     1       8.878   8.779   9.252  0.00  0.00    +0.156 HD
BRANCH   8  21
ATOM     21  C   UNL     1       9.593   8.627   7.318  0.00  0.00    +0.042 A 
ATOM     25  C   UNL     1      10.845   8.033   7.161  0.00  0.00    +0.069 A 
ATOM     26  C   UNL     1       8.639   8.521   6.306  0.00  0.00    +0.069 A 
ATOM     29  C   UNL     1       8.938   7.822   5.137  0.00  0.00    +0.125 A 
ATOM     30  C   UNL     1      11.144   7.335   5.992  0.00  0.00    +0.125 A 
ATOM     31  C   UNL     1      10.191   7.229   4.980  0.00  0.00    +0.091 A 
BRANCH  29   4
ATOM      4  O   UNL     1       8.008   7.717   4.148  0.00  0.00    -0.495 OA
ATOM     37  C   UNL     1       8.335   8.291   2.884  0.00  0.00    +0.277 C 
ENDBRANCH  29   4
BRANCH  30   5
ATOM      5  O   UNL     1      12.366   6.754   5.839  0.00  0.00    -0.495 OA
ATOM     38  C   UNL     1      13.266   6.835   6.943  0.00  0.00    +0.277 C 
ENDBRANCH  30   5
ENDBRANCH   8  21
ENDBRANCH  15   7
TORSDOF 7
ENDMDL
MODEL 6
REMARK VINA RESULT:      -6.9     17.631     24.757
REMARK  Name = 11939955
REMARK  11 active torsions:
REMARK  status: ('A' for Active; 'I' for Inactive)
REMARK    1  A    between atoms: O_4  and  C_29
REMARK    2  A    between atoms: O_4  and  C_37
REMARK    3  A    between atoms: O_5  and  C_30
REMARK    4  A    between atoms: O_5  and  C_38
REMARK    5  A    between atoms: N_6  and  C_14
REMARK    6  A    between atoms: N_7  and  C_15
REMARK    7  A    between atoms: N_8  and  C_21
REMARK    8  A    between atoms: N_11  and  C_34
REMARK    9  A    between atoms: N_11  and  C_35
REMARK   10  A    between atoms: N_11  and  C_36
REMARK   11  A    between atoms: C_20  and  C_24
REMARK                            x       y       z     vdW  Elec       q    Type
REMARK                         _______ _______ _______ _____ _____    ______ ____
ROOT
ATOM      1  O   UNL     1       6.120  13.216   4.269  0.00  0.00    -0.370 OA
ATOM      2  O   UNL     1       4.075  11.020   3.413  0.00  0.00    -0.370 OA
ATOM     12  C   UNL     1       4.405  11.619   4.678  0.00  0.00    +0.171 C 
ATOM     13  C   UNL     1       5.902  11.859   4.686  0.00  0.00    +0.171 C 
ATOM     14  C   UNL     1       3.808  13.003   4.773  0.00  0.00    +0.130 C 
ATOM     15  C   UNL     1       6.434  10.898   3.647  0.00  0.00    +0.131 C 
ATOM     16  C   UNL     1       4.853  13.863   4.083  0.00  0.00    +0.185 C 
ATOM     17  C   UNL     1       5.281  10.813   2.662  0.00  0.00    +0.185 C 
ENDROOT
BRANCH  14   6
ATOM      6  N   UNL     1       3.677  13.392   6.160  0.00  0.00    -0.306 N 
ATOM      9  N   UNL     1       1.652  12.276   6.377  0.00  0.00    -0.214 NA
ATOM     10  N   UNL     1       2.628  13.468   8.230  0.00  0.00    -0.223 NA
ATOM     18  C   UNL     1       2.605  13.028   6.957  0.00  0.00    +0.216 A 
ATOM     20  C   UNL     1       0.623  11.940   7.183  0.00  0.00    +0.076 A 
ATOM     22  C   UNL     1       1.568  13.095   8.979  0.00  0.00    +0.116 A 
ATOM     23  C   UNL     1       0.527  12.325   8.505  0.00  0.00    +0.048 A 
ATOM     39  H   UNL     1       4.422  13.914   6.604  0.00  0.00    +0.149 HD
BRANCH  20  24
ATOM     24  C   UNL     1      -0.401  11.132   6.565  0.00  0.00    +0.001 A 
ATOM     27  C   UNL     1      -0.693  11.292   5.211  0.00  0.00    +0.012 A 
ATOM     28  C   UNL     1      -1.097  10.189   7.322  0.00  0.00    +0.012 A 
ATOM     32  C   UNL     1      -1.681  10.511   4.613  0.00  0.00    +0.024 A 
ATOM     33  C   UNL     1      -2.085   9.406   6.723  0.00  0.00    +0.024 A 
ATOM     34  C   UNL     1      -2.376   9.567   5.369  0.00  0.00    +0.029 A 
BRANCH  34  11
ATOM     11  N   UNL     1      -3.376   8.777   4.765  0.00  0.00    -0.336 N 
ATOM     35  C   UNL     1      -3.592   7.409   5.197  0.00  0.00    +0.129 C 
ATOM     36  C   UNL     1      -4.193   9.317   3.696  0.00  0.00    +0.129 C 
ENDBRANCH  34  11
ENDBRANCH  20  24
ENDBRANCH  14   6
BRANCH  15   7
ATOM      3  O   UNL     1       8.736  10.195   5.199  0.00  0.00    -0.252 OA
ATOM      7  N   UNL     1       6.722   9.609   4.227  0.00  0.00    -0.292 N 
ATOM      8  N   UNL     1       7.884   8.017   5.408  0.00  0.00    -0.269 N 
ATOM     19  C   UNL     1       7.876   9.346   4.976  0.00  0.00    +0.304 C 
ATOM     40  H   UNL     1       6.026   8.874   4.144  0.00  0.00    +0.151 HD
ATOM     41  H   UNL     1       7.091   7.443   5.133  0.00  0.00    +0.156 HD
BRANCH   8  21
ATOM     21  C   UNL     1       8.869   7.363   6.185  0.00  0.00    +0.042 A 
ATOM     25  C   UNL     1      10.185   7.294   5.729  0.00  0.00    +0.069 A 
ATOM     26  C   UNL     1       8.523   6.788   7.408  0.00  0.00    +0.069 A 
ATOM     29  C   UNL     1       9.494   6.145   8.175  0.00  0.00    +0.125 A 
ATOM     30  C   UNL     1      11.156   6.651   6.497  0.00  0.00    +0.125 A 
ATOM     31  C   UNL     1      10.810   6.077   7.719  0.00  0.00    +0.091 A 
BRANCH  29   4
ATOM      4  O   UNL     1       9.158   5.585   9.370  0.00  0.00    -0.495 OA
ATOM     37  C   UNL     1       9.313   4.173   9.491  0.00  0.00    +0.277 C 
ENDBRANCH  29   4
BRANCH  30   5
ATOM      5  O   UNL     1      12.441   6.585   6.053  0.00  0.00    -0.495 OA
ATOM     38  C   UNL     1      13.466   6.947   6.976  0.00  0.00    +0.277 C 
ENDBRANCH  30   5
ENDBRANCH   8  21
ENDBRANCH  15   7
TORSDOF 7
ENDMDL
MODEL 7
REMARK VINA RESULT:      -6.9     10.313     14.777
REMARK  Name = 11939955
REMARK  11 active torsions:
REMARK  status: ('A' for Active; 'I' for Inactive)
REMARK    1  A    between atoms: O_4  and  C_29
REMARK    2  A    between atoms: O_4  and  C_37
REMARK    3  A    between atoms: O_5  and  C_30
REMARK    4  A    between atoms: O_5  and  C_38
REMARK    5  A    between atoms: N_6  and  C_14
REMARK    6  A    between atoms: N_7  and  C_15
REMARK    7  A    between atoms: N_8  and  C_21
REMARK    8  A    between atoms: N_11  and  C_34
REMARK    9  A    between atoms: N_11  and  C_35
REMARK   10  A    between atoms: N_11  and  C_36
REMARK   11  A    between atoms: C_20  and  C_24
REMARK                            x       y       z     vdW  Elec       q    Type
REMARK                         _______ _______ _______ _____ _____    ______ ____
ROOT
ATOM      1  O   UNL     1      10.770  14.189  10.982  0.00  0.00    -0.370 OA
ATOM      2  O   UNL     1       9.726  12.097  13.049  0.00  0.00    -0.370 OA
ATOM     12  C   UNL     1      10.969  12.247  12.342  0.00  0.00    +0.171 C 
ATOM     13  C   UNL     1      10.638  12.759  10.953  0.00  0.00    +0.171 C 
ATOM     14  C   UNL     1      11.792  13.353  12.957  0.00  0.00    +0.130 C 
ATOM     15  C   UNL     1       9.191  12.369  10.753  0.00  0.00    +0.131 C 
ATOM     16  C   UNL     1      11.244  14.594  12.275  0.00  0.00    +0.185 C 
ATOM     17  C   UNL     1       8.641  12.421  12.167  0.00  0.00    +0.185 C 
ENDROOT
BRANCH  14   6
ATOM      6  N   UNL     1      13.189  13.175  12.625  0.00  0.00    -0.306 N 
ATOM      9  N   UNL     1      13.506  11.667  14.363  0.00  0.00    -0.214 NA
ATOM     10  N   UNL     1      15.313  12.276  12.890  0.00  0.00    -0.223 NA
ATOM     18  C   UNL     1      14.040  12.335  13.323  0.00  0.00    +0.216 A 
ATOM     20  C   UNL     1      14.363  10.859  15.020  0.00  0.00    +0.076 A 
ATOM     22  C   UNL     1      16.115  11.449  13.593  0.00  0.00    +0.116 A 
ATOM     23  C   UNL     1      15.691  10.708  14.677  0.00  0.00    +0.048 A 
ATOM     39  H   UNL     1      13.571  13.641  11.810  0.00  0.00    +0.149 HD
BRANCH  20  24
ATOM     24  C   UNL     1      13.794  10.139  16.134  0.00  0.00    +0.001 A 
ATOM     27  C   UNL     1      14.494  10.049  17.337  0.00  0.00    +0.012 A 
ATOM     28  C   UNL     1      12.542   9.537  16.010  0.00  0.00    +0.012 A 
ATOM     32  C   UNL     1      13.944   9.355  18.414  0.00  0.00    +0.024 A 
ATOM     33  C   UNL     1      11.991   8.844  17.088  0.00  0.00    +0.024 A 
ATOM     34  C   UNL     1      12.692   8.754  18.290  0.00  0.00    +0.029 A 
BRANCH  34  11
ATOM     11  N   UNL     1      12.135   8.052  19.379  0.00  0.00    -0.336 N 
ATOM     35  C   UNL     1      10.918   8.521  20.011  0.00  0.00    +0.129 C 
ATOM     36  C   UNL     1      12.780   6.858  19.890  0.00  0.00    +0.129 C 
ENDBRANCH  34  11
ENDBRANCH  20  24
ENDBRANCH  14   6
BRANCH  15   7
ATOM      3  O   UNL     1       9.948  11.547   8.116  0.00  0.00    -0.252 OA
ATOM      7  N   UNL     1       9.080  11.042  10.198  0.00  0.00    -0.292 N 
ATOM      8  N   UNL     1       9.251   9.366   8.636  0.00  0.00    -0.269 N 
ATOM     19  C   UNL     1       9.475  10.721   8.893  0.00  0.00    +0.304 C 
ATOM     40  H   UNL     1       8.761  10.289  10.802  0.00  0.00    +0.151 HD
ATOM     41  H   UNL     1       8.848   8.818   9.391  0.00  0.00    +0.156 HD
BRANCH   8  21
ATOM     21  C   UNL     1       9.514   8.654   7.441  0.00  0.00    +0.042 A 
ATOM     25  C   UNL     1       8.574   8.649   6.411  0.00  0.00    +0.069 A 
ATOM     26  C   UNL     1      10.715   7.960   7.294  0.00  0.00    +0.069 A 
ATOM     29  C   UNL     1      10.975   7.260   6.116  0.00  0.00    +0.125 A 
ATOM     30  C   UNL     1       8.835   7.948   5.233  0.00  0.00    +0.125 A 
ATOM     31  C   UNL     1      10.035   7.255   5.086  0.00  0.00    +0.091 A 
BRANCH  29   4
ATOM      4  O   UNL     1      12.148   6.583   5.970  0.00  0.00    -0.495 OA
ATOM     37  C   UNL     1      13.223   6.954   6.830  0.00  0.00    +0.277 C 
ENDBRANCH  29   4
BRANCH  30   5
ATOM      5  O   UNL     1       7.918   7.944   4.227  0.00  0.00    -0.495 OA
ATOM     38  C   UNL     1       7.371   9.203   3.841  0.00  0.00    +0.277 C 
ENDBRANCH  30   5
ENDBRANCH   8  21
ENDBRANCH  15   7
TORSDOF 7
ENDMDL
MODEL 8
REMARK VINA RESULT:      -6.9     17.794     24.851
REMARK  Name = 11939955
REMARK  11 active torsions:
REMARK  status: ('A' for Active; 'I' for Inactive)
REMARK    1  A    between atoms: O_4  and  C_29
REMARK    2  A    between atoms: O_4  and  C_37
REMARK    3  A    between atoms: O_5  and  C_30
REMARK    4  A    between atoms: O_5  and  C_38
REMARK    5  A    between atoms: N_6  and  C_14
REMARK    6  A    between atoms: N_7  and  C_15
REMARK    7  A    between atoms: N_8  and  C_21
REMARK    8  A    between atoms: N_11  and  C_34
REMARK    9  A    between atoms: N_11  and  C_35
REMARK   10  A    between atoms: N_11  and  C_36
REMARK   11  A    between atoms: C_20  and  C_24
REMARK                            x       y       z     vdW  Elec       q    Type
REMARK                         _______ _______ _______ _____ _____    ______ ____
ROOT
ATOM      1  O   UNL     1       6.483  13.378   4.565  0.00  0.00    -0.370 OA
ATOM      2  O   UNL     1       4.202  11.542   3.485  0.00  0.00    -0.370 OA
ATOM     12  C   UNL     1       4.543  12.021   4.797  0.00  0.00    +0.171 C 
ATOM     13  C   UNL     1       6.056  12.045   4.889  0.00  0.00    +0.171 C 
ATOM     14  C   UNL     1       4.140  13.468   4.949  0.00  0.00    +0.130 C 
ATOM     15  C   UNL     1       6.505  11.075   3.820  0.00  0.00    +0.131 C 
ATOM     16  C   UNL     1       5.330  14.207   4.361  0.00  0.00    +0.185 C 
ATOM     17  C   UNL     1       5.406  11.206   2.780  0.00  0.00    +0.185 C 
ENDROOT
BRANCH  14   6
ATOM      6  N   UNL     1       3.989  13.797   6.349  0.00  0.00    -0.306 N 
ATOM      9  N   UNL     1       1.991  12.624   6.504  0.00  0.00    -0.214 NA
ATOM     10  N   UNL     1       2.924  13.763   8.412  0.00  0.00    -0.223 NA
ATOM     18  C   UNL     1       2.921  13.376   7.122  0.00  0.00    +0.216 A 
ATOM     20  C   UNL     1       0.965  12.231   7.288  0.00  0.00    +0.076 A 
ATOM     22  C   UNL     1       1.868  13.335   9.137  0.00  0.00    +0.116 A 
ATOM     23  C   UNL     1       0.850  12.559   8.623  0.00  0.00    +0.048 A 
ATOM     39  H   UNL     1       4.718  14.319   6.820  0.00  0.00    +0.149 HD
BRANCH  20  24
ATOM     24  C   UNL     1      -0.034  11.424   6.629  0.00  0.00    +0.001 A 
ATOM     27  C   UNL     1      -0.325  11.635   5.282  0.00  0.00    +0.012 A 
ATOM     28  C   UNL     1      -0.708  10.429   7.340  0.00  0.00    +0.012 A 
ATOM     32  C   UNL     1      -1.289  10.855   4.645  0.00  0.00    +0.024 A 
ATOM     33  C   UNL     1      -1.671   9.648   6.702  0.00  0.00    +0.024 A 
ATOM     34  C   UNL     1      -1.961   9.861   5.355  0.00  0.00    +0.029 A 
BRANCH  34  11
ATOM     11  N   UNL     1      -2.937   9.071   4.711  0.00  0.00    -0.336 N 
ATOM     35  C   UNL     1      -3.650   9.580   3.557  0.00  0.00    +0.129 C 
ATOM     36  C   UNL     1      -3.249   7.743   5.204  0.00  0.00    +0.129 C 
ENDBRANCH  34  11
ENDBRANCH  20  24
ENDBRANCH  14   6
BRANCH  15   7
ATOM      3  O   UNL     1       8.866   9.693   4.668  0.00  0.00    -0.252 OA
ATOM      7  N   UNL     1       6.579   9.729   4.334  0.00  0.00    -0.292 N 
ATOM      8  N   UNL     1       7.543   7.823   5.182  0.00  0.00    -0.269 N 
ATOM     19  C   UNL     1       7.779   9.124   4.728  0.00  0.00    +0.304 C 
ATOM     40  H   UNL     1       5.713   9.217   4.478  0.00  0.00    +0.151 HD
ATOM     41  H   UNL     1       6.578   7.502   5.165  0.00  0.00    +0.156 HD
BRANCH   8  21
ATOM     21  C   UNL     1       8.487   6.887   5.664  0.00  0.00    +0.042 A 
ATOM     25  C   UNL     1       8.761   6.813   7.030  0.00  0.00    +0.069 A 
ATOM     26  C   UNL     1       9.144   6.037   4.774  0.00  0.00    +0.069 A 
ATOM     29  C   UNL     1      10.073   5.114   5.250  0.00  0.00    +0.125 A 
ATOM     30  C   UNL     1       9.692   5.889   7.505  0.00  0.00    +0.125 A 
ATOM     31  C   UNL     1      10.347   5.040   6.616  0.00  0.00    +0.091 A 
BRANCH  29   4
ATOM      4  O   UNL     1      10.714   4.282   4.382  0.00  0.00    -0.495 OA
ATOM     37  C   UNL     1      10.839   4.724   3.032  0.00  0.00    +0.277 C 
ENDBRANCH  29   4
BRANCH  30   5
ATOM      5  O   UNL     1       9.958   5.816   8.838  0.00  0.00    -0.495 OA
ATOM     38  C   UNL     1       9.418   4.703   9.548  0.00  0.00    +0.277 C 
ENDBRANCH  30   5
ENDBRANCH   8  21
ENDBRANCH  15   7
TORSDOF 7
ENDMDL
MODEL 9
REMARK VINA RESULT:      -6.8      4.760     12.902
REMARK  Name = 11939955
REMARK  11 active torsions:
REMARK  status: ('A' for Active; 'I' for Inactive)
REMARK    1  A    between atoms: O_4  and  C_29
REMARK    2  A    between atoms: O_4  and  C_37
REMARK    3  A    between atoms: O_5  and  C_30
REMARK    4  A    between atoms: O_5  and  C_38
REMARK    5  A    between atoms: N_6  and  C_14
REMARK    6  A    between atoms: N_7  and  C_15
REMARK    7  A    between atoms: N_8  and  C_21
REMARK    8  A    between atoms: N_11  and  C_34
REMARK    9  A    between atoms: N_11  and  C_35
REMARK   10  A    between atoms: N_11  and  C_36
REMARK   11  A    between atoms: C_20  and  C_24
REMARK                            x       y       z     vdW  Elec       q    Type
REMARK                         _______ _______ _______ _____ _____    ______ ____
ROOT
ATOM      1  O   UNL     1      14.447   7.045  17.852  0.00  0.00    -0.370 OA
ATOM      2  O   UNL     1      14.000   8.086  20.759  0.00  0.00    -0.370 OA
ATOM     12  C   UNL     1      14.632   8.651  19.597  0.00  0.00    +0.171 C 
ATOM     13  C   UNL     1      15.338   7.520  18.875  0.00  0.00    +0.171 C 
ATOM     14  C   UNL     1      13.591   9.126  18.613  0.00  0.00    +0.130 C 
ATOM     15  C   UNL     1      15.525   6.463  19.940  0.00  0.00    +0.131 C 
ATOM     16  C   UNL     1      13.268   7.863  17.835  0.00  0.00    +0.185 C 
ATOM     17  C   UNL     1      14.322   6.690  20.839  0.00  0.00    +0.185 C 
ENDROOT
BRANCH  14   6
ATOM      6  N   UNL     1      14.159  10.124  17.733  0.00  0.00    -0.306 N 
ATOM      9  N   UNL     1      13.164  11.862  18.909  0.00  0.00    -0.214 NA
ATOM     10  N   UNL     1      14.547  12.287  16.982  0.00  0.00    -0.223 NA
ATOM     18  C   UNL     1      13.948  11.484  17.882  0.00  0.00    +0.216 A 
ATOM     20  C   UNL     1      12.980  13.194  19.024  0.00  0.00    +0.076 A 
ATOM     22  C   UNL     1      14.320  13.606  17.157  0.00  0.00    +0.116 A 
ATOM     23  C   UNL     1      13.538  14.122  18.170  0.00  0.00    +0.048 A 
ATOM     39  H   UNL     1      14.789   9.836  16.994  0.00  0.00    +0.149 HD
BRANCH  20  24
ATOM     24  C   UNL     1      12.141  13.603  20.126  0.00  0.00    +0.001 A 
ATOM     27  C   UNL     1      11.567  14.874  20.131  0.00  0.00    +0.012 A 
ATOM     28  C   UNL     1      11.902  12.726  21.185  0.00  0.00    +0.012 A 
ATOM     32  C   UNL     1      10.755  15.269  21.194  0.00  0.00    +0.024 A 
ATOM     33  C   UNL     1      11.089  13.120  22.247  0.00  0.00    +0.024 A 
ATOM     34  C   UNL     1      10.516  14.391  22.251  0.00  0.00    +0.029 A 
BRANCH  34  11
ATOM     11  N   UNL     1       9.696  14.791  23.327  0.00  0.00    -0.336 N 
ATOM     35  C   UNL     1       8.377  15.339  23.080  0.00  0.00    +0.129 C 
ATOM     36  C   UNL     1      10.165  14.669  24.693  0.00  0.00    +0.129 C 
ENDBRANCH  34  11
ENDBRANCH  20  24
ENDBRANCH  14   6
BRANCH  15   7
ATOM      3  O   UNL     1      18.138   5.625  19.119  0.00  0.00    -0.252 OA
ATOM      7  N   UNL     1      16.760   6.661  20.659  0.00  0.00    -0.292 N 
ATOM      8  N   UNL     1      19.013   6.550  21.092  0.00  0.00    -0.269 N 
ATOM     19  C   UNL     1      18.002   6.218  20.186  0.00  0.00    +0.304 C 
ATOM     40  H   UNL     1      16.738   7.203  21.518  0.00  0.00    +0.151 HD
ATOM     41  H   UNL     1      18.729   7.042  21.934  0.00  0.00    +0.156 HD
BRANCH   8  21
ATOM     21  C   UNL     1      20.398   6.280  20.983  0.00  0.00    +0.042 A 
ATOM     25  C   UNL     1      20.887   5.009  21.283  0.00  0.00    +0.069 A 
ATOM     26  C   UNL     1      21.274   7.286  20.573  0.00  0.00    +0.069 A 
ATOM     29  C   UNL     1      22.638   7.019  20.464  0.00  0.00    +0.125 A 
ATOM     30  C   UNL     1      22.252   4.743  21.174  0.00  0.00    +0.125 A 
ATOM     31  C   UNL     1      23.127   5.748  20.764  0.00  0.00    +0.091 A 
BRANCH  29   4
ATOM      4  O   UNL     1      23.494   8.000  20.062  0.00  0.00    -0.495 OA
ATOM     37  C   UNL     1      22.915   9.190  19.533  0.00  0.00    +0.277 C 
ENDBRANCH  29   4
BRANCH  30   5
ATOM      5  O   UNL     1      22.729   3.502  21.465  0.00  0.00    -0.495 OA
ATOM     38  C   UNL     1      22.549   3.034  22.801  0.00  0.00    +0.277 C 
ENDBRANCH  30   5
ENDBRANCH   8  21
ENDBRANCH  15   7
TORSDOF 7
ENDMDL
MODEL 10
REMARK VINA RESULT:      -6.6     15.822     22.070
REMARK  Name = 11939955
REMARK  11 active torsions:
REMARK  status: ('A' for Active; 'I' for Inactive)
REMARK    1  A    between atoms: O_4  and  C_29
REMARK    2  A    between atoms: O_4  and  C_37
REMARK    3  A    between atoms: O_5  and  C_30
REMARK    4  A    between atoms: O_5  and  C_38
REMARK    5  A    between atoms: N_6  and  C_14
REMARK    6  A    between atoms: N_7  and  C_15
REMARK    7  A    between atoms: N_8  and  C_21
REMARK    8  A    between atoms: N_11  and  C_34
REMARK    9  A    between atoms: N_11  and  C_35
REMARK   10  A    between atoms: N_11  and  C_36
REMARK   11  A    between atoms: C_20  and  C_24
REMARK                            x       y       z     vdW  Elec       q    Type
REMARK                         _______ _______ _______ _____ _____    ______ ____
ROOT
ATOM      1  O   UNL     1      10.303   4.889   5.088  0.00  0.00    -0.370 OA
ATOM      2  O   UNL     1       9.442   7.277   3.272  0.00  0.00    -0.370 OA
ATOM     12  C   UNL     1      10.720   6.725   3.633  0.00  0.00    +0.171 C 
ATOM     13  C   UNL     1      10.629   6.288   5.082  0.00  0.00    +0.171 C 
ATOM     14  C   UNL     1      10.970   5.443   2.875  0.00  0.00    +0.130 C 
ATOM     15  C   UNL     1       9.480   7.097   5.639  0.00  0.00    +0.131 C 
ATOM     16  C   UNL     1      10.269   4.406   3.736  0.00  0.00    +0.185 C 
ATOM     17  C   UNL     1       8.585   7.270   4.424  0.00  0.00    +0.185 C 
ENDROOT
BRANCH  14   6
ATOM      6  N   UNL     1      12.389   5.169   2.818  0.00  0.00    -0.306 N 
ATOM      9  N   UNL     1      12.287   4.622   0.563  0.00  0.00    -0.214 NA
ATOM     10  N   UNL     1      14.368   4.548   1.775  0.00  0.00    -0.223 NA
ATOM     18  C   UNL     1      13.043   4.762   1.668  0.00  0.00    +0.216 A 
ATOM     20  C   UNL     1      12.957   4.224  -0.538  0.00  0.00    +0.076 A 
ATOM     22  C   UNL     1      14.975   4.153   0.636  0.00  0.00    +0.116 A 
ATOM     23  C   UNL     1      14.314   3.973  -0.562  0.00  0.00    +0.048 A 
ATOM     39  H   UNL     1      12.960   5.326   3.640  0.00  0.00    +0.149 HD
BRANCH  20  24
ATOM     24  C   UNL     1      12.150   4.074  -1.725  0.00  0.00    +0.001 A 
ATOM     27  C   UNL     1      10.840   4.552  -1.743  0.00  0.00    +0.012 A 
ATOM     28  C   UNL     1      12.680   3.452  -2.856  0.00  0.00    +0.012 A 
ATOM     32  C   UNL     1      10.060   4.408  -2.890  0.00  0.00    +0.024 A 
ATOM     33  C   UNL     1      11.901   3.309  -4.004  0.00  0.00    +0.024 A 
ATOM     34  C   UNL     1      10.591   3.787  -4.020  0.00  0.00    +0.029 A 
BRANCH  34  11
ATOM     11  N   UNL     1       9.803   3.641  -5.181  0.00  0.00    -0.336 N 
ATOM     35  C   UNL     1      10.056   2.556  -6.109  0.00  0.00    +0.129 C 
ATOM     36  C   UNL     1       8.737   4.581  -5.468  0.00  0.00    +0.129 C 
ENDBRANCH  34  11
ENDBRANCH  20  24
ENDBRANCH  14   6
BRANCH  15   7
ATOM      3  O   UNL     1       9.162   8.103   8.302  0.00  0.00    -0.252 OA
ATOM      7  N   UNL     1       9.933   8.372   6.139  0.00  0.00    -0.292 N 
ATOM      8  N   UNL     1      10.282  10.063   7.655  0.00  0.00    -0.269 N 
ATOM     19  C   UNL     1       9.738   8.791   7.461  0.00  0.00    +0.304 C 
ATOM     40  H   UNL     1      10.478   8.968   5.522  0.00  0.00    +0.151 HD
ATOM     41  H   UNL     1      10.725  10.498   6.849  0.00  0.00    +0.156 HD
BRANCH   8  21
ATOM     21  C   UNL     1      10.291  10.831   8.843  0.00  0.00    +0.042 A 
ATOM     25  C   UNL     1      11.495  11.084   9.501  0.00  0.00    +0.069 A 
ATOM     26  C   UNL     1       9.096  11.337   9.355  0.00  0.00    +0.069 A 
ATOM     29  C   UNL     1       9.106  12.096  10.525  0.00  0.00    +0.125 A 
ATOM     30  C   UNL     1      11.503  11.843  10.671  0.00  0.00    +0.125 A 
ATOM     31  C   UNL     1      10.309  12.349  11.182  0.00  0.00    +0.091 A 
BRANCH  29   4
ATOM      4  O   UNL     1       7.940  12.592  11.025  0.00  0.00    -0.495 OA
ATOM     37  C   UNL     1       7.098  13.306  10.123  0.00  0.00    +0.277 C 
ENDBRANCH  29   4
BRANCH  30   5
ATOM      5  O   UNL     1      12.678  12.092  11.312  0.00  0.00    -0.495 OA
ATOM     38  C   UNL     1      12.601  12.734  12.583  0.00  0.00    +0.277 C 
ENDBRANCH  30   5
ENDBRANCH   8  21
ENDBRANCH  15   7
TORSDOF 7
ENDMDL
