MODEL 1
REMARK VINA RESULT:      -6.3      0.000      0.000
REMARK  Name = 45361336
REMARK  13 active torsions:
REMARK  status: ('A' for Active; 'I' for Inactive)
REMARK    1  A    between atoms: O_2  and  C_11
REMARK    2  A    between atoms: N_6  and  C_25
REMARK    3  A    between atoms: N_6  and  C_26
REMARK    4  A    between atoms: N_8  and  C_29
REMARK    5  A    between atoms: N_8  and  C_31
REMARK    6  A    between atoms: N_8  and  C_32
REMARK    7  A    between atoms: C_9  and  C_17
REMARK    8  A    between atoms: C_12  and  C_18
REMARK    9  A    between atoms: C_14  and  C_21
REMARK   10  A    between atoms: C_18  and  C_22
REMARK   11  A    between atoms: C_18  and  C_23
REMARK   12  A    between atoms: C_25  and  C_28
REMARK   13  A    between atoms: C_27  and  C_29
REMARK                            x       y       z     vdW  Elec       q    Type
REMARK                         _______ _______ _______ _____ _____    ______ ____
ROOT
ATOM      1  S   UNL     1      -5.932 -10.079   6.515  0.00  0.00    -0.057 S 
ATOM      4  O   UNL     1      -9.357  -6.898   6.802  0.00  0.00    -0.274 OA
ATOM      5  N   UNL     1      -7.282  -8.612   8.162  0.00  0.00    -0.229 NA
ATOM      7  N   UNL     1      -7.847  -8.425   5.827  0.00  0.00    -0.264 N 
ATOM      9  C   UNL     1      -4.063 -10.554  10.147  0.00  0.00    -0.022 C 
ATOM     10  C   UNL     1      -5.351 -10.312  11.026  0.00  0.00    +0.033 C 
ATOM     11  C   UNL     1      -4.982 -10.053  12.515  0.00  0.00    +0.123 C 
ATOM     12  C   UNL     1      -4.052 -11.140  13.098  0.00  0.00    +0.029 C 
ATOM     13  C   UNL     1      -3.199 -11.668  10.784  0.00  0.00    +0.008 C 
ATOM     14  C   UNL     1      -6.290  -9.197  10.408  0.00  0.00    +0.042 C 
ATOM     15  C   UNL     1      -2.817 -11.378  12.229  0.00  0.00    +0.007 C 
ATOM     16  C   UNL     1      -4.479 -11.042   8.724  0.00  0.00    +0.051 C 
ATOM     17  C   UNL     1      -3.204  -9.271  10.007  0.00  0.00    +0.012 C 
ATOM     19  C   UNL     1      -6.382  -9.354   8.908  0.00  0.00    +0.057 A 
ATOM     20  C   UNL     1      -5.555 -10.177   8.172  0.00  0.00    +0.015 A 
ATOM     21  C   UNL     1      -7.700  -9.183  11.019  0.00  0.00    +0.014 C 
ATOM     24  C   UNL     1      -7.142  -8.922   6.892  0.00  0.00    +0.165 A 
ATOM     27  C   UNL     1      -8.894  -7.464   5.816  0.00  0.00    +0.233 C 
ATOM     34  H   UNL     1      -7.567  -8.817   4.931  0.00  0.00    +0.157 HD
ENDROOT
BRANCH  11   2
ATOM      2  O   UNL     1      -6.171 -10.046  13.304  0.00  0.00    -0.391 OA
ATOM     33  H   UNL     1      -6.896 -10.398  12.760  0.00  0.00    +0.210 HD
ENDBRANCH  11   2
BRANCH  12  18
ATOM     18  C   UNL     1      -3.616 -10.809  14.530  0.00  0.00    +0.078 C 
ATOM     22  C   UNL     1      -2.113 -10.531  14.555  0.00  0.00    +0.017 C 
BRANCH  18  23
ATOM      3  O   UNL     1      -3.748 -13.129  15.105  0.00  0.00    -0.275 OA
ATOM      6  N   UNL     1      -4.575 -11.658  16.688  0.00  0.00    -0.301 N 
ATOM     23  C   UNL     1      -3.976 -11.968  15.463  0.00  0.00    +0.219 C 
ATOM     26  C   UNL     1      -4.951 -12.741  17.591  0.00  0.00    +0.132 C 
BRANCH   6  25
ATOM     25  C   UNL     1      -4.846 -10.317  17.200  0.00  0.00    +0.134 C 
BRANCH  25  28
ATOM     28  C   UNL     1      -6.304 -10.193  17.499  0.00  0.00    -0.016 C 
ATOM     30  C   UNL     1      -7.186  -9.609  16.680  0.00  0.00    +0.005 C 
ENDBRANCH  25  28
ENDBRANCH   6  25
ENDBRANCH  18  23
ENDBRANCH  12  18
BRANCH  27  29
ATOM     29  C   UNL     1      -9.405  -7.206   4.409  0.00  0.00    +0.180 C 
BRANCH  29   8
ATOM      8  N   UNL     1      -8.875  -8.220   3.508  0.00  0.00    -0.300 NA
ATOM     31  C   UNL     1      -9.952  -9.068   2.992  0.00  0.00    +0.105 C 
ATOM     32  C   UNL     1      -8.147  -7.598   2.400  0.00  0.00    +0.105 C 
ENDBRANCH  29   8
ENDBRANCH  27  29
TORSDOF 7
ENDMDL
MODEL 2
REMARK VINA RESULT:      -5.8     20.485     23.240
REMARK  Name = 45361336
REMARK  13 active torsions:
REMARK  status: ('A' for Active; 'I' for Inactive)
REMARK    1  A    between atoms: O_2  and  C_11
REMARK    2  A    between atoms: N_6  and  C_25
REMARK    3  A    between atoms: N_6  and  C_26
REMARK    4  A    between atoms: N_8  and  C_29
REMARK    5  A    between atoms: N_8  and  C_31
REMARK    6  A    between atoms: N_8  and  C_32
REMARK    7  A    between atoms: C_9  and  C_17
REMARK    8  A    between atoms: C_12  and  C_18
REMARK    9  A    between atoms: C_14  and  C_21
REMARK   10  A    between atoms: C_18  and  C_22
REMARK   11  A    between atoms: C_18  and  C_23
REMARK   12  A    between atoms: C_25  and  C_28
REMARK   13  A    between atoms: C_27  and  C_29
REMARK                            x       y       z     vdW  Elec       q    Type
REMARK                         _______ _______ _______ _____ _____    ______ ____
ROOT
ATOM      1  S   UNL     1     -13.826   5.823  22.256  0.00  0.00    -0.057 S 
ATOM      4  O   UNL     1     -18.154   4.958  20.693  0.00  0.00    -0.274 OA
ATOM      5  N   UNL     1     -15.537   6.430  20.415  0.00  0.00    -0.229 NA
ATOM      7  N   UNL     1     -16.240   4.820  22.064  0.00  0.00    -0.264 N 
ATOM      9  C   UNL     1     -11.743   8.162  19.591  0.00  0.00    -0.022 C 
ATOM     10  C   UNL     1     -12.989   8.999  19.100  0.00  0.00    +0.033 C 
ATOM     11  C   UNL     1     -12.670   9.778  17.793  0.00  0.00    +0.123 C 
ATOM     12  C   UNL     1     -11.382  10.625  17.901  0.00  0.00    +0.029 C 
ATOM     13  C   UNL     1     -10.505   9.084  19.694  0.00  0.00    +0.008 C 
ATOM     14  C   UNL     1     -14.296   8.111  19.000  0.00  0.00    +0.042 C 
ATOM     15  C   UNL     1     -10.187   9.809  18.393  0.00  0.00    +0.007 C 
ATOM     16  C   UNL     1     -12.020   7.590  21.016  0.00  0.00    +0.051 C 
ATOM     17  C   UNL     1     -11.416   6.988  18.632  0.00  0.00    +0.012 C 
ATOM     19  C   UNL     1     -14.395   7.178  20.183  0.00  0.00    +0.057 A 
ATOM     20  C   UNL     1     -13.362   6.951  21.069  0.00  0.00    +0.015 A 
ATOM     21  C   UNL     1     -15.584   8.940  18.879  0.00  0.00    +0.014 C 
ATOM     24  C   UNL     1     -15.354   5.692  21.487  0.00  0.00    +0.165 A 
ATOM     27  C   UNL     1     -17.564   4.493  21.664  0.00  0.00    +0.233 C 
ATOM     34  H   UNL     1     -15.880   4.358  22.896  0.00  0.00    +0.157 HD
ENDROOT
BRANCH  11   2
ATOM      2  O   UNL     1     -13.741  10.675  17.501  0.00  0.00    -0.391 OA
ATOM     33  H   UNL     1     -13.577  11.065  16.625  0.00  0.00    +0.210 HD
ENDBRANCH  11   2
BRANCH  12  18
ATOM     18  C   UNL     1     -11.029  11.299  16.569  0.00  0.00    +0.078 C 
ATOM     22  C   UNL     1     -10.458  10.258  15.607  0.00  0.00    +0.017 C 
BRANCH  18  23
ATOM      3  O   UNL     1      -8.824  12.231  16.619  0.00  0.00    -0.275 OA
ATOM      6  N   UNL     1     -10.527  13.657  17.266  0.00  0.00    -0.301 N 
ATOM     23  C   UNL     1     -10.029  12.432  16.811  0.00  0.00    +0.219 C 
ATOM     26  C   UNL     1      -9.598  14.751  17.527  0.00  0.00    +0.132 C 
BRANCH   6  25
ATOM     25  C   UNL     1     -11.934  13.988  17.484  0.00  0.00    +0.134 C 
BRANCH  25  28
ATOM     28  C   UNL     1     -12.178  14.143  18.948  0.00  0.00    -0.016 C 
ATOM     30  C   UNL     1     -13.039  13.393  19.644  0.00  0.00    +0.005 C 
ENDBRANCH  25  28
ENDBRANCH   6  25
ENDBRANCH  18  23
ENDBRANCH  12  18
BRANCH  27  29
ATOM     29  C   UNL     1     -18.199   3.478  22.598  0.00  0.00    +0.180 C 
BRANCH  29   8
ATOM      8  N   UNL     1     -17.303   2.342  22.762  0.00  0.00    -0.300 NA
ATOM     31  C   UNL     1     -16.856   2.231  24.152  0.00  0.00    +0.105 C 
ATOM     32  C   UNL     1     -17.956   1.101  22.340  0.00  0.00    +0.105 C 
ENDBRANCH  29   8
ENDBRANCH  27  29
TORSDOF 7
ENDMDL
MODEL 3
REMARK VINA RESULT:      -5.8     20.336     22.816
REMARK  Name = 45361336
REMARK  13 active torsions:
REMARK  status: ('A' for Active; 'I' for Inactive)
REMARK    1  A    between atoms: O_2  and  C_11
REMARK    2  A    between atoms: N_6  and  C_25
REMARK    3  A    between atoms: N_6  and  C_26
REMARK    4  A    between atoms: N_8  and  C_29
REMARK    5  A    between atoms: N_8  and  C_31
REMARK    6  A    between atoms: N_8  and  C_32
REMARK    7  A    between atoms: C_9  and  C_17
REMARK    8  A    between atoms: C_12  and  C_18
REMARK    9  A    between atoms: C_14  and  C_21
REMARK   10  A    between atoms: C_18  and  C_22
REMARK   11  A    between atoms: C_18  and  C_23
REMARK   12  A    between atoms: C_25  and  C_28
REMARK   13  A    between atoms: C_27  and  C_29
REMARK                            x       y       z     vdW  Elec       q    Type
REMARK                         _______ _______ _______ _____ _____    ______ ____
ROOT
ATOM      1  S   UNL     1     -17.888   4.879  20.045  0.00  0.00    -0.057 S 
ATOM      4  O   UNL     1     -16.867   2.160  23.718  0.00  0.00    -0.274 OA
ATOM      5  N   UNL     1     -16.167   4.491  21.936  0.00  0.00    -0.229 NA
ATOM      7  N   UNL     1     -18.043   2.981  21.847  0.00  0.00    -0.264 N 
ATOM      9  C   UNL     1     -15.340   8.102  19.852  0.00  0.00    -0.022 C 
ATOM     10  C   UNL     1     -14.076   7.345  20.420  0.00  0.00    +0.033 C 
ATOM     11  C   UNL     1     -12.961   8.342  20.844  0.00  0.00    +0.123 C 
ATOM     12  C   UNL     1     -12.606   9.352  19.730  0.00  0.00    +0.029 C 
ATOM     13  C   UNL     1     -14.904   9.074  18.729  0.00  0.00    +0.008 C 
ATOM     14  C   UNL     1     -14.465   6.314  21.557  0.00  0.00    +0.042 C 
ATOM     15  C   UNL     1     -13.839  10.066  19.176  0.00  0.00    +0.007 C 
ATOM     16  C   UNL     1     -16.331   7.074  19.221  0.00  0.00    +0.051 C 
ATOM     17  C   UNL     1     -16.081   8.905  20.952  0.00  0.00    +0.012 C 
ATOM     19  C   UNL     1     -15.726   5.569  21.189  0.00  0.00    +0.057 A 
ATOM     20  C   UNL     1     -16.553   5.930  20.145  0.00  0.00    +0.015 A 
ATOM     21  C   UNL     1     -13.343   5.316  21.881  0.00  0.00    +0.014 C 
ATOM     24  C   UNL     1     -17.289   4.040  21.417  0.00  0.00    +0.165 A 
ATOM     27  C   UNL     1     -17.817   2.106  22.944  0.00  0.00    +0.233 C 
ATOM     34  H   UNL     1     -18.875   2.814  21.284  0.00  0.00    +0.157 HD
ENDROOT
BRANCH  11   2
ATOM      2  O   UNL     1     -11.770   7.619  21.154  0.00  0.00    -0.391 OA
ATOM     33  H   UNL     1     -11.410   7.975  21.984  0.00  0.00    +0.210 HD
ENDBRANCH  11   2
BRANCH  12  18
ATOM     18  C   UNL     1     -11.583  10.390  20.207  0.00  0.00    +0.078 C 
ATOM     22  C   UNL     1     -12.174  11.195  21.365  0.00  0.00    +0.017 C 
BRANCH  18  23
ATOM      3  O   UNL     1     -11.584  12.480  19.037  0.00  0.00    -0.275 OA
ATOM      6  N   UNL     1     -10.422  10.760  18.013  0.00  0.00    -0.301 N 
ATOM     23  C   UNL     1     -11.195  11.306  19.043  0.00  0.00    +0.219 C 
ATOM     26  C   UNL     1     -10.053  11.600  16.879  0.00  0.00    +0.132 C 
BRANCH   6  25
ATOM     25  C   UNL     1      -9.894   9.399  17.961  0.00  0.00    +0.134 C 
BRANCH  25  28
ATOM     28  C   UNL     1     -10.400   8.725  16.729  0.00  0.00    -0.016 C 
ATOM     30  C   UNL     1     -11.696   8.522  16.470  0.00  0.00    +0.005 C 
ENDBRANCH  25  28
ENDBRANCH   6  25
ENDBRANCH  18  23
ENDBRANCH  12  18
BRANCH  27  29
ATOM     29  C   UNL     1     -18.907   1.054  23.058  0.00  0.00    +0.180 C 
BRANCH  29   8
ATOM      8  N   UNL     1     -18.447  -0.030  23.914  0.00  0.00    -0.300 NA
ATOM     31  C   UNL     1     -19.283  -0.134  25.112  0.00  0.00    +0.105 C 
ATOM     32  C   UNL     1     -18.447  -1.300  23.185  0.00  0.00    +0.105 C 
ENDBRANCH  29   8
ENDBRANCH  27  29
TORSDOF 7
ENDMDL
MODEL 4
REMARK VINA RESULT:      -5.7      6.768     11.742
REMARK  Name = 45361336
REMARK  13 active torsions:
REMARK  status: ('A' for Active; 'I' for Inactive)
REMARK    1  A    between atoms: O_2  and  C_11
REMARK    2  A    between atoms: N_6  and  C_25
REMARK    3  A    between atoms: N_6  and  C_26
REMARK    4  A    between atoms: N_8  and  C_29
REMARK    5  A    between atoms: N_8  and  C_31
REMARK    6  A    between atoms: N_8  and  C_32
REMARK    7  A    between atoms: C_9  and  C_17
REMARK    8  A    between atoms: C_12  and  C_18
REMARK    9  A    between atoms: C_14  and  C_21
REMARK   10  A    between atoms: C_18  and  C_22
REMARK   11  A    between atoms: C_18  and  C_23
REMARK   12  A    between atoms: C_25  and  C_28
REMARK   13  A    between atoms: C_27  and  C_29
REMARK                            x       y       z     vdW  Elec       q    Type
REMARK                         _______ _______ _______ _____ _____    ______ ____
ROOT
ATOM      1  S   UNL     1     -10.668 -10.598  19.820  0.00  0.00    -0.057 S 
ATOM      4  O   UNL     1     -11.475 -14.883  21.528  0.00  0.00    -0.274 OA
ATOM      5  N   UNL     1      -9.769 -13.022  19.878  0.00  0.00    -0.229 NA
ATOM      7  N   UNL     1     -11.794 -12.585  21.109  0.00  0.00    -0.264 N 
ATOM      9  C   UNL     1      -6.996 -10.419  17.977  0.00  0.00    -0.022 C 
ATOM     10  C   UNL     1      -7.015 -11.902  17.433  0.00  0.00    +0.033 C 
ATOM     11  C   UNL     1      -5.603 -12.351  16.962  0.00  0.00    +0.123 C 
ATOM     12  C   UNL     1      -4.957 -11.355  15.973  0.00  0.00    +0.029 C 
ATOM     13  C   UNL     1      -6.357  -9.485  16.922  0.00  0.00    +0.008 C 
ATOM     14  C   UNL     1      -7.685 -12.902  18.461  0.00  0.00    +0.042 C 
ATOM     15  C   UNL     1      -4.960  -9.922  16.504  0.00  0.00    +0.007 C 
ATOM     16  C   UNL     1      -8.458  -9.925  18.213  0.00  0.00    +0.051 C 
ATOM     17  C   UNL     1      -6.203 -10.297  19.304  0.00  0.00    +0.012 C 
ATOM     19  C   UNL     1      -8.912 -12.280  19.084  0.00  0.00    +0.057 A 
ATOM     20  C   UNL     1      -9.235 -10.943  18.970  0.00  0.00    +0.015 A 
ATOM     21  C   UNL     1      -8.046 -14.260  17.839  0.00  0.00    +0.014 C 
ATOM     24  C   UNL     1     -10.736 -12.242  20.309  0.00  0.00    +0.165 A 
ATOM     27  C   UNL     1     -12.118 -13.849  21.673  0.00  0.00    +0.233 C 
ATOM     34  H   UNL     1     -12.424 -11.811  21.311  0.00  0.00    +0.157 HD
ENDROOT
BRANCH  11   2
ATOM      2  O   UNL     1      -5.703 -13.607  16.292  0.00  0.00    -0.391 OA
ATOM     33  H   UNL     1      -4.805 -13.964  16.186  0.00  0.00    +0.210 HD
ENDBRANCH  11   2
BRANCH  12  18
ATOM     18  C   UNL     1      -3.525 -11.764  15.607  0.00  0.00    +0.078 C 
ATOM     22  C   UNL     1      -2.538 -10.772  16.223  0.00  0.00    +0.017 C 
BRANCH  18  23
ATOM      3  O   UNL     1      -3.528 -10.783  13.423  0.00  0.00    -0.275 OA
ATOM      6  N   UNL     1      -3.086 -13.053  13.499  0.00  0.00    -0.301 N 
ATOM     23  C   UNL     1      -3.374 -11.816  14.085  0.00  0.00    +0.219 C 
ATOM     26  C   UNL     1      -2.957 -13.142  12.049  0.00  0.00    +0.132 C 
BRANCH   6  25
ATOM     25  C   UNL     1      -2.856 -14.310  14.209  0.00  0.00    +0.134 C 
BRANCH  25  28
ATOM     28  C   UNL     1      -1.591 -14.928  13.711  0.00  0.00    -0.016 C 
ATOM     30  C   UNL     1      -1.151 -16.133  14.089  0.00  0.00    +0.005 C 
ENDBRANCH  25  28
ENDBRANCH   6  25
ENDBRANCH  18  23
ENDBRANCH  12  18
BRANCH  27  29
ATOM     29  C   UNL     1     -13.393 -13.786  22.496  0.00  0.00    +0.180 C 
BRANCH  29   8
ATOM      8  N   UNL     1     -13.082 -13.306  23.835  0.00  0.00    -0.300 NA
ATOM     31  C   UNL     1     -14.207 -12.547  24.386  0.00  0.00    +0.105 C 
ATOM     32  C   UNL     1     -12.743 -14.422  24.720  0.00  0.00    +0.105 C 
ENDBRANCH  29   8
ENDBRANCH  27  29
TORSDOF 7
ENDMDL
MODEL 5
REMARK VINA RESULT:      -5.6     20.706     23.513
REMARK  Name = 45361336
REMARK  13 active torsions:
REMARK  status: ('A' for Active; 'I' for Inactive)
REMARK    1  A    between atoms: O_2  and  C_11
REMARK    2  A    between atoms: N_6  and  C_25
REMARK    3  A    between atoms: N_6  and  C_26
REMARK    4  A    between atoms: N_8  and  C_29
REMARK    5  A    between atoms: N_8  and  C_31
REMARK    6  A    between atoms: N_8  and  C_32
REMARK    7  A    between atoms: C_9  and  C_17
REMARK    8  A    between atoms: C_12  and  C_18
REMARK    9  A    between atoms: C_14  and  C_21
REMARK   10  A    between atoms: C_18  and  C_22
REMARK   11  A    between atoms: C_18  and  C_23
REMARK   12  A    between atoms: C_25  and  C_28
REMARK   13  A    between atoms: C_27  and  C_29
REMARK                            x       y       z     vdW  Elec       q    Type
REMARK                         _______ _______ _______ _____ _____    ______ ____
ROOT
ATOM      1  S   UNL     1     -13.522   5.464  21.991  0.00  0.00    -0.057 S 
ATOM      4  O   UNL     1     -18.107   5.307  21.053  0.00  0.00    -0.274 OA
ATOM      5  N   UNL     1     -15.419   6.622  20.669  0.00  0.00    -0.229 NA
ATOM      7  N   UNL     1     -16.031   4.706  21.998  0.00  0.00    -0.264 N 
ATOM      9  C   UNL     1     -11.632   8.241  19.617  0.00  0.00    -0.022 C 
ATOM     10  C   UNL     1     -12.841   9.255  19.559  0.00  0.00    +0.033 C 
ATOM     11  C   UNL     1     -12.643  10.310  18.434  0.00  0.00    +0.123 C 
ATOM     12  C   UNL     1     -11.270  11.014  18.508  0.00  0.00    +0.029 C 
ATOM     13  C   UNL     1     -10.300   9.022  19.713  0.00  0.00    +0.008 C 
ATOM     14  C   UNL     1     -14.236   8.511  19.487  0.00  0.00    +0.042 C 
ATOM     15  C   UNL     1     -10.109  10.022  18.581  0.00  0.00    +0.007 C 
ATOM     16  C   UNL     1     -11.747   7.355  20.898  0.00  0.00    +0.051 C 
ATOM     17  C   UNL     1     -11.585   7.320  18.371  0.00  0.00    +0.012 C 
ATOM     19  C   UNL     1     -14.253   7.324  20.421  0.00  0.00    +0.057 A 
ATOM     20  C   UNL     1     -13.126   6.816  21.035  0.00  0.00    +0.015 A 
ATOM     21  C   UNL     1     -15.430   9.429  19.789  0.00  0.00    +0.014 C 
ATOM     24  C   UNL     1     -15.155   5.631  21.493  0.00  0.00    +0.165 A 
ATOM     27  C   UNL     1     -17.429   4.578  21.770  0.00  0.00    +0.233 C 
ATOM     34  H   UNL     1     -15.599   4.030  22.624  0.00  0.00    +0.157 HD
ENDROOT
BRANCH  11   2
ATOM      2  O   UNL     1     -13.643  11.321  18.549  0.00  0.00    -0.391 OA
ATOM     33  H   UNL     1     -14.469  10.972  18.171  0.00  0.00    +0.210 HD
ENDBRANCH  11   2
BRANCH  12  18
ATOM     18  C   UNL     1     -11.055  11.969  17.328  0.00  0.00    +0.078 C 
ATOM     22  C   UNL     1      -9.558  12.118  17.057  0.00  0.00    +0.017 C 
BRANCH  18  23
ATOM      3  O   UNL     1     -11.623  13.785  18.783  0.00  0.00    -0.275 OA
ATOM      6  N   UNL     1     -12.360  13.985  16.599  0.00  0.00    -0.301 N 
ATOM     23  C   UNL     1     -11.695  13.326  17.637  0.00  0.00    +0.219 C 
ATOM     26  C   UNL     1     -12.999  15.270  16.865  0.00  0.00    +0.132 C 
BRANCH   6  25
ATOM     25  C   UNL     1     -12.460  13.531  15.213  0.00  0.00    +0.134 C 
BRANCH  25  28
ATOM     28  C   UNL     1     -11.371  14.162  14.411  0.00  0.00    -0.016 C 
ATOM     30  C   UNL     1     -10.640  13.509  13.502  0.00  0.00    +0.005 C 
ENDBRANCH  25  28
ENDBRANCH   6  25
ENDBRANCH  18  23
ENDBRANCH  12  18
BRANCH  27  29
ATOM     29  C   UNL     1     -18.018   3.410  22.541  0.00  0.00    +0.180 C 
BRANCH  29   8
ATOM      8  N   UNL     1     -17.955   2.208  21.722  0.00  0.00    -0.300 NA
ATOM     31  C   UNL     1     -18.019   1.007  22.559  0.00  0.00    +0.105 C 
ATOM     32  C   UNL     1     -19.037   2.195  20.736  0.00  0.00    +0.105 C 
ENDBRANCH  29   8
ENDBRANCH  27  29
TORSDOF 7
ENDMDL
MODEL 6
REMARK VINA RESULT:      -5.4     26.904     30.039
REMARK  Name = 45361336
REMARK  13 active torsions:
REMARK  status: ('A' for Active; 'I' for Inactive)
REMARK    1  A    between atoms: O_2  and  C_11
REMARK    2  A    between atoms: N_6  and  C_25
REMARK    3  A    between atoms: N_6  and  C_26
REMARK    4  A    between atoms: N_8  and  C_29
REMARK    5  A    between atoms: N_8  and  C_31
REMARK    6  A    between atoms: N_8  and  C_32
REMARK    7  A    between atoms: C_9  and  C_17
REMARK    8  A    between atoms: C_12  and  C_18
REMARK    9  A    between atoms: C_14  and  C_21
REMARK   10  A    between atoms: C_18  and  C_22
REMARK   11  A    between atoms: C_18  and  C_23
REMARK   12  A    between atoms: C_25  and  C_28
REMARK   13  A    between atoms: C_27  and  C_29
REMARK                            x       y       z     vdW  Elec       q    Type
REMARK                         _______ _______ _______ _____ _____    ______ ____
ROOT
ATOM      1  S   UNL     1      22.580  -5.753   3.443  0.00  0.00    -0.057 S 
ATOM      4  O   UNL     1      23.956 -10.182   4.090  0.00  0.00    -0.274 OA
ATOM      5  N   UNL     1      22.353  -8.161   2.527  0.00  0.00    -0.229 NA
ATOM      7  N   UNL     1      23.769  -7.860   4.454  0.00  0.00    -0.264 N 
ATOM      9  C   UNL     1      20.484  -5.367  -0.075  0.00  0.00    -0.022 C 
ATOM     10  C   UNL     1      19.814  -6.795  -0.023  0.00  0.00    +0.033 C 
ATOM     11  C   UNL     1      19.198  -7.183  -1.397  0.00  0.00    +0.123 C 
ATOM     12  C   UNL     1      18.255  -6.096  -1.959  0.00  0.00    +0.029 C 
ATOM     13  C   UNL     1      19.471  -4.335  -0.626  0.00  0.00    +0.008 C 
ATOM     14  C   UNL     1      20.797  -7.891   0.560  0.00  0.00    +0.042 C 
ATOM     15  C   UNL     1      18.910  -4.715  -1.989  0.00  0.00    +0.007 C 
ATOM     16  C   UNL     1      20.875  -4.914   1.367  0.00  0.00    +0.051 C 
ATOM     17  C   UNL     1      21.752  -5.351  -0.968  0.00  0.00    +0.012 C 
ATOM     19  C   UNL     1      21.565  -7.341   1.739  0.00  0.00    +0.057 A 
ATOM     20  C   UNL     1      21.595  -6.004   2.078  0.00  0.00    +0.015 A 
ATOM     21  C   UNL     1      20.086  -9.193   0.960  0.00  0.00    +0.014 C 
ATOM     24  C   UNL     1      22.924  -7.435   3.463  0.00  0.00    +0.165 A 
ATOM     27  C   UNL     1      24.241  -9.172   4.726  0.00  0.00    +0.233 C 
ATOM     34  H   UNL     1      24.086  -7.115   5.071  0.00  0.00    +0.157 HD
ENDROOT
BRANCH  11   2
ATOM      2  O   UNL     1      18.429  -8.377  -1.252  0.00  0.00    -0.391 OA
ATOM     33  H   UNL     1      17.578  -8.242  -1.703  0.00  0.00    +0.210 HD
ENDBRANCH  11   2
BRANCH  12  18
ATOM     18  C   UNL     1      17.746  -6.453  -3.361  0.00  0.00    +0.078 C 
ATOM     22  C   UNL     1      18.546  -5.677  -4.407  0.00  0.00    +0.017 C 
BRANCH  18  23
ATOM      3  O   UNL     1      15.880  -4.957  -3.471  0.00  0.00    -0.275 OA
ATOM      6  N   UNL     1      15.360  -7.211  -3.529  0.00  0.00    -0.301 N 
ATOM     23  C   UNL     1      16.252  -6.136  -3.465  0.00  0.00    +0.219 C 
ATOM     26  C   UNL     1      13.928  -6.945  -3.607  0.00  0.00    +0.132 C 
BRANCH   6  25
ATOM     25  C   UNL     1      15.718  -8.628  -3.563  0.00  0.00    +0.134 C 
BRANCH  25  28
ATOM     28  C   UNL     1      15.727  -9.096  -4.981  0.00  0.00    -0.016 C 
ATOM     30  C   UNL     1      16.814  -9.562  -5.605  0.00  0.00    +0.005 C 
ENDBRANCH  25  28
ENDBRANCH   6  25
ENDBRANCH  18  23
ENDBRANCH  12  18
BRANCH  27  29
ATOM     29  C   UNL     1      25.162  -9.199   5.934  0.00  0.00    +0.180 C 
BRANCH  29   8
ATOM      8  N   UNL     1      26.294  -8.314   5.700  0.00  0.00    -0.300 NA
ATOM     31  C   UNL     1      26.944  -7.959   6.964  0.00  0.00    +0.105 C 
ATOM     32  C   UNL     1      27.261  -8.938   4.793  0.00  0.00    +0.105 C 
ENDBRANCH  29   8
ENDBRANCH  27  29
TORSDOF 7
ENDMDL
MODEL 7
REMARK VINA RESULT:      -5.4     29.762     32.760
REMARK  Name = 45361336
REMARK  13 active torsions:
REMARK  status: ('A' for Active; 'I' for Inactive)
REMARK    1  A    between atoms: O_2  and  C_11
REMARK    2  A    between atoms: N_6  and  C_25
REMARK    3  A    between atoms: N_6  and  C_26
REMARK    4  A    between atoms: N_8  and  C_29
REMARK    5  A    between atoms: N_8  and  C_31
REMARK    6  A    between atoms: N_8  and  C_32
REMARK    7  A    between atoms: C_9  and  C_17
REMARK    8  A    between atoms: C_12  and  C_18
REMARK    9  A    between atoms: C_14  and  C_21
REMARK   10  A    between atoms: C_18  and  C_22
REMARK   11  A    between atoms: C_18  and  C_23
REMARK   12  A    between atoms: C_25  and  C_28
REMARK   13  A    between atoms: C_27  and  C_29
REMARK                            x       y       z     vdW  Elec       q    Type
REMARK                         _______ _______ _______ _____ _____    ______ ____
ROOT
ATOM      1  S   UNL     1      -3.757  10.621  36.202  0.00  0.00    -0.057 S 
ATOM      4  O   UNL     1      -3.357  14.531  33.657  0.00  0.00    -0.274 OA
ATOM      5  N   UNL     1      -5.086  12.341  34.801  0.00  0.00    -0.229 NA
ATOM      7  N   UNL     1      -2.711  12.702  34.997  0.00  0.00    -0.264 N 
ATOM      9  C   UNL     1      -7.710   9.641  36.775  0.00  0.00    -0.022 C 
ATOM     10  C   UNL     1      -8.214  10.173  35.377  0.00  0.00    +0.033 C 
ATOM     11  C   UNL     1      -9.762  10.307  35.345  0.00  0.00    +0.123 C 
ATOM     12  C   UNL     1     -10.484   9.016  35.794  0.00  0.00    +0.029 C 
ATOM     13  C   UNL     1      -8.462   8.339  37.140  0.00  0.00    +0.008 C 
ATOM     14  C   UNL     1      -7.458  11.493  34.937  0.00  0.00    +0.042 C 
ATOM     15  C   UNL     1      -9.976   8.502  37.141  0.00  0.00    +0.007 C 
ATOM     16  C   UNL     1      -6.190   9.295  36.692  0.00  0.00    +0.051 C 
ATOM     17  C   UNL     1      -7.927  10.680  37.905  0.00  0.00    +0.012 C 
ATOM     19  C   UNL     1      -5.984  11.390  35.252  0.00  0.00    +0.057 A 
ATOM     20  C   UNL     1      -5.438  10.404  36.048  0.00  0.00    +0.015 A 
ATOM     21  C   UNL     1      -7.652  11.837  33.452  0.00  0.00    +0.014 C 
ATOM     24  C   UNL     1      -3.882  12.030  35.230  0.00  0.00    +0.165 A 
ATOM     27  C   UNL     1      -2.493  13.889  34.245  0.00  0.00    +0.233 C 
ATOM     34  H   UNL     1      -1.897  12.271  35.429  0.00  0.00    +0.157 HD
ENDROOT
BRANCH  11   2
ATOM      2  O   UNL     1     -10.188  10.587  34.012  0.00  0.00    -0.391 OA
ATOM     33  H   UNL     1      -9.434  10.966  33.529  0.00  0.00    +0.210 HD
ENDBRANCH  11   2
BRANCH  12  18
ATOM     18  C   UNL     1     -12.004   9.206  35.858  0.00  0.00    +0.078 C 
ATOM     22  C   UNL     1     -12.407   9.621  37.273  0.00  0.00    +0.017 C 
BRANCH  18  23
ATOM      3  O   UNL     1     -12.835   6.999  36.270  0.00  0.00    -0.275 OA
ATOM      6  N   UNL     1     -13.158   7.805  34.125  0.00  0.00    -0.301 N 
ATOM     23  C   UNL     1     -12.706   7.910  35.444  0.00  0.00    +0.219 C 
ATOM     26  C   UNL     1     -13.811   6.575  33.692  0.00  0.00    +0.132 C 
BRANCH   6  25
ATOM     25  C   UNL     1     -13.076   8.844  33.101  0.00  0.00    +0.134 C 
BRANCH  25  28
ATOM     28  C   UNL     1     -12.051   8.453  32.089  0.00  0.00    -0.016 C 
ATOM     30  C   UNL     1     -11.584   9.277  31.144  0.00  0.00    +0.005 C 
ENDBRANCH  25  28
ENDBRANCH   6  25
ENDBRANCH  18  23
ENDBRANCH  12  18
BRANCH  27  29
ATOM     29  C   UNL     1      -1.028  14.288  34.238  0.00  0.00    +0.180 C 
BRANCH  29   8
ATOM      8  N   UNL     1      -0.469  14.060  32.913  0.00  0.00    -0.300 NA
ATOM     31  C   UNL     1      -0.265  15.330  32.212  0.00  0.00    +0.105 C 
ATOM     32  C   UNL     1       0.793  13.324  33.003  0.00  0.00    +0.105 C 
ENDBRANCH  29   8
ENDBRANCH  27  29
TORSDOF 7
ENDMDL
MODEL 8
REMARK VINA RESULT:      -5.3      4.205     10.090
REMARK  Name = 45361336
REMARK  13 active torsions:
REMARK  status: ('A' for Active; 'I' for Inactive)
REMARK    1  A    between atoms: O_2  and  C_11
REMARK    2  A    between atoms: N_6  and  C_25
REMARK    3  A    between atoms: N_6  and  C_26
REMARK    4  A    between atoms: N_8  and  C_29
REMARK    5  A    between atoms: N_8  and  C_31
REMARK    6  A    between atoms: N_8  and  C_32
REMARK    7  A    between atoms: C_9  and  C_17
REMARK    8  A    between atoms: C_12  and  C_18
REMARK    9  A    between atoms: C_14  and  C_21
REMARK   10  A    between atoms: C_18  and  C_22
REMARK   11  A    between atoms: C_18  and  C_23
REMARK   12  A    between atoms: C_25  and  C_28
REMARK   13  A    between atoms: C_27  and  C_29
REMARK                            x       y       z     vdW  Elec       q    Type
REMARK                         _______ _______ _______ _____ _____    ______ ____
ROOT
ATOM      1  S   UNL     1      -6.265  -9.620  12.753  0.00  0.00    -0.057 S 
ATOM      4  O   UNL     1      -3.099 -11.555  15.610  0.00  0.00    -0.274 OA
ATOM      5  N   UNL     1      -4.236 -11.222  12.837  0.00  0.00    -0.229 NA
ATOM      7  N   UNL     1      -4.933 -10.241  14.925  0.00  0.00    -0.264 N 
ATOM      9  C   UNL     1      -5.386 -10.438   8.820  0.00  0.00    -0.022 C 
ATOM     10  C   UNL     1      -4.783 -11.874   9.083  0.00  0.00    +0.033 C 
ATOM     11  C   UNL     1      -3.990 -12.391   7.849  0.00  0.00    +0.123 C 
ATOM     12  C   UNL     1      -4.805 -12.311   6.539  0.00  0.00    +0.029 C 
ATOM     13  C   UNL     1      -6.202 -10.449   7.506  0.00  0.00    +0.008 C 
ATOM     14  C   UNL     1      -3.956 -11.931  10.432  0.00  0.00    +0.042 C 
ATOM     15  C   UNL     1      -5.397 -10.922   6.303  0.00  0.00    +0.007 C 
ATOM     16  C   UNL     1      -6.364 -10.057   9.975  0.00  0.00    +0.051 C 
ATOM     17  C   UNL     1      -4.282  -9.353   8.717  0.00  0.00    +0.012 C 
ATOM     19  C   UNL     1      -4.669 -11.168  11.523  0.00  0.00    +0.057 A 
ATOM     20  C   UNL     1      -5.738 -10.326  11.297  0.00  0.00    +0.015 A 
ATOM     21  C   UNL     1      -3.662 -13.364  10.903  0.00  0.00    +0.014 C 
ATOM     24  C   UNL     1      -5.011 -10.456  13.574  0.00  0.00    +0.165 A 
ATOM     27  C   UNL     1      -4.013 -10.777  15.866  0.00  0.00    +0.233 C 
ATOM     34  H   UNL     1      -5.646  -9.608  15.281  0.00  0.00    +0.157 HD
ENDROOT
BRANCH  11   2
ATOM      2  O   UNL     1      -3.642 -13.760   8.048  0.00  0.00    -0.391 OA
ATOM     33  H   UNL     1      -2.677 -13.813   8.157  0.00  0.00    +0.210 HD
ENDBRANCH  11   2
BRANCH  12  18
ATOM     18  C   UNL     1      -3.968 -12.725   5.322  0.00  0.00    +0.078 C 
ATOM     22  C   UNL     1      -4.510 -12.033   4.071  0.00  0.00    +0.017 C 
BRANCH  18  23
ATOM      3  O   UNL     1      -5.025 -14.868   5.466  0.00  0.00    -0.275 OA
ATOM      6  N   UNL     1      -2.841 -14.879   4.701  0.00  0.00    -0.301 N 
ATOM     23  C   UNL     1      -3.999 -14.247   5.165  0.00  0.00    +0.219 C 
ATOM     26  C   UNL     1      -2.830 -16.331   4.560  0.00  0.00    +0.132 C 
BRANCH   6  25
ATOM     25  C   UNL     1      -1.603 -14.219   4.292  0.00  0.00    +0.134 C 
BRANCH  25  28
ATOM     28  C   UNL     1      -1.554 -14.154   2.801  0.00  0.00    -0.016 C 
ATOM     30  C   UNL     1      -0.419 -14.130   2.094  0.00  0.00    +0.005 C 
ENDBRANCH  25  28
ENDBRANCH   6  25
ENDBRANCH  18  23
ENDBRANCH  12  18
BRANCH  27  29
ATOM     29  C   UNL     1      -4.293 -10.277  17.273  0.00  0.00    +0.180 C 
BRANCH  29   8
ATOM      8  N   UNL     1      -5.123 -11.245  17.975  0.00  0.00    -0.300 NA
ATOM     31  C   UNL     1      -4.375 -11.872  19.068  0.00  0.00    +0.105 C 
ATOM     32  C   UNL     1      -6.336 -10.608  18.494  0.00  0.00    +0.105 C 
ENDBRANCH  29   8
ENDBRANCH  27  29
TORSDOF 7
ENDMDL
MODEL 9
REMARK VINA RESULT:      -5.3     22.958     27.716
REMARK  Name = 45361336
REMARK  13 active torsions:
REMARK  status: ('A' for Active; 'I' for Inactive)
REMARK    1  A    between atoms: O_2  and  C_11
REMARK    2  A    between atoms: N_6  and  C_25
REMARK    3  A    between atoms: N_6  and  C_26
REMARK    4  A    between atoms: N_8  and  C_29
REMARK    5  A    between atoms: N_8  and  C_31
REMARK    6  A    between atoms: N_8  and  C_32
REMARK    7  A    between atoms: C_9  and  C_17
REMARK    8  A    between atoms: C_12  and  C_18
REMARK    9  A    between atoms: C_14  and  C_21
REMARK   10  A    between atoms: C_18  and  C_22
REMARK   11  A    between atoms: C_18  and  C_23
REMARK   12  A    between atoms: C_25  and  C_28
REMARK   13  A    between atoms: C_27  and  C_29
REMARK                            x       y       z     vdW  Elec       q    Type
REMARK                         _______ _______ _______ _____ _____    ______ ____
ROOT
ATOM      1  S   UNL     1       7.156  -5.061  33.764  0.00  0.00    -0.057 S 
ATOM      4  O   UNL     1       8.131  -5.371  38.333  0.00  0.00    -0.274 OA
ATOM      5  N   UNL     1       7.587  -6.726  35.695  0.00  0.00    -0.229 NA
ATOM      7  N   UNL     1       7.669  -4.381  36.244  0.00  0.00    -0.264 N 
ATOM      9  C   UNL     1       7.369  -8.753  31.964  0.00  0.00    -0.022 C 
ATOM     10  C   UNL     1       6.849  -9.571  33.209  0.00  0.00    +0.033 C 
ATOM     11  C   UNL     1       7.125 -11.093  33.044  0.00  0.00    +0.123 C 
ATOM     12  C   UNL     1       6.609 -11.651  31.699  0.00  0.00    +0.029 C 
ATOM     13  C   UNL     1       6.792  -9.359  30.663  0.00  0.00    +0.008 C 
ATOM     14  C   UNL     1       7.387  -8.979  34.575  0.00  0.00    +0.042 C 
ATOM     15  C   UNL     1       7.106 -10.841  30.502  0.00  0.00    +0.007 C 
ATOM     16  C   UNL     1       6.867  -7.278  32.054  0.00  0.00    +0.051 C 
ATOM     17  C   UNL     1       8.918  -8.752  31.874  0.00  0.00    +0.012 C 
ATOM     19  C   UNL     1       7.339  -7.469  34.553  0.00  0.00    +0.057 A 
ATOM     20  C   UNL     1       7.114  -6.726  33.413  0.00  0.00    +0.015 A 
ATOM     21  C   UNL     1       6.633  -9.508  35.805  0.00  0.00    +0.014 C 
ATOM     24  C   UNL     1       7.504  -5.448  35.399  0.00  0.00    +0.165 A 
ATOM     27  C   UNL     1       7.967  -4.377  37.633  0.00  0.00    +0.233 C 
ATOM     34  H   UNL     1       7.554  -3.477  35.791  0.00  0.00    +0.157 HD
ENDROOT
BRANCH  11   2
ATOM      2  O   UNL     1       6.460 -11.812  34.082  0.00  0.00    -0.391 OA
ATOM     33  H   UNL     1       6.592 -11.328  34.915  0.00  0.00    +0.210 HD
ENDBRANCH  11   2
BRANCH  12  18
ATOM     18  C   UNL     1       6.987 -13.126  31.512  0.00  0.00    +0.078 C 
ATOM     22  C   UNL     1       8.507 -13.253  31.400  0.00  0.00    +0.017 C 
BRANCH  18  23
ATOM      3  O   UNL     1       6.795 -13.483  29.152  0.00  0.00    -0.275 OA
ATOM      6  N   UNL     1       5.100 -14.388  30.442  0.00  0.00    -0.301 N 
ATOM     23  C   UNL     1       6.296 -13.684  30.265  0.00  0.00    +0.219 C 
ATOM     26  C   UNL     1       4.404 -14.914  29.273  0.00  0.00    +0.132 C 
BRANCH   6  25
ATOM     25  C   UNL     1       4.464 -14.697  31.721  0.00  0.00    +0.134 C 
BRANCH  25  28
ATOM     28  C   UNL     1       3.418 -13.672  32.007  0.00  0.00    -0.016 C 
ATOM     30  C   UNL     1       3.037 -13.319  33.240  0.00  0.00    +0.005 C 
ENDBRANCH  25  28
ENDBRANCH   6  25
ENDBRANCH  18  23
ENDBRANCH  12  18
BRANCH  27  29
ATOM     29  C   UNL     1       8.055  -2.964  38.184  0.00  0.00    +0.180 C 
BRANCH  29   8
ATOM      8  N   UNL     1       9.376  -2.749  38.759  0.00  0.00    -0.300 NA
ATOM     31  C   UNL     1      10.348  -2.422  37.714  0.00  0.00    +0.105 C 
ATOM     32  C   UNL     1       9.337  -1.686  39.764  0.00  0.00    +0.105 C 
ENDBRANCH  29   8
ENDBRANCH  27  29
TORSDOF 7
ENDMDL
MODEL 10
REMARK VINA RESULT:      -5.3     20.181     23.360
REMARK  Name = 45361336
REMARK  13 active torsions:
REMARK  status: ('A' for Active; 'I' for Inactive)
REMARK    1  A    between atoms: O_2  and  C_11
REMARK    2  A    between atoms: N_6  and  C_25
REMARK    3  A    between atoms: N_6  and  C_26
REMARK    4  A    between atoms: N_8  and  C_29
REMARK    5  A    between atoms: N_8  and  C_31
REMARK    6  A    between atoms: N_8  and  C_32
REMARK    7  A    between atoms: C_9  and  C_17
REMARK    8  A    between atoms: C_12  and  C_18
REMARK    9  A    between atoms: C_14  and  C_21
REMARK   10  A    between atoms: C_18  and  C_22
REMARK   11  A    between atoms: C_18  and  C_23
REMARK   12  A    between atoms: C_25  and  C_28
REMARK   13  A    between atoms: C_27  and  C_29
REMARK                            x       y       z     vdW  Elec       q    Type
REMARK                         _______ _______ _______ _____ _____    ______ ____
ROOT
ATOM      1  S   UNL     1     -18.353   4.059  22.284  0.00  0.00    -0.057 S 
ATOM      4  O   UNL     1     -15.842   3.550  26.204  0.00  0.00    -0.274 OA
ATOM      5  N   UNL     1     -16.132   4.713  23.436  0.00  0.00    -0.229 NA
ATOM      7  N   UNL     1     -17.630   3.299  24.687  0.00  0.00    -0.264 N 
ATOM      9  C   UNL     1     -16.633   6.842  19.791  0.00  0.00    -0.022 C 
ATOM     10  C   UNL     1     -15.140   6.506  20.178  0.00  0.00    +0.033 C 
ATOM     11  C   UNL     1     -14.165   7.617  19.694  0.00  0.00    +0.123 C 
ATOM     12  C   UNL     1     -14.337   7.953  18.196  0.00  0.00    +0.029 C 
ATOM     13  C   UNL     1     -16.724   7.143  18.276  0.00  0.00    +0.008 C 
ATOM     14  C   UNL     1     -14.989   6.162  21.716  0.00  0.00    +0.042 C 
ATOM     15  C   UNL     1     -15.789   8.259  17.830  0.00  0.00    +0.007 C 
ATOM     16  C   UNL     1     -17.543   5.606  20.077  0.00  0.00    +0.051 C 
ATOM     17  C   UNL     1     -17.179   8.061  20.579  0.00  0.00    +0.012 C 
ATOM     19  C   UNL     1     -16.134   5.292  22.179  0.00  0.00    +0.057 A 
ATOM     20  C   UNL     1     -17.272   5.064  21.435  0.00  0.00    +0.015 A 
ATOM     21  C   UNL     1     -13.650   5.491  22.059  0.00  0.00    +0.014 C 
ATOM     24  C   UNL     1     -17.244   4.030  23.594  0.00  0.00    +0.165 A 
ATOM     27  C   UNL     1     -16.942   3.090  25.913  0.00  0.00    +0.233 C 
ATOM     34  H   UNL     1     -18.536   2.849  24.581  0.00  0.00    +0.157 HD
ENDROOT
BRANCH  11   2
ATOM      2  O   UNL     1     -12.819   7.180  19.877  0.00  0.00    -0.391 OA
ATOM     33  H   UNL     1     -12.684   6.384  19.336  0.00  0.00    +0.210 HD
ENDBRANCH  11   2
BRANCH  12  18
ATOM     18  C   UNL     1     -13.443   9.123  17.768  0.00  0.00    +0.078 C 
ATOM     22  C   UNL     1     -14.290  10.387  17.624  0.00  0.00    +0.017 C 
BRANCH  18  23
ATOM      3  O   UNL     1     -13.408   8.634  15.424  0.00  0.00    -0.275 OA
ATOM      6  N   UNL     1     -11.348   8.627  16.478  0.00  0.00    -0.301 N 
ATOM     23  C   UNL     1     -12.738   8.781  16.453  0.00  0.00    +0.219 C 
ATOM     26  C   UNL     1     -10.648   8.281  15.246  0.00  0.00    +0.132 C 
BRANCH   6  25
ATOM     25  C   UNL     1     -10.481   8.817  17.639  0.00  0.00    +0.134 C 
BRANCH  25  28
ATOM     28  C   UNL     1      -9.907  10.195  17.600  0.00  0.00    -0.016 C 
ATOM     30  C   UNL     1     -10.417  11.234  18.271  0.00  0.00    +0.005 C 
ENDBRANCH  25  28
ENDBRANCH   6  25
ENDBRANCH  18  23
ENDBRANCH  12  18
BRANCH  27  29
ATOM     29  C   UNL     1     -17.732   2.199  26.856  0.00  0.00    +0.180 C 
BRANCH  29   8
ATOM      8  N   UNL     1     -17.218   2.349  28.210  0.00  0.00    -0.300 NA
ATOM     31  C   UNL     1     -18.248   2.894  29.098  0.00  0.00    +0.105 C 
ATOM     32  C   UNL     1     -16.733   1.066  28.725  0.00  0.00    +0.105 C 
ENDBRANCH  29   8
ENDBRANCH  27  29
TORSDOF 7
ENDMDL
