MODEL 1
REMARK VINA RESULT:      -7.6      0.000      0.000
REMARK  Name = 11880086
REMARK  10 active torsions:
REMARK  status: ('A' for Active; 'I' for Inactive)
REMARK    1  A    between atoms: N_9  and  C_17
REMARK    2  A    between atoms: N_10  and  C_25
REMARK    3  A    between atoms: C_19  and  C_22
REMARK    4  A    between atoms: C_23  and  C_27
REMARK    5  A    between atoms: C_24  and  C_29
REMARK    6  A    between atoms: C_25  and  C_28
REMARK    7  A    between atoms: C_25  and  C_30
REMARK    8  A    between atoms: C_26  and  C_32
REMARK    9  A    between atoms: C_28  and  C_33
REMARK   10  A    between atoms: C_34  and  C_36
REMARK                            x       y       z     vdW  Elec       q    Type
REMARK                         _______ _______ _______ _____ _____    ______ ____
ROOT
ATOM      4  O   UNL     1      15.393  12.234  22.901  0.00  0.00    -0.268 OA
ATOM      8  N   UNL     1      14.590  11.542  20.825  0.00  0.00    -0.285 N 
ATOM     17  C   UNL     1      15.050  11.262  17.956  0.00  0.00    +0.113 C 
ATOM     18  C   UNL     1      13.634  11.503  18.506  0.00  0.00    +0.059 C 
ATOM     19  C   UNL     1      13.478  11.085  19.971  0.00  0.00    +0.164 C 
ATOM     20  C   UNL     1      16.104  11.871  18.890  0.00  0.00    +0.046 C 
ATOM     21  C   UNL     1      15.947  11.328  20.305  0.00  0.00    +0.111 C 
ATOM     23  C   UNL     1      14.446  12.000  22.150  0.00  0.00    +0.266 C 
ENDROOT
BRANCH  23  27
ATOM      1  S   UNL     1      10.903  11.982  23.894  0.00  0.00    -0.080 S 
ATOM     13  N   UNL     1      12.323  13.239  22.137  0.00  0.00    -0.240 NA
ATOM     27  C   UNL     1      13.089  12.207  22.637  0.00  0.00    +0.133 A 
ATOM     31  C   UNL     1      12.494  11.417  23.596  0.00  0.00    +0.080 A 
ATOM     34  C   UNL     1      11.149  13.218  22.728  0.00  0.00    +0.076 A 
ATOM     36  C   UNL     1      10.056  14.174  22.451  0.00  0.00    +0.073 C 
ENDBRANCH  23  27
BRANCH  17   9
ATOM      9  N   UNL     1      15.196  11.719  16.568  0.00  0.00    -0.236 N 
ATOM     11  N   UNL     1      15.890  12.832  16.301  0.00  0.00    -0.064 NA
ATOM     12  N   UNL     1      15.858  13.003  14.983  0.00  0.00    -0.124 NA
ATOM     24  C   UNL     1      14.700  11.143  15.444  0.00  0.00    +0.156 A 
ATOM     26  C   UNL     1      15.134  11.977  14.444  0.00  0.00    +0.179 A 
BRANCH  24  29
ATOM      5  O   UNL     1      14.411   8.806  15.227  0.00  0.00    -0.269 OA
ATOM     14  N   UNL     1      12.533  10.065  15.515  0.00  0.00    -0.324 N 
ATOM     29  C   UNL     1      13.920   9.950  15.379  0.00  0.00    +0.262 C 
ATOM     40  H   UNL     1      11.936   9.246  15.482  0.00  0.00    +0.145 HD
ATOM     41  H   UNL     1      12.077  10.963  15.647  0.00  0.00    +0.145 HD
ENDBRANCH  24  29
BRANCH  26  32
ATOM      7  O   UNL     1      13.804  12.113  12.493  0.00  0.00    -0.269 OA
ATOM     16  N   UNL     1      15.961  11.422  12.236  0.00  0.00    -0.324 N 
ATOM     32  C   UNL     1      14.899  11.847  13.039  0.00  0.00    +0.264 C 
ATOM     44  H   UNL     1      15.848  11.321  11.233  0.00  0.00    +0.145 HD
ATOM     45  H   UNL     1      16.873  11.201  12.622  0.00  0.00    +0.145 HD
ENDBRANCH  26  32
ENDBRANCH  17   9
BRANCH  19  22
ATOM      3  O   UNL     1      12.932   9.078  21.146  0.00  0.00    -0.274 OA
ATOM     10  N   UNL     1      13.896   8.919  19.033  0.00  0.00    -0.302 N 
ATOM     22  C   UNL     1      13.390   9.595  20.131  0.00  0.00    +0.234 C 
ATOM     39  H   UNL     1      14.243   9.446  18.238  0.00  0.00    +0.150 HD
BRANCH  10  25
ATOM     25  C   UNL     1      13.947   7.478  18.948  0.00  0.00    +0.163 C 
BRANCH  25  30
ATOM      6  O   UNL     1      11.918   7.197  17.640  0.00  0.00    -0.274 OA
ATOM     15  N   UNL     1      12.014   6.261  19.736  0.00  0.00    -0.328 N 
ATOM     30  C   UNL     1      12.528   6.995  18.687  0.00  0.00    +0.231 C 
ATOM     42  H   UNL     1      11.079   5.866  19.685  0.00  0.00    +0.145 HD
ATOM     43  H   UNL     1      12.529   6.099  20.595  0.00  0.00    +0.145 HD
ENDBRANCH  25  30
BRANCH  25  28
ATOM     28  C   UNL     1      14.504   6.838  20.225  0.00  0.00    +0.074 C 
BRANCH  28  33
ATOM      2  S   UNL     1      16.896   7.719  21.283  0.00  0.00    -0.102 S 
ATOM     33  C   UNL     1      16.012   6.745  20.211  0.00  0.00    -0.008 A 
ATOM     35  C   UNL     1      16.783   5.952  19.422  0.00  0.00    +0.011 A 
ATOM     37  C   UNL     1      18.166   6.144  19.701  0.00  0.00    +0.008 A 
ATOM     38  C   UNL     1      18.370   7.078  20.692  0.00  0.00    +0.045 A 
ENDBRANCH  28  33
ENDBRANCH  25  28
ENDBRANCH  10  25
ENDBRANCH  19  22
TORSDOF 9
ENDMDL
MODEL 2
REMARK VINA RESULT:      -7.1     13.347     17.284
REMARK  Name = 11880086
REMARK  10 active torsions:
REMARK  status: ('A' for Active; 'I' for Inactive)
REMARK    1  A    between atoms: N_9  and  C_17
REMARK    2  A    between atoms: N_10  and  C_25
REMARK    3  A    between atoms: C_19  and  C_22
REMARK    4  A    between atoms: C_23  and  C_27
REMARK    5  A    between atoms: C_24  and  C_29
REMARK    6  A    between atoms: C_25  and  C_28
REMARK    7  A    between atoms: C_25  and  C_30
REMARK    8  A    between atoms: C_26  and  C_32
REMARK    9  A    between atoms: C_28  and  C_33
REMARK   10  A    between atoms: C_34  and  C_36
REMARK                            x       y       z     vdW  Elec       q    Type
REMARK                         _______ _______ _______ _____ _____    ______ ____
ROOT
ATOM      4  O   UNL     1      16.784  10.809   3.171  0.00  0.00    -0.268 OA
ATOM      8  N   UNL     1      15.733   8.797   3.698  0.00  0.00    -0.285 N 
ATOM     17  C   UNL     1      13.524   7.427   5.025  0.00  0.00    +0.113 C 
ATOM     18  C   UNL     1      14.904   6.759   4.903  0.00  0.00    +0.059 C 
ATOM     19  C   UNL     1      15.746   7.324   3.755  0.00  0.00    +0.164 C 
ATOM     20  C   UNL     1      13.662   8.955   5.052  0.00  0.00    +0.046 C 
ATOM     21  C   UNL     1      14.422   9.447   3.826  0.00  0.00    +0.111 C 
ATOM     23  C   UNL     1      16.846   9.595   3.363  0.00  0.00    +0.266 C 
ENDROOT
BRANCH  23  27
ATOM      1  S   UNL     1      20.251   7.882   2.331  0.00  0.00    -0.080 S 
ATOM     13  N   UNL     1      18.787   8.481   4.376  0.00  0.00    -0.240 NA
ATOM     27  C   UNL     1      18.133   8.925   3.247  0.00  0.00    +0.133 A 
ATOM     31  C   UNL     1      18.767   8.692   2.046  0.00  0.00    +0.080 A 
ATOM     34  C   UNL     1      19.917   7.914   4.015  0.00  0.00    +0.076 A 
ATOM     36  C   UNL     1      20.892   7.318   4.953  0.00  0.00    +0.073 C 
ENDBRANCH  23  27
BRANCH  17   9
ATOM      9  N   UNL     1      12.752   6.911   6.165  0.00  0.00    -0.236 N 
ATOM     11  N   UNL     1      13.375   6.609   7.310  0.00  0.00    -0.064 NA
ATOM     12  N   UNL     1      12.446   6.173   8.154  0.00  0.00    -0.124 NA
ATOM     24  C   UNL     1      11.417   6.683   6.232  0.00  0.00    +0.156 A 
ATOM     26  C   UNL     1      11.241   6.212   7.509  0.00  0.00    +0.179 A 
BRANCH  24  29
ATOM      5  O   UNL     1      10.357   6.161   4.184  0.00  0.00    -0.269 OA
ATOM     14  N   UNL     1       9.601   7.993   5.309  0.00  0.00    -0.324 N 
ATOM     29  C   UNL     1      10.468   6.902   5.189  0.00  0.00    +0.262 C 
ATOM     40  H   UNL     1       8.904   8.186   4.598  0.00  0.00    +0.145 HD
ATOM     41  H   UNL     1       9.637   8.624   6.104  0.00  0.00    +0.145 HD
ENDBRANCH  24  29
BRANCH  26  32
ATOM      7  O   UNL     1       9.000   6.539   8.189  0.00  0.00    -0.269 OA
ATOM     16  N   UNL     1       9.951   4.524   8.670  0.00  0.00    -0.324 N 
ATOM     32  C   UNL     1      10.016   5.810   8.127  0.00  0.00    +0.264 C 
ATOM     44  H   UNL     1       9.103   4.187   9.113  0.00  0.00    +0.145 HD
ATOM     45  H   UNL     1      10.740   3.886   8.641  0.00  0.00    +0.145 HD
ENDBRANCH  26  32
ENDBRANCH  17   9
BRANCH  19  22
ATOM      3  O   UNL     1      15.233   7.570   1.435  0.00  0.00    -0.274 OA
ATOM     10  N   UNL     1      14.915   5.497   2.444  0.00  0.00    -0.302 N 
ATOM     22  C   UNL     1      15.283   6.832   2.414  0.00  0.00    +0.234 C 
ATOM     39  H   UNL     1      15.004   4.973   3.309  0.00  0.00    +0.150 HD
BRANCH  10  25
ATOM     25  C   UNL     1      14.413   4.790   1.289  0.00  0.00    +0.163 C 
BRANCH  25  30
ATOM      6  O   UNL     1      13.133   2.739   1.533  0.00  0.00    -0.274 OA
ATOM     15  N   UNL     1      12.332   4.656   2.512  0.00  0.00    -0.328 N 
ATOM     30  C   UNL     1      13.241   3.941   1.760  0.00  0.00    +0.231 C 
ATOM     42  H   UNL     1      11.510   4.205   2.901  0.00  0.00    +0.145 HD
ATOM     43  H   UNL     1      12.435   5.650   2.694  0.00  0.00    +0.145 HD
ENDBRANCH  25  30
BRANCH  25  28
ATOM     28  C   UNL     1      15.484   3.908   0.636  0.00  0.00    +0.074 C 
BRANCH  28  33
ATOM      2  S   UNL     1      14.475   4.690  -1.811  0.00  0.00    -0.102 S 
ATOM     33  C   UNL     1      15.778   4.319  -0.788  0.00  0.00    -0.008 A 
ATOM     35  C   UNL     1      16.996   4.436  -1.379  0.00  0.00    +0.011 A 
ATOM     37  C   UNL     1      16.867   4.849  -2.736  0.00  0.00    +0.008 A 
ATOM     38  C   UNL     1      15.550   5.023  -3.102  0.00  0.00    +0.045 A 
ENDBRANCH  28  33
ENDBRANCH  25  28
ENDBRANCH  10  25
ENDBRANCH  19  22
TORSDOF 9
ENDMDL
MODEL 3
REMARK VINA RESULT:      -6.9     12.178     15.990
REMARK  Name = 11880086
REMARK  10 active torsions:
REMARK  status: ('A' for Active; 'I' for Inactive)
REMARK    1  A    between atoms: N_9  and  C_17
REMARK    2  A    between atoms: N_10  and  C_25
REMARK    3  A    between atoms: C_19  and  C_22
REMARK    4  A    between atoms: C_23  and  C_27
REMARK    5  A    between atoms: C_24  and  C_29
REMARK    6  A    between atoms: C_25  and  C_28
REMARK    7  A    between atoms: C_25  and  C_30
REMARK    8  A    between atoms: C_26  and  C_32
REMARK    9  A    between atoms: C_28  and  C_33
REMARK   10  A    between atoms: C_34  and  C_36
REMARK                            x       y       z     vdW  Elec       q    Type
REMARK                         _______ _______ _______ _____ _____    ______ ____
ROOT
ATOM      4  O   UNL     1      16.013   9.516   6.294  0.00  0.00    -0.268 OA
ATOM      8  N   UNL     1      14.418   8.362   5.047  0.00  0.00    -0.285 N 
ATOM     17  C   UNL     1      13.838   6.539   2.842  0.00  0.00    +0.113 C 
ATOM     18  C   UNL     1      12.840   7.643   3.235  0.00  0.00    +0.059 C 
ATOM     19  C   UNL     1      13.011   8.121   4.679  0.00  0.00    +0.164 C 
ATOM     20  C   UNL     1      15.272   6.958   3.191  0.00  0.00    +0.046 C 
ATOM     21  C   UNL     1      15.382   7.321   4.667  0.00  0.00    +0.111 C 
ATOM     23  C   UNL     1      14.861   9.416   5.872  0.00  0.00    +0.266 C 
ENDROOT
BRANCH  23  27
ATOM      1  S   UNL     1      12.463  12.529   6.253  0.00  0.00    -0.080 S 
ATOM     13  N   UNL     1      13.087  10.269   7.342  0.00  0.00    -0.240 NA
ATOM     27  C   UNL     1      13.885  10.435   6.229  0.00  0.00    +0.133 A 
ATOM     31  C   UNL     1      13.694  11.595   5.512  0.00  0.00    +0.080 A 
ATOM     34  C   UNL     1      12.296  11.313   7.453  0.00  0.00    +0.076 A 
ATOM     36  C   UNL     1      11.297  11.495   8.528  0.00  0.00    +0.073 C 
ENDBRANCH  23  27
BRANCH  17   9
ATOM      9  N   UNL     1      13.696   6.131   1.438  0.00  0.00    -0.236 N 
ATOM     11  N   UNL     1      13.425   7.047   0.501  0.00  0.00    -0.064 NA
ATOM     12  N   UNL     1      13.354   6.405  -0.660  0.00  0.00    -0.124 NA
ATOM     24  C   UNL     1      13.806   4.883   0.918  0.00  0.00    +0.156 A 
ATOM     26  C   UNL     1      13.585   5.079  -0.422  0.00  0.00    +0.179 A 
BRANCH  24  29
ATOM      5  O   UNL     1      13.254   2.769   1.822  0.00  0.00    -0.269 OA
ATOM     14  N   UNL     1      15.378   3.523   2.161  0.00  0.00    -0.324 N 
ATOM     29  C   UNL     1      14.089   3.687   1.643  0.00  0.00    +0.262 C 
ATOM     40  H   UNL     1      15.630   2.688   2.677  0.00  0.00    +0.145 HD
ATOM     41  H   UNL     1      16.100   4.228   2.042  0.00  0.00    +0.145 HD
ENDBRANCH  24  29
BRANCH  26  32
ATOM      7  O   UNL     1      14.404   4.081  -2.403  0.00  0.00    -0.269 OA
ATOM     16  N   UNL     1      12.625   3.077  -1.390  0.00  0.00    -0.324 N 
ATOM     32  C   UNL     1      13.583   4.093  -1.457  0.00  0.00    +0.264 C 
ATOM     44  H   UNL     1      12.586   2.349  -2.096  0.00  0.00    +0.145 HD
ATOM     45  H   UNL     1      11.941   3.031  -0.642  0.00  0.00    +0.145 HD
ENDBRANCH  26  32
ENDBRANCH  17   9
BRANCH  19  22
ATOM      3  O   UNL     1      13.127   6.740   6.625  0.00  0.00    -0.274 OA
ATOM     10  N   UNL     1      11.170   6.748   5.365  0.00  0.00    -0.302 N 
ATOM     22  C   UNL     1      12.462   7.139   5.673  0.00  0.00    +0.234 C 
ATOM     39  H   UNL     1      10.706   7.148   4.555  0.00  0.00    +0.150 HD
BRANCH  10  25
ATOM     25  C   UNL     1      10.425   5.792   6.152  0.00  0.00    +0.163 C 
BRANCH  25  30
ATOM      6  O   UNL     1      10.161   4.613   4.044  0.00  0.00    -0.274 OA
ATOM     15  N   UNL     1      10.067   3.407   5.997  0.00  0.00    -0.328 N 
ATOM     30  C   UNL     1      10.192   4.573   5.272  0.00  0.00    +0.231 C 
ATOM     42  H   UNL     1       9.923   2.517   5.530  0.00  0.00    +0.145 HD
ATOM     43  H   UNL     1      10.097   3.388   7.012  0.00  0.00    +0.145 HD
ENDBRANCH  25  30
BRANCH  25  28
ATOM     28  C   UNL     1       9.088   6.361   6.644  0.00  0.00    +0.074 C 
BRANCH  28  33
ATOM      2  S   UNL     1       8.871   9.104   6.442  0.00  0.00    -0.102 S 
ATOM     33  C   UNL     1       8.629   7.542   5.823  0.00  0.00    -0.008 A 
ATOM     35  C   UNL     1       8.024   7.518   4.607  0.00  0.00    +0.011 A 
ATOM     37  C   UNL     1       7.741   8.837   4.151  0.00  0.00    +0.008 A 
ATOM     38  C   UNL     1       8.149   9.795   5.051  0.00  0.00    +0.045 A 
ENDBRANCH  28  33
ENDBRANCH  25  28
ENDBRANCH  10  25
ENDBRANCH  19  22
TORSDOF 9
ENDMDL
MODEL 4
REMARK VINA RESULT:      -6.9      2.685      6.857
REMARK  Name = 11880086
REMARK  10 active torsions:
REMARK  status: ('A' for Active; 'I' for Inactive)
REMARK    1  A    between atoms: N_9  and  C_17
REMARK    2  A    between atoms: N_10  and  C_25
REMARK    3  A    between atoms: C_19  and  C_22
REMARK    4  A    between atoms: C_23  and  C_27
REMARK    5  A    between atoms: C_24  and  C_29
REMARK    6  A    between atoms: C_25  and  C_28
REMARK    7  A    between atoms: C_25  and  C_30
REMARK    8  A    between atoms: C_26  and  C_32
REMARK    9  A    between atoms: C_28  and  C_33
REMARK   10  A    between atoms: C_34  and  C_36
REMARK                            x       y       z     vdW  Elec       q    Type
REMARK                         _______ _______ _______ _____ _____    ______ ____
ROOT
ATOM      4  O   UNL     1      15.203  14.326  15.916  0.00  0.00    -0.268 OA
ATOM      8  N   UNL     1      14.982  12.919  17.761  0.00  0.00    -0.285 N 
ATOM     17  C   UNL     1      13.590  12.292  20.249  0.00  0.00    +0.113 C 
ATOM     18  C   UNL     1      15.079  11.949  20.072  0.00  0.00    +0.059 C 
ATOM     19  C   UNL     1      15.498  11.824  18.604  0.00  0.00    +0.164 C 
ATOM     20  C   UNL     1      13.210  13.507  19.391  0.00  0.00    +0.046 C 
ATOM     21  C   UNL     1      13.565  13.264  17.929  0.00  0.00    +0.111 C 
ATOM     23  C   UNL     1      15.697  13.522  16.707  0.00  0.00    +0.266 C 
ENDROOT
BRANCH  23  27
ATOM      1  S   UNL     1      19.596  12.936  16.936  0.00  0.00    -0.080 S 
ATOM     13  N   UNL     1      17.515  12.387  15.504  0.00  0.00    -0.240 NA
ATOM     27  C   UNL     1      17.101  13.163  16.566  0.00  0.00    +0.133 A 
ATOM     31  C   UNL     1      18.083  13.559  17.448  0.00  0.00    +0.080 A 
ATOM     34  C   UNL     1      18.813  12.202  15.596  0.00  0.00    +0.076 A 
ATOM     36  C   UNL     1      19.616  11.417  14.635  0.00  0.00    +0.073 C 
ENDBRANCH  23  27
BRANCH  17   9
ATOM      9  N   UNL     1      13.220  12.461  21.661  0.00  0.00    -0.236 N 
ATOM     11  N   UNL     1      12.880  13.671  22.122  0.00  0.00    -0.064 NA
ATOM     12  N   UNL     1      12.596  13.529  23.412  0.00  0.00    -0.124 NA
ATOM     24  C   UNL     1      13.166  11.511  22.627  0.00  0.00    +0.156 A 
ATOM     26  C   UNL     1      12.766  12.212  23.737  0.00  0.00    +0.179 A 
BRANCH  24  29
ATOM      5  O   UNL     1      12.685   9.304  21.929  0.00  0.00    -0.269 OA
ATOM     14  N   UNL     1      14.705   9.665  22.921  0.00  0.00    -0.324 N 
ATOM     29  C   UNL     1      13.464  10.125  22.468  0.00  0.00    +0.262 C 
ATOM     40  H   UNL     1      14.967   8.690  22.824  0.00  0.00    +0.145 HD
ATOM     41  H   UNL     1      15.382  10.283  23.359  0.00  0.00    +0.145 HD
ENDBRANCH  24  29
BRANCH  26  32
ATOM      7  O   UNL     1      13.302  11.938  26.024  0.00  0.00    -0.269 OA
ATOM     16  N   UNL     1      11.404  10.923  25.270  0.00  0.00    -0.324 N 
ATOM     32  C   UNL     1      12.544  11.704  25.055  0.00  0.00    +0.264 C 
ATOM     44  H   UNL     1      11.197  10.545  26.188  0.00  0.00    +0.145 HD
ATOM     45  H   UNL     1      10.750  10.709  24.524  0.00  0.00    +0.145 HD
ENDBRANCH  26  32
ENDBRANCH  17   9
BRANCH  19  22
ATOM      3  O   UNL     1      14.818  10.439  16.780  0.00  0.00    -0.274 OA
ATOM     10  N   UNL     1      14.853   9.539  18.926  0.00  0.00    -0.302 N 
ATOM     22  C   UNL     1      15.029  10.540  17.985  0.00  0.00    +0.234 C 
ATOM     39  H   UNL     1      15.066   9.725  19.901  0.00  0.00    +0.150 HD
BRANCH  10  25
ATOM     25  C   UNL     1      14.386   8.213  18.591  0.00  0.00    +0.163 C 
BRANCH  25  30
ATOM      6  O   UNL     1      12.468   7.961  17.121  0.00  0.00    -0.274 OA
ATOM     15  N   UNL     1      12.146   8.886  19.198  0.00  0.00    -0.328 N 
ATOM     30  C   UNL     1      12.922   8.341  18.197  0.00  0.00    +0.231 C 
ATOM     42  H   UNL     1      11.147   9.013  19.071  0.00  0.00    +0.145 HD
ATOM     43  H   UNL     1      12.533   9.193  20.085  0.00  0.00    +0.145 HD
ENDBRANCH  25  30
BRANCH  25  28
ATOM     28  C   UNL     1      14.543   7.229  19.757  0.00  0.00    +0.074 C 
BRANCH  28  33
ATOM      2  S   UNL     1      16.872   5.995  18.940  0.00  0.00    -0.102 S 
ATOM     33  C   UNL     1      15.990   6.919  20.058  0.00  0.00    -0.008 A 
ATOM     35  C   UNL     1      16.707   7.298  21.148  0.00  0.00    +0.011 A 
ATOM     37  C   UNL     1      18.044   6.814  21.074  0.00  0.00    +0.008 A 
ATOM     38  C   UNL     1      18.269   6.089  19.925  0.00  0.00    +0.045 A 
ENDBRANCH  28  33
ENDBRANCH  25  28
ENDBRANCH  10  25
ENDBRANCH  19  22
TORSDOF 9
ENDMDL
MODEL 5
REMARK VINA RESULT:      -6.7     12.935     17.907
REMARK  Name = 11880086
REMARK  10 active torsions:
REMARK  status: ('A' for Active; 'I' for Inactive)
REMARK    1  A    between atoms: N_9  and  C_17
REMARK    2  A    between atoms: N_10  and  C_25
REMARK    3  A    between atoms: C_19  and  C_22
REMARK    4  A    between atoms: C_23  and  C_27
REMARK    5  A    between atoms: C_24  and  C_29
REMARK    6  A    between atoms: C_25  and  C_28
REMARK    7  A    between atoms: C_25  and  C_30
REMARK    8  A    between atoms: C_26  and  C_32
REMARK    9  A    between atoms: C_28  and  C_33
REMARK   10  A    between atoms: C_34  and  C_36
REMARK                            x       y       z     vdW  Elec       q    Type
REMARK                         _______ _______ _______ _____ _____    ______ ____
ROOT
ATOM      4  O   UNL     1       9.670   9.614   2.040  0.00  0.00    -0.268 OA
ATOM      8  N   UNL     1      10.456   7.719   3.146  0.00  0.00    -0.285 N 
ATOM     17  C   UNL     1       9.981   5.626   5.124  0.00  0.00    +0.113 C 
ATOM     18  C   UNL     1      11.402   6.156   4.865  0.00  0.00    +0.059 C 
ATOM     19  C   UNL     1      11.560   6.802   3.486  0.00  0.00    +0.164 C 
ATOM     20  C   UNL     1       8.936   6.709   4.824  0.00  0.00    +0.046 C 
ATOM     21  C   UNL     1       9.096   7.230   3.401  0.00  0.00    +0.111 C 
ATOM     23  C   UNL     1      10.611   8.935   2.450  0.00  0.00    +0.266 C 
ENDROOT
BRANCH  23  27
ATOM      1  S   UNL     1      14.171  10.642   2.370  0.00  0.00    -0.080 S 
ATOM     13  N   UNL     1      12.727   8.842   1.204  0.00  0.00    -0.240 NA
ATOM     27  C   UNL     1      11.971   9.397   2.215  0.00  0.00    +0.133 A 
ATOM     31  C   UNL     1      12.580  10.387   2.956  0.00  0.00    +0.080 A 
ATOM     34  C   UNL     1      13.907   9.421   1.193  0.00  0.00    +0.076 A 
ATOM     36  C   UNL     1      14.993   9.089   0.245  0.00  0.00    +0.073 C 
ENDBRANCH  23  27
BRANCH  17   9
ATOM      9  N   UNL     1       9.833   5.058   6.471  0.00  0.00    -0.236 N 
ATOM     11  N   UNL     1       9.703   3.735   6.627  0.00  0.00    -0.064 NA
ATOM     12  N   UNL     1       9.589   3.508   7.932  0.00  0.00    -0.124 NA
ATOM     24  C   UNL     1       9.809   5.719   7.655  0.00  0.00    +0.156 A 
ATOM     26  C   UNL     1       9.653   4.712   8.576  0.00  0.00    +0.179 A 
BRANCH  24  29
ATOM      5  O   UNL     1      11.004   7.758   7.733  0.00  0.00    -0.269 OA
ATOM     14  N   UNL     1       8.762   7.849   8.135  0.00  0.00    -0.324 N 
ATOM     29  C   UNL     1       9.925   7.129   7.840  0.00  0.00    +0.262 C 
ATOM     40  H   UNL     1       8.791   8.854   8.268  0.00  0.00    +0.145 HD
ATOM     41  H   UNL     1       7.857   7.397   8.227  0.00  0.00    +0.145 HD
ENDBRANCH  24  29
BRANCH  26  32
ATOM      7  O   UNL     1      10.562   4.940  10.746  0.00  0.00    -0.269 OA
ATOM     16  N   UNL     1       8.290   4.871  10.571  0.00  0.00    -0.324 N 
ATOM     32  C   UNL     1       9.564   4.838   9.997  0.00  0.00    +0.264 C 
ATOM     44  H   UNL     1       8.172   4.967  11.574  0.00  0.00    +0.145 HD
ATOM     45  H   UNL     1       7.445   4.803  10.012  0.00  0.00    +0.145 HD
ENDBRANCH  26  32
ENDBRANCH  17   9
BRANCH  19  22
ATOM      3  O   UNL     1      10.632   5.231   1.944  0.00  0.00    -0.274 OA
ATOM     10  N   UNL     1      12.937   5.553   1.974  0.00  0.00    -0.302 N 
ATOM     22  C   UNL     1      11.635   5.785   2.385  0.00  0.00    +0.234 C 
ATOM     39  H   UNL     1      13.697   6.074   2.401  0.00  0.00    +0.150 HD
BRANCH  10  25
ATOM     25  C   UNL     1      13.283   4.602   0.943  0.00  0.00    +0.163 C 
BRANCH  25  30
ATOM      6  O   UNL     1      14.960   3.100   1.857  0.00  0.00    -0.274 OA
ATOM     15  N   UNL     1      15.661   4.940   0.674  0.00  0.00    -0.328 N 
ATOM     30  C   UNL     1      14.699   4.125   1.232  0.00  0.00    +0.231 C 
ATOM     42  H   UNL     1      16.648   4.726   0.778  0.00  0.00    +0.145 HD
ATOM     43  H   UNL     1      15.431   5.782   0.156  0.00  0.00    +0.145 HD
ENDBRANCH  25  30
BRANCH  25  28
ATOM     28  C   UNL     1      13.200   5.211  -0.462  0.00  0.00    +0.074 C 
BRANCH  28  33
ATOM      2  S   UNL     1      10.802   4.689  -1.725  0.00  0.00    -0.102 S 
ATOM     33  C   UNL     1      12.434   4.334  -1.425  0.00  0.00    -0.008 A 
ATOM     35  C   UNL     1      12.900   3.256  -2.108  0.00  0.00    +0.011 A 
ATOM     37  C   UNL     1      11.878   2.686  -2.920  0.00  0.00    +0.008 A 
ATOM     38  C   UNL     1      10.686   3.367  -2.807  0.00  0.00    +0.045 A 
ENDBRANCH  28  33
ENDBRANCH  25  28
ENDBRANCH  10  25
ENDBRANCH  19  22
TORSDOF 9
ENDMDL
MODEL 6
REMARK VINA RESULT:      -6.7      2.951      6.602
REMARK  Name = 11880086
REMARK  10 active torsions:
REMARK  status: ('A' for Active; 'I' for Inactive)
REMARK    1  A    between atoms: N_9  and  C_17
REMARK    2  A    between atoms: N_10  and  C_25
REMARK    3  A    between atoms: C_19  and  C_22
REMARK    4  A    between atoms: C_23  and  C_27
REMARK    5  A    between atoms: C_24  and  C_29
REMARK    6  A    between atoms: C_25  and  C_28
REMARK    7  A    between atoms: C_25  and  C_30
REMARK    8  A    between atoms: C_26  and  C_32
REMARK    9  A    between atoms: C_28  and  C_33
REMARK   10  A    between atoms: C_34  and  C_36
REMARK                            x       y       z     vdW  Elec       q    Type
REMARK                         _______ _______ _______ _____ _____    ______ ____
ROOT
ATOM      4  O   UNL     1      18.809   8.529  21.998  0.00  0.00    -0.268 OA
ATOM      8  N   UNL     1      16.842   9.570  21.305  0.00  0.00    -0.285 N 
ATOM     17  C   UNL     1      14.415   9.460  19.689  0.00  0.00    +0.113 C 
ATOM     18  C   UNL     1      15.114  10.801  19.968  0.00  0.00    +0.059 C 
ATOM     19  C   UNL     1      15.992  10.772  21.222  0.00  0.00    +0.164 C 
ATOM     20  C   UNL     1      15.428   8.307  19.709  0.00  0.00    +0.046 C 
ATOM     21  C   UNL     1      16.189   8.285  21.029  0.00  0.00    +0.111 C 
ATOM     23  C   UNL     1      18.165   9.558  21.791  0.00  0.00    +0.266 C 
ENDROOT
BRANCH  23  27
ATOM      1  S   UNL     1      20.079  13.013  21.810  0.00  0.00    -0.080 S 
ATOM     13  N   UNL     1      18.675  11.432  23.297  0.00  0.00    -0.240 NA
ATOM     27  C   UNL     1      18.789  10.847  22.053  0.00  0.00    +0.133 A 
ATOM     31  C   UNL     1      19.511  11.551  21.115  0.00  0.00    +0.080 A 
ATOM     34  C   UNL     1      19.316  12.579  23.285  0.00  0.00    +0.076 A 
ATOM     36  C   UNL     1      19.417  13.494  24.443  0.00  0.00    +0.073 C 
ENDBRANCH  23  27
BRANCH  17   9
ATOM      9  N   UNL     1      13.621   9.490  18.453  0.00  0.00    -0.236 N 
ATOM     11  N   UNL     1      14.085  10.137  17.377  0.00  0.00    -0.064 NA
ATOM     12  N   UNL     1      13.174  10.001  16.419  0.00  0.00    -0.124 NA
ATOM     24  C   UNL     1      12.410   8.922  18.226  0.00  0.00    +0.156 A 
ATOM     26  C   UNL     1      12.142   9.259  16.923  0.00  0.00    +0.179 A 
BRANCH  24  29
ATOM      5  O   UNL     1      10.609   8.594  19.723  0.00  0.00    -0.269 OA
ATOM     14  N   UNL     1      12.061   6.859  19.445  0.00  0.00    -0.324 N 
ATOM     29  C   UNL     1      11.643   8.163  19.161  0.00  0.00    +0.262 C 
ATOM     40  H   UNL     1      11.546   6.277  20.097  0.00  0.00    +0.145 HD
ATOM     41  H   UNL     1      12.887   6.452  19.016  0.00  0.00    +0.145 HD
ENDBRANCH  24  29
BRANCH  26  32
ATOM      7  O   UNL     1      10.347   7.850  16.301  0.00  0.00    -0.269 OA
ATOM     16  N   UNL     1      10.531   9.844  15.211  0.00  0.00    -0.324 N 
ATOM     32  C   UNL     1      10.984   8.919  16.156  0.00  0.00    +0.264 C 
ATOM     44  H   UNL     1       9.710   9.654  14.647  0.00  0.00    +0.145 HD
ATOM     45  H   UNL     1      11.002  10.730  15.057  0.00  0.00    +0.145 HD
ENDBRANCH  26  32
ENDBRANCH  17   9
BRANCH  19  22
ATOM      3  O   UNL     1      14.834   9.801  23.073  0.00  0.00    -0.274 OA
ATOM     10  N   UNL     1      14.879  12.118  22.863  0.00  0.00    -0.302 N 
ATOM     22  C   UNL     1      15.182  10.821  22.485  0.00  0.00    +0.234 C 
ATOM     39  H   UNL     1      15.225  12.895  22.308  0.00  0.00    +0.150 HD
BRANCH  10  25
ATOM     25  C   UNL     1      14.090  12.437  24.031  0.00  0.00    +0.163 C 
BRANCH  25  30
ATOM      6  O   UNL     1      15.981  12.461  25.558  0.00  0.00    -0.274 OA
ATOM     15  N   UNL     1      14.237  11.028  25.989  0.00  0.00    -0.328 N 
ATOM     30  C   UNL     1      14.890  11.989  25.246  0.00  0.00    +0.231 C 
ATOM     42  H   UNL     1      14.655  10.653  26.835  0.00  0.00    +0.145 HD
ATOM     43  H   UNL     1      13.335  10.649  25.721  0.00  0.00    +0.145 HD
ENDBRANCH  25  30
BRANCH  25  28
ATOM     28  C   UNL     1      12.718  11.753  24.012  0.00  0.00    +0.074 C 
BRANCH  28  33
ATOM      2  S   UNL     1      11.387  12.932  21.901  0.00  0.00    -0.102 S 
ATOM     33  C   UNL     1      11.617  12.686  23.565  0.00  0.00    -0.008 A 
ATOM     35  C   UNL     1      10.753  13.380  24.351  0.00  0.00    +0.011 A 
ATOM     37  C   UNL     1       9.855  14.154  23.562  0.00  0.00    +0.008 A 
ATOM     38  C   UNL     1      10.089  14.004  22.213  0.00  0.00    +0.045 A 
ENDBRANCH  28  33
ENDBRANCH  25  28
ENDBRANCH  10  25
ENDBRANCH  19  22
TORSDOF 9
ENDMDL
MODEL 7
REMARK VINA RESULT:      -6.7     27.064     31.168
REMARK  Name = 11880086
REMARK  10 active torsions:
REMARK  status: ('A' for Active; 'I' for Inactive)
REMARK    1  A    between atoms: N_9  and  C_17
REMARK    2  A    between atoms: N_10  and  C_25
REMARK    3  A    between atoms: C_19  and  C_22
REMARK    4  A    between atoms: C_23  and  C_27
REMARK    5  A    between atoms: C_24  and  C_29
REMARK    6  A    between atoms: C_25  and  C_28
REMARK    7  A    between atoms: C_25  and  C_30
REMARK    8  A    between atoms: C_26  and  C_32
REMARK    9  A    between atoms: C_28  and  C_33
REMARK   10  A    between atoms: C_34  and  C_36
REMARK                            x       y       z     vdW  Elec       q    Type
REMARK                         _______ _______ _______ _____ _____    ______ ____
ROOT
ATOM      4  O   UNL     1      -6.378 -13.241  11.229  0.00  0.00    -0.268 OA
ATOM      8  N   UNL     1      -6.483 -12.435  13.413  0.00  0.00    -0.285 N 
ATOM     17  C   UNL     1      -7.817 -12.474  16.009  0.00  0.00    +0.113 C 
ATOM     18  C   UNL     1      -7.144 -11.192  15.489  0.00  0.00    +0.059 C 
ATOM     19  C   UNL     1      -6.063 -11.463  14.440  0.00  0.00    +0.164 C 
ATOM     20  C   UNL     1      -8.293 -13.347  14.840  0.00  0.00    +0.046 C 
ATOM     21  C   UNL     1      -7.138 -13.657  13.896  0.00  0.00    +0.111 C 
ATOM     23  C   UNL     1      -6.151 -12.349  12.046  0.00  0.00    +0.266 C 
ENDROOT
BRANCH  23  27
ATOM      1  S   UNL     1      -5.079  -8.761  10.792  0.00  0.00    -0.080 S 
ATOM     13  N   UNL     1      -4.134 -11.073  11.459  0.00  0.00    -0.240 NA
ATOM     27  C   UNL     1      -5.506 -11.124  11.594  0.00  0.00    +0.133 A 
ATOM     31  C   UNL     1      -6.191  -9.971  11.280  0.00  0.00    +0.080 A 
ATOM     34  C   UNL     1      -3.796  -9.873  11.042  0.00  0.00    +0.076 A 
ATOM     36  C   UNL     1      -2.407  -9.439  10.782  0.00  0.00    +0.073 C 
ENDBRANCH  23  27
BRANCH  17   9
ATOM      9  N   UNL     1      -8.888 -12.191  16.974  0.00  0.00    -0.236 N 
ATOM     11  N   UNL     1     -10.163 -12.166  16.568  0.00  0.00    -0.064 NA
ATOM     12  N   UNL     1     -10.905 -11.891  17.635  0.00  0.00    -0.124 NA
ATOM     24  C   UNL     1      -8.768 -11.936  18.301  0.00  0.00    +0.156 A 
ATOM     26  C   UNL     1     -10.066 -11.747  18.705  0.00  0.00    +0.179 A 
BRANCH  24  29
ATOM      5  O   UNL     1      -7.263 -10.970  19.847  0.00  0.00    -0.269 OA
ATOM     14  N   UNL     1      -6.646 -12.944  18.890  0.00  0.00    -0.324 N 
ATOM     29  C   UNL     1      -7.552 -11.890  19.047  0.00  0.00    +0.262 C 
ATOM     40  H   UNL     1      -5.771 -12.960  19.403  0.00  0.00    +0.145 HD
ATOM     41  H   UNL     1      -6.828 -13.721  18.262  0.00  0.00    +0.145 HD
ENDBRANCH  24  29
BRANCH  26  32
ATOM      7  O   UNL     1     -11.100 -12.281  20.763  0.00  0.00    -0.269 OA
ATOM     16  N   UNL     1     -10.320 -10.154  20.511  0.00  0.00    -0.324 N 
ATOM     32  C   UNL     1     -10.533 -11.446  20.022  0.00  0.00    +0.264 C 
ATOM     44  H   UNL     1     -10.625  -9.891  21.442  0.00  0.00    +0.145 HD
ATOM     45  H   UNL     1      -9.858  -9.439  19.958  0.00  0.00    +0.145 HD
ENDBRANCH  26  32
ENDBRANCH  17   9
BRANCH  19  22
ATOM      3  O   UNL     1      -4.793 -12.572  16.133  0.00  0.00    -0.274 OA
ATOM     10  N   UNL     1      -3.688 -11.734  14.263  0.00  0.00    -0.302 N 
ATOM     22  C   UNL     1      -4.798 -11.995  15.049  0.00  0.00    +0.234 C 
ATOM     39  H   UNL     1      -3.804 -11.255  13.375  0.00  0.00    +0.150 HD
BRANCH  10  25
ATOM     25  C   UNL     1      -2.347 -12.121  14.637  0.00  0.00    +0.163 C 
BRANCH  25  30
ATOM      6  O   UNL     1      -1.426  -9.882  14.430  0.00  0.00    -0.274 OA
ATOM     15  N   UNL     1      -1.311 -10.934  16.469  0.00  0.00    -0.328 N 
ATOM     30  C   UNL     1      -1.641 -10.867  15.132  0.00  0.00    +0.231 C 
ATOM     42  H   UNL     1      -0.848 -10.156  16.930  0.00  0.00    +0.145 HD
ATOM     43  H   UNL     1      -1.497 -11.753  17.038  0.00  0.00    +0.145 HD
ENDBRANCH  25  30
BRANCH  25  28
ATOM     28  C   UNL     1      -1.574 -12.744  13.467  0.00  0.00    +0.074 C 
BRANCH  28  33
ATOM      2  S   UNL     1      -2.019 -15.393  14.098  0.00  0.00    -0.102 S 
ATOM     33  C   UNL     1      -2.151 -14.073  13.040  0.00  0.00    -0.008 A 
ATOM     35  C   UNL     1      -2.787 -14.361  11.874  0.00  0.00    +0.011 A 
ATOM     37  C   UNL     1      -3.189 -15.727  11.836  0.00  0.00    +0.008 A 
ATOM     38  C   UNL     1      -2.834 -16.403  12.981  0.00  0.00    +0.045 A 
ENDBRANCH  28  33
ENDBRANCH  25  28
ENDBRANCH  10  25
ENDBRANCH  19  22
TORSDOF 9
ENDMDL
MODEL 8
REMARK VINA RESULT:      -6.7     28.282     31.026
REMARK  Name = 11880086
REMARK  10 active torsions:
REMARK  status: ('A' for Active; 'I' for Inactive)
REMARK    1  A    between atoms: N_9  and  C_17
REMARK    2  A    between atoms: N_10  and  C_25
REMARK    3  A    between atoms: C_19  and  C_22
REMARK    4  A    between atoms: C_23  and  C_27
REMARK    5  A    between atoms: C_24  and  C_29
REMARK    6  A    between atoms: C_25  and  C_28
REMARK    7  A    between atoms: C_25  and  C_30
REMARK    8  A    between atoms: C_26  and  C_32
REMARK    9  A    between atoms: C_28  and  C_33
REMARK   10  A    between atoms: C_34  and  C_36
REMARK                            x       y       z     vdW  Elec       q    Type
REMARK                         _______ _______ _______ _____ _____    ______ ____
ROOT
ATOM      4  O   UNL     1      -1.684 -11.432  15.454  0.00  0.00    -0.268 OA
ATOM      8  N   UNL     1      -4.010 -11.472  15.600  0.00  0.00    -0.285 N 
ATOM     17  C   UNL     1      -6.403 -10.974  17.196  0.00  0.00    +0.113 C 
ATOM     18  C   UNL     1      -6.376 -12.100  16.148  0.00  0.00    +0.059 C 
ATOM     19  C   UNL     1      -5.319 -11.885  15.062  0.00  0.00    +0.164 C 
ATOM     20  C   UNL     1      -4.994 -10.711  17.745  0.00  0.00    +0.046 C 
ATOM     21  C   UNL     1      -4.024 -10.405  16.610  0.00  0.00    +0.111 C 
ATOM     23  C   UNL     1      -2.765 -11.900  15.097  0.00  0.00    +0.266 C 
ENDROOT
BRANCH  23  27
ATOM      1  S   UNL     1      -2.769 -14.232  11.910  0.00  0.00    -0.080 S 
ATOM     13  N   UNL     1      -2.859 -14.280  14.493  0.00  0.00    -0.240 NA
ATOM     27  C   UNL     1      -2.782 -12.961  14.099  0.00  0.00    +0.133 A 
ATOM     31  C   UNL     1      -2.725 -12.734  12.742  0.00  0.00    +0.080 A 
ATOM     34  C   UNL     1      -2.859 -15.041  13.421  0.00  0.00    +0.076 A 
ATOM     36  C   UNL     1      -2.931 -16.518  13.443  0.00  0.00    +0.073 C 
ENDBRANCH  23  27
BRANCH  17   9
ATOM      9  N   UNL     1      -7.385 -11.224  18.260  0.00  0.00    -0.236 N 
ATOM     11  N   UNL     1      -7.055 -11.991  19.306  0.00  0.00    -0.064 NA
ATOM     12  N   UNL     1      -8.119 -12.043  20.100  0.00  0.00    -0.124 NA
ATOM     24  C   UNL     1      -8.657 -10.761  18.346  0.00  0.00    +0.156 A 
ATOM     26  C   UNL     1      -9.109 -11.294  19.527  0.00  0.00    +0.179 A 
BRANCH  24  29
ATOM      5  O   UNL     1      -9.155  -8.677  17.346  0.00  0.00    -0.269 OA
ATOM     14  N   UNL     1     -10.171 -10.520  16.471  0.00  0.00    -0.324 N 
ATOM     29  C   UNL     1      -9.316  -9.919  17.400  0.00  0.00    +0.262 C 
ATOM     40  H   UNL     1     -10.657  -9.965  15.775  0.00  0.00    +0.145 HD
ATOM     41  H   UNL     1     -10.336 -11.522  16.461  0.00  0.00    +0.145 HD
ENDBRANCH  24  29
BRANCH  26  32
ATOM      7  O   UNL     1     -11.286 -12.015  20.103  0.00  0.00    -0.269 OA
ATOM     16  N   UNL     1     -10.671  -9.923  20.769  0.00  0.00    -0.324 N 
ATOM     32  C   UNL     1     -10.399 -11.130  20.119  0.00  0.00    +0.264 C 
ATOM     44  H   UNL     1     -11.569  -9.760  21.212  0.00  0.00    +0.145 HD
ATOM     45  H   UNL     1      -9.988  -9.174  20.822  0.00  0.00    +0.145 HD
ENDBRANCH  26  32
ENDBRANCH  17   9
BRANCH  19  22
ATOM      3  O   UNL     1      -4.986  -9.916  13.751  0.00  0.00    -0.274 OA
ATOM     10  N   UNL     1      -7.016 -11.042  13.595  0.00  0.00    -0.302 N 
ATOM     22  C   UNL     1      -5.730 -10.839  14.066  0.00  0.00    +0.234 C 
ATOM     39  H   UNL     1      -7.546 -11.847  13.915  0.00  0.00    +0.150 HD
BRANCH  10  25
ATOM     25  C   UNL     1      -7.657 -10.163  12.644  0.00  0.00    +0.163 C 
BRANCH  25  30
ATOM      6  O   UNL     1      -9.629  -9.338  13.800  0.00  0.00    -0.274 OA
ATOM     15  N   UNL     1      -9.879 -11.041  12.280  0.00  0.00    -0.328 N 
ATOM     30  C   UNL     1      -9.137 -10.126  12.997  0.00  0.00    +0.231 C 
ATOM     42  H   UNL     1     -10.884 -11.111  12.408  0.00  0.00    +0.145 HD
ATOM     43  H   UNL     1      -9.460 -11.685  11.616  0.00  0.00    +0.145 HD
ENDBRANCH  25  30
BRANCH  25  28
ATOM     28  C   UNL     1      -7.463 -10.630  11.196  0.00  0.00    +0.074 C 
BRANCH  28  33
ATOM      2  S   UNL     1      -4.999 -11.174  10.078  0.00  0.00    -0.102 S 
ATOM     33  C   UNL     1      -6.198 -10.082  10.580  0.00  0.00    -0.008 A 
ATOM     35  C   UNL     1      -5.881  -8.778  10.366  0.00  0.00    +0.011 A 
ATOM     37  C   UNL     1      -4.597  -8.656   9.762  0.00  0.00    +0.008 A 
ATOM     38  C   UNL     1      -4.006  -9.882   9.551  0.00  0.00    +0.045 A 
ENDBRANCH  28  33
ENDBRANCH  25  28
ENDBRANCH  10  25
ENDBRANCH  19  22
TORSDOF 9
ENDMDL
MODEL 9
REMARK VINA RESULT:      -6.7      2.981      6.540
REMARK  Name = 11880086
REMARK  10 active torsions:
REMARK  status: ('A' for Active; 'I' for Inactive)
REMARK    1  A    between atoms: N_9  and  C_17
REMARK    2  A    between atoms: N_10  and  C_25
REMARK    3  A    between atoms: C_19  and  C_22
REMARK    4  A    between atoms: C_23  and  C_27
REMARK    5  A    between atoms: C_24  and  C_29
REMARK    6  A    between atoms: C_25  and  C_28
REMARK    7  A    between atoms: C_25  and  C_30
REMARK    8  A    between atoms: C_26  and  C_32
REMARK    9  A    between atoms: C_28  and  C_33
REMARK   10  A    between atoms: C_34  and  C_36
REMARK                            x       y       z     vdW  Elec       q    Type
REMARK                         _______ _______ _______ _____ _____    ______ ____
ROOT
ATOM      4  O   UNL     1      18.791   8.458  22.163  0.00  0.00    -0.268 OA
ATOM      8  N   UNL     1      16.955   9.614  21.312  0.00  0.00    -0.285 N 
ATOM     17  C   UNL     1      14.510   9.557  19.718  0.00  0.00    +0.113 C 
ATOM     18  C   UNL     1      15.370  10.830  19.795  0.00  0.00    +0.059 C 
ATOM     19  C   UNL     1      16.255  10.884  21.043  0.00  0.00    +0.164 C 
ATOM     20  C   UNL     1      15.377   8.306  19.918  0.00  0.00    +0.046 C 
ATOM     21  C   UNL     1      16.147   8.390  21.230  0.00  0.00    +0.111 C 
ATOM     23  C   UNL     1      18.273   9.514  21.800  0.00  0.00    +0.266 C 
ENDROOT
BRANCH  23  27
ATOM      1  S   UNL     1      20.248  12.814  22.697  0.00  0.00    -0.080 S 
ATOM     13  N   UNL     1      19.585  11.288  20.718  0.00  0.00    -0.240 NA
ATOM     27  C   UNL     1      19.052  10.743  21.867  0.00  0.00    +0.133 A 
ATOM     31  C   UNL     1      19.303  11.425  23.037  0.00  0.00    +0.080 A 
ATOM     34  C   UNL     1      20.238  12.384  21.035  0.00  0.00    +0.076 A 
ATOM     36  C   UNL     1      20.946  13.247  20.064  0.00  0.00    +0.073 C 
ENDBRANCH  23  27
BRANCH  17   9
ATOM      9  N   UNL     1      13.709   9.497  18.489  0.00  0.00    -0.236 N 
ATOM     11  N   UNL     1      14.207   9.978  17.343  0.00  0.00    -0.064 NA
ATOM     12  N   UNL     1      13.280   9.794  16.409  0.00  0.00    -0.124 NA
ATOM     24  C   UNL     1      12.460   8.993  18.332  0.00  0.00    +0.156 A 
ATOM     26  C   UNL     1      12.203   9.191  16.998  0.00  0.00    +0.179 A 
BRANCH  24  29
ATOM      5  O   UNL     1      10.798   9.041  20.014  0.00  0.00    -0.269 OA
ATOM     14  N   UNL     1      11.806   7.038  19.604  0.00  0.00    -0.324 N 
ATOM     29  C   UNL     1      11.651   8.405  19.350  0.00  0.00    +0.262 C 
ATOM     40  H   UNL     1      11.249   6.573  20.312  0.00  0.00    +0.145 HD
ATOM     41  H   UNL     1      12.475   6.468  19.094  0.00  0.00    +0.145 HD
ENDBRANCH  24  29
BRANCH  26  32
ATOM      7  O   UNL     1      10.381   7.782  16.463  0.00  0.00    -0.269 OA
ATOM     16  N   UNL     1      10.537   9.757  15.334  0.00  0.00    -0.324 N 
ATOM     32  C   UNL     1      11.018   8.845  16.278  0.00  0.00    +0.264 C 
ATOM     44  H   UNL     1       9.696   9.562  14.802  0.00  0.00    +0.145 HD
ATOM     45  H   UNL     1      11.006  10.637  15.149  0.00  0.00    +0.145 HD
ENDBRANCH  26  32
ENDBRANCH  17   9
BRANCH  19  22
ATOM      3  O   UNL     1      16.013  11.324  23.379  0.00  0.00    -0.274 OA
ATOM     10  N   UNL     1      14.123  11.369  22.023  0.00  0.00    -0.302 N 
ATOM     22  C   UNL     1      15.475  11.221  22.281  0.00  0.00    +0.234 C 
ATOM     39  H   UNL     1      13.781  11.272  21.071  0.00  0.00    +0.150 HD
BRANCH  10  25
ATOM     25  C   UNL     1      13.151  11.673  23.048  0.00  0.00    +0.163 C 
BRANCH  25  30
ATOM      6  O   UNL     1      10.842  10.917  22.987  0.00  0.00    -0.274 OA
ATOM     15  N   UNL     1      12.514   9.368  22.699  0.00  0.00    -0.328 N 
ATOM     30  C   UNL     1      12.038  10.642  22.929  0.00  0.00    +0.231 C 
ATOM     42  H   UNL     1      11.875   8.588  22.584  0.00  0.00    +0.145 HD
ATOM     43  H   UNL     1      13.505   9.155  22.650  0.00  0.00    +0.145 HD
ENDBRANCH  25  30
BRANCH  25  28
ATOM     28  C   UNL     1      12.584  13.091  22.911  0.00  0.00    +0.074 C 
BRANCH  28  33
ATOM      2  S   UNL     1      13.336  13.740  25.486  0.00  0.00    -0.102 S 
ATOM     33  C   UNL     1      12.182  13.681  24.242  0.00  0.00    -0.008 A 
ATOM     35  C   UNL     1      10.971  14.191  24.588  0.00  0.00    +0.011 A 
ATOM     37  C   UNL     1      10.978  14.656  25.934  0.00  0.00    +0.008 A 
ATOM     38  C   UNL     1      12.201  14.470  26.540  0.00  0.00    +0.045 A 
ENDBRANCH  28  33
ENDBRANCH  25  28
ENDBRANCH  10  25
ENDBRANCH  19  22
TORSDOF 9
ENDMDL
MODEL 10
REMARK VINA RESULT:      -6.6     13.573     17.911
REMARK  Name = 11880086
REMARK  10 active torsions:
REMARK  status: ('A' for Active; 'I' for Inactive)
REMARK    1  A    between atoms: N_9  and  C_17
REMARK    2  A    between atoms: N_10  and  C_25
REMARK    3  A    between atoms: C_19  and  C_22
REMARK    4  A    between atoms: C_23  and  C_27
REMARK    5  A    between atoms: C_24  and  C_29
REMARK    6  A    between atoms: C_25  and  C_28
REMARK    7  A    between atoms: C_25  and  C_30
REMARK    8  A    between atoms: C_26  and  C_32
REMARK    9  A    between atoms: C_28  and  C_33
REMARK   10  A    between atoms: C_34  and  C_36
REMARK                            x       y       z     vdW  Elec       q    Type
REMARK                         _______ _______ _______ _____ _____    ______ ____
ROOT
ATOM      4  O   UNL     1      14.353  10.898   2.250  0.00  0.00    -0.268 OA
ATOM      8  N   UNL     1      13.582   8.729   2.615  0.00  0.00    -0.285 N 
ATOM     17  C   UNL     1      11.530   6.983   3.738  0.00  0.00    +0.113 C 
ATOM     18  C   UNL     1      12.998   6.529   3.669  0.00  0.00    +0.059 C 
ATOM     19  C   UNL     1      13.808   7.272   2.603  0.00  0.00    +0.164 C 
ATOM     20  C   UNL     1      11.441   8.511   3.845  0.00  0.00    +0.046 C 
ATOM     21  C   UNL     1      12.185   9.175   2.693  0.00  0.00    +0.111 C 
ATOM     23  C   UNL     1      14.582   9.696   2.387  0.00  0.00    +0.266 C 
ENDROOT
BRANCH  23  27
ATOM      1  S   UNL     1      18.235   8.504   1.480  0.00  0.00    -0.080 S 
ATOM     13  N   UNL     1      16.636   8.897   3.473  0.00  0.00    -0.240 NA
ATOM     27  C   UNL     1      15.958   9.225   2.318  0.00  0.00    +0.133 A 
ATOM     31  C   UNL     1      16.656   9.078   1.140  0.00  0.00    +0.080 A 
ATOM     34  C   UNL     1      17.849   8.503   3.152  0.00  0.00    +0.076 A 
ATOM     36  C   UNL     1      18.873   8.070   4.127  0.00  0.00    +0.073 C 
ENDBRANCH  23  27
BRANCH  17   9
ATOM      9  N   UNL     1      10.783   6.298   4.802  0.00  0.00    -0.236 N 
ATOM     11  N   UNL     1       9.695   5.580   4.498  0.00  0.00    -0.064 NA
ATOM     12  N   UNL     1       9.229   5.080   5.637  0.00  0.00    -0.124 NA
ATOM     24  C   UNL     1      11.050   6.285   6.131  0.00  0.00    +0.156 A 
ATOM     26  C   UNL     1      10.048   5.503   6.648  0.00  0.00    +0.179 A 
BRANCH  24  29
ATOM      5  O   UNL     1      12.139   8.170   7.055  0.00  0.00    -0.269 OA
ATOM     14  N   UNL     1      13.242   6.178   7.157  0.00  0.00    -0.324 N 
ATOM     29  C   UNL     1      12.134   6.946   6.783  0.00  0.00    +0.262 C 
ATOM     40  H   UNL     1      14.034   6.600   7.628  0.00  0.00    +0.145 HD
ATOM     41  H   UNL     1      13.293   5.180   6.970  0.00  0.00    +0.145 HD
ENDBRANCH  24  29
BRANCH  26  32
ATOM      7  O   UNL     1       9.234   5.877   8.836  0.00  0.00    -0.269 OA
ATOM     16  N   UNL     1      10.315   3.907   8.450  0.00  0.00    -0.324 N 
ATOM     32  C   UNL     1       9.838   5.147   8.016  0.00  0.00    +0.264 C 
ATOM     44  H   UNL     1      10.185   3.604   9.409  0.00  0.00    +0.145 HD
ATOM     45  H   UNL     1      10.802   3.270   7.827  0.00  0.00    +0.145 HD
ENDBRANCH  26  32
ENDBRANCH  17   9
BRANCH  19  22
ATOM      3  O   UNL     1      13.675   7.503   0.229  0.00  0.00    -0.274 OA
ATOM     10  N   UNL     1      12.977   5.510   1.206  0.00  0.00    -0.302 N 
ATOM     22  C   UNL     1      13.495   6.794   1.214  0.00  0.00    +0.234 C 
ATOM     39  H   UNL     1      12.876   5.005   2.082  0.00  0.00    +0.150 HD
BRANCH  10  25
ATOM     25  C   UNL     1      12.573   4.829  -0.002  0.00  0.00    +0.163 C 
BRANCH  25  30
ATOM      6  O   UNL     1      10.605   4.282   1.316  0.00  0.00    -0.274 OA
ATOM     15  N   UNL     1      10.508   4.020  -0.964  0.00  0.00    -0.328 N 
ATOM     30  C   UNL     1      11.147   4.342   0.215  0.00  0.00    +0.231 C 
ATOM     42  H   UNL     1       9.546   3.695  -0.962  0.00  0.00    +0.145 HD
ATOM     43  H   UNL     1      10.967   4.076  -1.868  0.00  0.00    +0.145 HD
ENDBRANCH  25  30
BRANCH  25  28
ATOM     28  C   UNL     1      13.495   3.651  -0.342  0.00  0.00    +0.074 C 
BRANCH  28  33
ATOM      2  S   UNL     1      14.678   4.693  -2.607  0.00  0.00    -0.102 S 
ATOM     33  C   UNL     1      14.769   4.096  -1.020  0.00  0.00    -0.008 A 
ATOM     35  C   UNL     1      16.027   4.080  -0.507  0.00  0.00    +0.011 A 
ATOM     37  C   UNL     1      16.970   4.579  -1.451  0.00  0.00    +0.008 A 
ATOM     38  C   UNL     1      16.371   4.948  -2.635  0.00  0.00    +0.045 A 
ENDBRANCH  28  33
ENDBRANCH  25  28
ENDBRANCH  10  25
ENDBRANCH  19  22
TORSDOF 9
ENDMDL
