MODEL 1
REMARK VINA RESULT:      -6.7      0.000      0.000
REMARK  Name = 40780575
REMARK  8 active torsions:
REMARK  status: ('A' for Active; 'I' for Inactive)
REMARK    1  A    between atoms: N_3  and  C_13
REMARK    2  A    between atoms: N_4  and  C_14
REMARK    3  A    between atoms: N_5  and  C_26
REMARK    4  A    between atoms: N_5  and  C_27
REMARK    5  A    between atoms: N_5  and  C_28
REMARK    6  A    between atoms: C_7  and  C_13
REMARK    7  A    between atoms: C_8  and  C_14
REMARK    8  A    between atoms: C_20  and  C_21
REMARK                            x       y       z     vdW  Elec       q    Type
REMARK                         _______ _______ _______ _____ _____    ______ ____
ROOT
ATOM      2  N   UNL     1      21.447   7.046  20.485  0.00  0.00    -0.298 NA
ATOM      6  C   UNL     1      21.763   6.147  22.906  0.00  0.00    -0.003 C 
ATOM      7  C   UNL     1      22.463   5.226  21.879  0.00  0.00    +0.020 C 
ATOM      8  C   UNL     1      20.128   6.938  21.165  0.00  0.00    +0.074 C 
ATOM      9  C   UNL     1      20.270   6.266  22.550  0.00  0.00    +0.024 C 
ATOM     10  C   UNL     1      22.121   5.726  20.457  0.00  0.00    +0.089 C 
ATOM     11  C   UNL     1      22.384   7.548  22.746  0.00  0.00    +0.019 C 
ATOM     12  C   UNL     1      22.291   7.979  21.271  0.00  0.00    +0.085 C 
ENDROOT
BRANCH   7  13
ATOM     13  C   UNL     1      22.113   3.751  22.057  0.00  0.00    +0.089 C 
BRANCH  13   3
ATOM      3  N   UNL     1      23.320   2.947  22.248  0.00  0.00    -0.302 NA
ATOM     15  C   UNL     1      23.592   2.137  21.053  0.00  0.00    +0.084 C 
ATOM     16  C   UNL     1      23.192   2.104  23.444  0.00  0.00    +0.084 C 
ATOM     17  C   UNL     1      24.880   1.327  21.216  0.00  0.00    +0.015 C 
ATOM     18  C   UNL     1      24.466   1.293  23.686  0.00  0.00    +0.015 C 
ATOM     19  C   UNL     1      24.831   0.455  22.466  0.00  0.00    +0.002 C 
ENDBRANCH  13   3
ENDBRANCH   7  13
BRANCH   8  14
ATOM     14  C   UNL     1      19.080   6.235  20.298  0.00  0.00    +0.123 C 
BRANCH  14   4
ATOM      1  O   UNL     1      16.658   5.738  18.839  0.00  0.00    -0.270 OA
ATOM      4  N   UNL     1      17.738   6.639  20.682  0.00  0.00    -0.310 N 
ATOM     20  C   UNL     1      16.633   6.349  19.904  0.00  0.00    +0.244 C 
ATOM     29  H   UNL     1      17.640   7.102  21.578  0.00  0.00    +0.149 HD
BRANCH  20  21
ATOM     21  C   UNL     1      15.336   6.854  20.421  0.00  0.00    +0.037 A 
ATOM     22  C   UNL     1      15.298   7.613  21.590  0.00  0.00    +0.015 A 
ATOM     23  C   UNL     1      14.153   6.568  19.736  0.00  0.00    +0.015 A 
ATOM     24  C   UNL     1      14.079   8.087  22.076  0.00  0.00    +0.024 A 
ATOM     25  C   UNL     1      12.935   7.042  20.222  0.00  0.00    +0.024 A 
ATOM     26  C   UNL     1      12.897   7.801  21.391  0.00  0.00    +0.029 A 
BRANCH  26   5
ATOM      5  N   UNL     1      11.665   8.280  21.881  0.00  0.00    -0.336 N 
ATOM     27  C   UNL     1      10.509   7.407  21.943  0.00  0.00    +0.129 C 
ATOM     28  C   UNL     1      11.540   9.650  22.338  0.00  0.00    +0.129 C 
ENDBRANCH  26   5
ENDBRANCH  20  21
ENDBRANCH  14   4
ENDBRANCH   8  14
TORSDOF 6
ENDMDL
MODEL 2
REMARK VINA RESULT:      -6.5     31.132     34.100
REMARK  Name = 40780575
REMARK  8 active torsions:
REMARK  status: ('A' for Active; 'I' for Inactive)
REMARK    1  A    between atoms: N_3  and  C_13
REMARK    2  A    between atoms: N_4  and  C_14
REMARK    3  A    between atoms: N_5  and  C_26
REMARK    4  A    between atoms: N_5  and  C_27
REMARK    5  A    between atoms: N_5  and  C_28
REMARK    6  A    between atoms: C_7  and  C_13
REMARK    7  A    between atoms: C_8  and  C_14
REMARK    8  A    between atoms: C_20  and  C_21
REMARK                            x       y       z     vdW  Elec       q    Type
REMARK                         _______ _______ _______ _____ _____    ______ ____
ROOT
ATOM      2  N   UNL     1     -12.580   9.903  33.699  0.00  0.00    -0.298 NA
ATOM      6  C   UNL     1     -11.125   9.299  31.629  0.00  0.00    -0.003 C 
ATOM      7  C   UNL     1     -12.047  10.502  31.324  0.00  0.00    +0.020 C 
ATOM      8  C   UNL     1     -12.716   8.455  33.385  0.00  0.00    +0.074 C 
ATOM      9  C   UNL     1     -11.981   8.100  32.073  0.00  0.00    +0.024 C 
ATOM     10  C   UNL     1     -12.986  10.722  32.532  0.00  0.00    +0.089 C 
ATOM     11  C   UNL     1     -10.248   9.702  32.830  0.00  0.00    +0.019 C 
ATOM     12  C   UNL     1     -11.151  10.177  33.982  0.00  0.00    +0.085 C 
ENDROOT
BRANCH   7  13
ATOM     13  C   UNL     1     -12.831  10.345  30.023  0.00  0.00    +0.089 C 
BRANCH  13   3
ATOM      3  N   UNL     1     -12.044  10.806  28.880  0.00  0.00    -0.302 NA
ATOM     15  C   UNL     1     -12.897  11.524  27.924  0.00  0.00    +0.084 C 
ATOM     16  C   UNL     1     -11.360   9.675  28.237  0.00  0.00    +0.084 C 
ATOM     17  C   UNL     1     -12.080  12.056  26.745  0.00  0.00    +0.015 C 
ATOM     18  C   UNL     1     -10.493  10.147  27.070  0.00  0.00    +0.015 C 
ATOM     19  C   UNL     1     -11.310  10.937  26.054  0.00  0.00    +0.002 C 
ENDBRANCH  13   3
ENDBRANCH   7  13
BRANCH   8  14
ATOM     14  C   UNL     1     -14.176   7.996  33.360  0.00  0.00    +0.123 C 
BRANCH  14   4
ATOM      1  O   UNL     1     -13.983   5.331  34.412  0.00  0.00    -0.270 OA
ATOM      4  N   UNL     1     -14.316   6.757  32.614  0.00  0.00    -0.310 N 
ATOM     20  C   UNL     1     -14.204   5.519  33.218  0.00  0.00    +0.244 C 
ATOM     29  H   UNL     1     -14.552   6.841  31.632  0.00  0.00    +0.149 HD
BRANCH  20  21
ATOM     21  C   UNL     1     -14.346   4.350  32.313  0.00  0.00    +0.037 A 
ATOM     22  C   UNL     1     -13.663   3.166  32.592  0.00  0.00    +0.015 A 
ATOM     23  C   UNL     1     -15.161   4.436  31.184  0.00  0.00    +0.015 A 
ATOM     24  C   UNL     1     -13.794   2.068  31.742  0.00  0.00    +0.024 A 
ATOM     25  C   UNL     1     -15.292   3.338  30.334  0.00  0.00    +0.024 A 
ATOM     26  C   UNL     1     -14.610   2.154  30.612  0.00  0.00    +0.029 A 
BRANCH  26   5
ATOM      5  N   UNL     1     -14.744   1.045  29.753  0.00  0.00    -0.336 N 
ATOM     27  C   UNL     1     -15.786   1.016  28.745  0.00  0.00    +0.129 C 
ATOM     28  C   UNL     1     -13.834  -0.080  29.860  0.00  0.00    +0.129 C 
ENDBRANCH  26   5
ENDBRANCH  20  21
ENDBRANCH  14   4
ENDBRANCH   8  14
TORSDOF 6
ENDMDL
MODEL 3
REMARK VINA RESULT:      -6.5     17.963     21.299
REMARK  Name = 40780575
REMARK  8 active torsions:
REMARK  status: ('A' for Active; 'I' for Inactive)
REMARK    1  A    between atoms: N_3  and  C_13
REMARK    2  A    between atoms: N_4  and  C_14
REMARK    3  A    between atoms: N_5  and  C_26
REMARK    4  A    between atoms: N_5  and  C_27
REMARK    5  A    between atoms: N_5  and  C_28
REMARK    6  A    between atoms: C_7  and  C_13
REMARK    7  A    between atoms: C_8  and  C_14
REMARK    8  A    between atoms: C_20  and  C_21
REMARK                            x       y       z     vdW  Elec       q    Type
REMARK                         _______ _______ _______ _____ _____    ______ ____
ROOT
ATOM      2  N   UNL     1      10.192   6.977   7.284  0.00  0.00    -0.298 NA
ATOM      6  C   UNL     1       9.647   5.236   5.431  0.00  0.00    -0.003 C 
ATOM      7  C   UNL     1      10.962   5.985   5.114  0.00  0.00    +0.020 C 
ATOM      8  C   UNL     1       8.803   7.177   6.790  0.00  0.00    +0.074 C 
ATOM      9  C   UNL     1       8.504   6.255   5.587  0.00  0.00    +0.024 C 
ATOM     10  C   UNL     1      11.158   7.100   6.167  0.00  0.00    +0.089 C 
ATOM     11  C   UNL     1       9.839   4.553   6.799  0.00  0.00    +0.019 C 
ATOM     12  C   UNL     1      10.289   5.602   7.831  0.00  0.00    +0.085 C 
ENDROOT
BRANCH   7  13
ATOM     13  C   UNL     1      11.013   6.537   3.692  0.00  0.00    +0.089 C 
BRANCH  13   3
ATOM      3  N   UNL     1      10.905   5.460   2.709  0.00  0.00    -0.302 NA
ATOM     15  C   UNL     1      12.237   4.960   2.346  0.00  0.00    +0.084 C 
ATOM     16  C   UNL     1      10.168   5.919   1.523  0.00  0.00    +0.084 C 
ATOM     17  C   UNL     1      12.140   3.798   1.355  0.00  0.00    +0.015 C 
ATOM     18  C   UNL     1      10.003   4.790   0.506  0.00  0.00    +0.015 C 
ATOM     19  C   UNL     1      11.350   4.194   0.113  0.00  0.00    +0.002 C 
ENDBRANCH  13   3
ENDBRANCH   7  13
BRANCH   8  14
ATOM     14  C   UNL     1       8.502   8.643   6.471  0.00  0.00    +0.123 C 
BRANCH  14   4
ATOM      1  O   UNL     1       7.836  11.065   5.078  0.00  0.00    -0.270 OA
ATOM      4  N   UNL     1       7.715   8.756   5.254  0.00  0.00    -0.310 N 
ATOM     20  C   UNL     1       7.451   9.976   4.661  0.00  0.00    +0.244 C 
ATOM     29  H   UNL     1       7.410   7.889   4.827  0.00  0.00    +0.149 HD
BRANCH  20  21
ATOM     21  C   UNL     1       6.610   9.924   3.438  0.00  0.00    +0.037 A 
ATOM     22  C   UNL     1       7.155   9.478   2.235  0.00  0.00    +0.015 A 
ATOM     23  C   UNL     1       5.273  10.323   3.492  0.00  0.00    +0.015 A 
ATOM     24  C   UNL     1       6.367   9.431   1.085  0.00  0.00    +0.024 A 
ATOM     25  C   UNL     1       4.484  10.276   2.343  0.00  0.00    +0.024 A 
ATOM     26  C   UNL     1       5.030   9.829   1.140  0.00  0.00    +0.029 A 
BRANCH  26   5
ATOM      5  N   UNL     1       4.232   9.781  -0.021  0.00  0.00    -0.336 N 
ATOM     27  C   UNL     1       4.708   9.107  -1.213  0.00  0.00    +0.129 C 
ATOM     28  C   UNL     1       2.920  10.400  -0.036  0.00  0.00    +0.129 C 
ENDBRANCH  26   5
ENDBRANCH  20  21
ENDBRANCH  14   4
ENDBRANCH   8  14
TORSDOF 6
ENDMDL
MODEL 4
REMARK VINA RESULT:      -6.3     28.285     30.644
REMARK  Name = 40780575
REMARK  8 active torsions:
REMARK  status: ('A' for Active; 'I' for Inactive)
REMARK    1  A    between atoms: N_3  and  C_13
REMARK    2  A    between atoms: N_4  and  C_14
REMARK    3  A    between atoms: N_5  and  C_26
REMARK    4  A    between atoms: N_5  and  C_27
REMARK    5  A    between atoms: N_5  and  C_28
REMARK    6  A    between atoms: C_7  and  C_13
REMARK    7  A    between atoms: C_8  and  C_14
REMARK    8  A    between atoms: C_20  and  C_21
REMARK                            x       y       z     vdW  Elec       q    Type
REMARK                         _______ _______ _______ _____ _____    ______ ____
ROOT
ATOM      2  N   UNL     1      -1.675 -11.664  14.234  0.00  0.00    -0.298 NA
ATOM      6  C   UNL     1      -3.856 -12.479  13.073  0.00  0.00    -0.003 C 
ATOM      7  C   UNL     1      -3.308 -11.207  12.387  0.00  0.00    +0.020 C 
ATOM      8  C   UNL     1      -2.751 -11.850  15.244  0.00  0.00    +0.074 C 
ATOM      9  C   UNL     1      -4.097 -12.190  14.566  0.00  0.00    +0.024 C 
ATOM     10  C   UNL     1      -2.102 -10.688  13.202  0.00  0.00    +0.089 C 
ATOM     11  C   UNL     1      -2.747 -13.546  12.989  0.00  0.00    +0.019 C 
ATOM     12  C   UNL     1      -1.443 -12.969  13.568  0.00  0.00    +0.085 C 
ENDROOT
BRANCH   7  13
ATOM     13  C   UNL     1      -4.365 -10.123  12.194  0.00  0.00    +0.089 C 
BRANCH  13   3
ATOM      3  N   UNL     1      -4.940 -10.187  10.851  0.00  0.00    -0.302 NA
ATOM     15  C   UNL     1      -3.984 -10.784   9.910  0.00  0.00    +0.084 C 
ATOM     16  C   UNL     1      -5.359  -8.850  10.407  0.00  0.00    +0.084 C 
ATOM     17  C   UNL     1      -4.588 -10.904   8.510  0.00  0.00    +0.015 C 
ATOM     18  C   UNL     1      -6.008  -8.906   9.024  0.00  0.00    +0.015 C 
ATOM     19  C   UNL     1      -5.081  -9.554   8.001  0.00  0.00    +0.002 C 
ENDBRANCH  13   3
ENDBRANCH   7  13
BRANCH   8  14
ATOM     14  C   UNL     1      -2.878 -10.654  16.190  0.00  0.00    +0.123 C 
BRANCH  14   4
ATOM      1  O   UNL     1      -4.091 -11.550  18.634  0.00  0.00    -0.270 OA
ATOM      4  N   UNL     1      -4.260 -10.460  16.595  0.00  0.00    -0.310 N 
ATOM     20  C   UNL     1      -4.747 -10.934  17.799  0.00  0.00    +0.244 C 
ATOM     29  H   UNL     1      -4.844  -9.912  15.973  0.00  0.00    +0.149 HD
BRANCH  20  21
ATOM     21  C   UNL     1      -6.187 -10.678  18.053  0.00  0.00    +0.037 A 
ATOM     22  C   UNL     1      -6.832 -11.310  19.115  0.00  0.00    +0.015 A 
ATOM     23  C   UNL     1      -6.897  -9.803  17.227  0.00  0.00    +0.015 A 
ATOM     24  C   UNL     1      -8.185 -11.071  19.353  0.00  0.00    +0.024 A 
ATOM     25  C   UNL     1      -8.250  -9.564  17.466  0.00  0.00    +0.024 A 
ATOM     26  C   UNL     1      -8.895 -10.197  18.528  0.00  0.00    +0.029 A 
BRANCH  26   5
ATOM      5  N   UNL     1     -10.262  -9.954  18.768  0.00  0.00    -0.336 N 
ATOM     27  C   UNL     1     -10.892 -10.435  19.982  0.00  0.00    +0.129 C 
ATOM     28  C   UNL     1     -11.056  -9.212  17.807  0.00  0.00    +0.129 C 
ENDBRANCH  26   5
ENDBRANCH  20  21
ENDBRANCH  14   4
ENDBRANCH   8  14
TORSDOF 6
ENDMDL
MODEL 5
REMARK VINA RESULT:      -6.2     17.054     20.401
REMARK  Name = 40780575
REMARK  8 active torsions:
REMARK  status: ('A' for Active; 'I' for Inactive)
REMARK    1  A    between atoms: N_3  and  C_13
REMARK    2  A    between atoms: N_4  and  C_14
REMARK    3  A    between atoms: N_5  and  C_26
REMARK    4  A    between atoms: N_5  and  C_27
REMARK    5  A    between atoms: N_5  and  C_28
REMARK    6  A    between atoms: C_7  and  C_13
REMARK    7  A    between atoms: C_8  and  C_14
REMARK    8  A    between atoms: C_20  and  C_21
REMARK                            x       y       z     vdW  Elec       q    Type
REMARK                         _______ _______ _______ _____ _____    ______ ____
ROOT
ATOM      2  N   UNL     1       9.040   8.259   6.892  0.00  0.00    -0.298 NA
ATOM      6  C   UNL     1       9.974   5.831   6.840  0.00  0.00    -0.003 C 
ATOM      7  C   UNL     1      11.098   6.861   6.583  0.00  0.00    +0.020 C 
ATOM      8  C   UNL     1       8.239   7.425   5.957  0.00  0.00    +0.074 C 
ATOM      9  C   UNL     1       8.861   6.020   5.793  0.00  0.00    +0.024 C 
ATOM     10  C   UNL     1      10.465   8.267   6.481  0.00  0.00    +0.089 C 
ATOM     11  C   UNL     1       9.366   6.167   8.216  0.00  0.00    +0.019 C 
ATOM     12  C   UNL     1       8.951   7.648   8.240  0.00  0.00    +0.085 C 
ENDROOT
BRANCH   7  13
ATOM     13  C   UNL     1      11.945   6.534   5.355  0.00  0.00    +0.089 C 
BRANCH  13   3
ATOM      3  N   UNL     1      13.113   7.411   5.277  0.00  0.00    -0.302 NA
ATOM     15  C   UNL     1      13.728   7.331   3.946  0.00  0.00    +0.084 C 
ATOM     16  C   UNL     1      14.080   7.073   6.331  0.00  0.00    +0.084 C 
ATOM     17  C   UNL     1      14.922   8.280   3.831  0.00  0.00    +0.015 C 
ATOM     18  C   UNL     1      15.285   8.014   6.295  0.00  0.00    +0.015 C 
ATOM     19  C   UNL     1      15.951   8.011   4.923  0.00  0.00    +0.002 C 
ENDBRANCH  13   3
ENDBRANCH   7  13
BRANCH   8  14
ATOM     14  C   UNL     1       8.018   8.109   4.605  0.00  0.00    +0.123 C 
BRANCH  14   4
ATOM      1  O   UNL     1      10.275   8.713   2.937  0.00  0.00    -0.270 OA
ATOM      4  N   UNL     1       8.539   7.293   3.522  0.00  0.00    -0.310 N 
ATOM     20  C   UNL     1       9.637   7.677   2.775  0.00  0.00    +0.244 C 
ATOM     29  H   UNL     1       8.089   6.397   3.369  0.00  0.00    +0.149 HD
BRANCH  20  21
ATOM     21  C   UNL     1      10.028   6.746   1.686  0.00  0.00    +0.037 A 
ATOM     22  C   UNL     1      10.392   5.434   1.987  0.00  0.00    +0.015 A 
ATOM     23  C   UNL     1      10.032   7.185   0.361  0.00  0.00    +0.015 A 
ATOM     24  C   UNL     1      10.761   4.560   0.964  0.00  0.00    +0.024 A 
ATOM     25  C   UNL     1      10.401   6.311  -0.661  0.00  0.00    +0.024 A 
ATOM     26  C   UNL     1      10.764   4.999  -0.361  0.00  0.00    +0.029 A 
BRANCH  26   5
ATOM      5  N   UNL     1      11.137   4.116  -1.395  0.00  0.00    -0.336 N 
ATOM     27  C   UNL     1      10.405   4.099  -2.646  0.00  0.00    +0.129 C 
ATOM     28  C   UNL     1      12.262   3.217  -1.223  0.00  0.00    +0.129 C 
ENDBRANCH  26   5
ENDBRANCH  20  21
ENDBRANCH  14   4
ENDBRANCH   8  14
TORSDOF 6
ENDMDL
MODEL 6
REMARK VINA RESULT:      -6.2     28.763     30.784
REMARK  Name = 40780575
REMARK  8 active torsions:
REMARK  status: ('A' for Active; 'I' for Inactive)
REMARK    1  A    between atoms: N_3  and  C_13
REMARK    2  A    between atoms: N_4  and  C_14
REMARK    3  A    between atoms: N_5  and  C_26
REMARK    4  A    between atoms: N_5  and  C_27
REMARK    5  A    between atoms: N_5  and  C_28
REMARK    6  A    between atoms: C_7  and  C_13
REMARK    7  A    between atoms: C_8  and  C_14
REMARK    8  A    between atoms: C_20  and  C_21
REMARK                            x       y       z     vdW  Elec       q    Type
REMARK                         _______ _______ _______ _____ _____    ______ ____
ROOT
ATOM      2  N   UNL     1      -4.775 -11.173  18.542  0.00  0.00    -0.298 NA
ATOM      6  C   UNL     1      -7.106 -11.470  17.425  0.00  0.00    -0.003 C 
ATOM      7  C   UNL     1      -6.461 -12.842  17.731  0.00  0.00    +0.020 C 
ATOM      8  C   UNL     1      -4.845 -10.376  17.287  0.00  0.00    +0.074 C 
ATOM      9  C   UNL     1      -6.161 -10.651  16.527  0.00  0.00    +0.024 C 
ATOM     10  C   UNL     1      -5.027 -12.605  18.256  0.00  0.00    +0.089 C 
ATOM     11  C   UNL     1      -7.222 -10.721  18.767  0.00  0.00    +0.019 C 
ATOM     12  C   UNL     1      -5.843 -10.688  19.450  0.00  0.00    +0.085 C 
ENDROOT
BRANCH   7  13
ATOM     13  C   UNL     1      -6.474 -13.793  16.537  0.00  0.00    +0.089 C 
BRANCH  13   3
ATOM      3  N   UNL     1      -5.124 -14.261  16.226  0.00  0.00    -0.302 NA
ATOM     15  C   UNL     1      -4.755 -13.892  14.853  0.00  0.00    +0.084 C 
ATOM     16  C   UNL     1      -5.024 -15.712  16.432  0.00  0.00    +0.084 C 
ATOM     17  C   UNL     1      -3.326 -14.331  14.528  0.00  0.00    +0.015 C 
ATOM     18  C   UNL     1      -3.604 -16.211  16.160  0.00  0.00    +0.015 C 
ATOM     19  C   UNL     1      -3.139 -15.826  14.759  0.00  0.00    +0.002 C 
ENDBRANCH  13   3
ENDBRANCH   7  13
BRANCH   8  14
ATOM     14  C   UNL     1      -3.619 -10.584  16.394  0.00  0.00    +0.123 C 
BRANCH  14   4
ATOM      1  O   UNL     1      -1.840 -10.754  14.147  0.00  0.00    -0.270 OA
ATOM      4  N   UNL     1      -3.988 -10.529  14.990  0.00  0.00    -0.310 N 
ATOM     20  C   UNL     1      -3.049 -10.620  13.980  0.00  0.00    +0.244 C 
ATOM     29  H   UNL     1      -4.978 -10.472  14.781  0.00  0.00    +0.149 HD
BRANCH  20  21
ATOM     21  C   UNL     1      -3.583 -10.519  12.598  0.00  0.00    +0.037 A 
ATOM     22  C   UNL     1      -2.778 -10.024  11.573  0.00  0.00    +0.015 A 
ATOM     23  C   UNL     1      -4.892 -10.921  12.325  0.00  0.00    +0.015 A 
ATOM     24  C   UNL     1      -3.280  -9.927  10.275  0.00  0.00    +0.024 A 
ATOM     25  C   UNL     1      -5.394 -10.825  11.027  0.00  0.00    +0.024 A 
ATOM     26  C   UNL     1      -4.589 -10.329  10.002  0.00  0.00    +0.029 A 
BRANCH  26   5
ATOM      5  N   UNL     1      -5.096 -10.233   8.690  0.00  0.00    -0.336 N 
ATOM     27  C   UNL     1      -4.706 -11.195   7.678  0.00  0.00    +0.129 C 
ATOM     28  C   UNL     1      -6.023  -9.174   8.338  0.00  0.00    +0.129 C 
ENDBRANCH  26   5
ENDBRANCH  20  21
ENDBRANCH  14   4
ENDBRANCH   8  14
TORSDOF 6
ENDMDL
MODEL 7
REMARK VINA RESULT:      -6.1     28.640     31.326
REMARK  Name = 40780575
REMARK  8 active torsions:
REMARK  status: ('A' for Active; 'I' for Inactive)
REMARK    1  A    between atoms: N_3  and  C_13
REMARK    2  A    between atoms: N_4  and  C_14
REMARK    3  A    between atoms: N_5  and  C_26
REMARK    4  A    between atoms: N_5  and  C_27
REMARK    5  A    between atoms: N_5  and  C_28
REMARK    6  A    between atoms: C_7  and  C_13
REMARK    7  A    between atoms: C_8  and  C_14
REMARK    8  A    between atoms: C_20  and  C_21
REMARK                            x       y       z     vdW  Elec       q    Type
REMARK                         _______ _______ _______ _____ _____    ______ ____
ROOT
ATOM      2  N   UNL     1      -4.294 -12.013  17.863  0.00  0.00    -0.298 NA
ATOM      6  C   UNL     1      -6.314 -10.449  17.370  0.00  0.00    -0.003 C 
ATOM      7  C   UNL     1      -6.599 -11.889  16.883  0.00  0.00    +0.020 C 
ATOM      8  C   UNL     1      -3.834 -10.801  17.133  0.00  0.00    +0.074 C 
ATOM      9  C   UNL     1      -5.031  -9.928  16.697  0.00  0.00    +0.024 C 
ATOM     10  C   UNL     1      -5.318 -12.734  17.069  0.00  0.00    +0.089 C 
ATOM     11  C   UNL     1      -6.032 -10.536  18.882  0.00  0.00    +0.019 C 
ATOM     12  C   UNL     1      -4.921 -11.571  19.133  0.00  0.00    +0.085 C 
ENDROOT
BRANCH   7  13
ATOM     13  C   UNL     1      -7.109 -11.948  15.445  0.00  0.00    +0.089 C 
BRANCH  13   3
ATOM      3  N   UNL     1      -8.216 -11.014  15.245  0.00  0.00    -0.302 NA
ATOM     15  C   UNL     1      -9.447 -11.537  15.852  0.00  0.00    +0.084 C 
ATOM     16  C   UNL     1      -8.404 -10.741  13.813  0.00  0.00    +0.084 C 
ATOM     17  C   UNL     1     -10.604 -10.548  15.694  0.00  0.00    +0.015 C 
ATOM     18  C   UNL     1      -9.526  -9.726  13.589  0.00  0.00    +0.015 C 
ATOM     19  C   UNL     1     -10.830 -10.188  14.231  0.00  0.00    +0.002 C 
ENDBRANCH  13   3
ENDBRANCH   7  13
BRANCH   8  14
ATOM     14  C   UNL     1      -2.919 -11.142  15.954  0.00  0.00    +0.123 C 
BRANCH  14   4
ATOM      1  O   UNL     1      -1.652 -11.029  13.380  0.00  0.00    -0.270 OA
ATOM      4  N   UNL     1      -3.547 -10.783  14.693  0.00  0.00    -0.310 N 
ATOM     20  C   UNL     1      -2.844 -10.759  13.504  0.00  0.00    +0.244 C 
ATOM     29  H   UNL     1      -4.543 -10.600  14.716  0.00  0.00    +0.149 HD
BRANCH  20  21
ATOM     21  C   UNL     1      -3.622 -10.346  12.308  0.00  0.00    +0.037 A 
ATOM     22  C   UNL     1      -5.009 -10.226  12.386  0.00  0.00    +0.015 A 
ATOM     23  C   UNL     1      -2.965 -10.078  11.106  0.00  0.00    +0.015 A 
ATOM     24  C   UNL     1      -5.741  -9.839  11.263  0.00  0.00    +0.024 A 
ATOM     25  C   UNL     1      -3.696  -9.692   9.983  0.00  0.00    +0.024 A 
ATOM     26  C   UNL     1      -5.083  -9.572  10.061  0.00  0.00    +0.029 A 
BRANCH  26   5
ATOM      5  N   UNL     1      -5.822  -9.180   8.925  0.00  0.00    -0.336 N 
ATOM     27  C   UNL     1      -6.952  -8.283   9.057  0.00  0.00    +0.129 C 
ATOM     28  C   UNL     1      -5.455  -9.665   7.609  0.00  0.00    +0.129 C 
ENDBRANCH  26   5
ENDBRANCH  20  21
ENDBRANCH  14   4
ENDBRANCH   8  14
TORSDOF 6
ENDMDL
MODEL 8
REMARK VINA RESULT:      -6.1     30.694     32.799
REMARK  Name = 40780575
REMARK  8 active torsions:
REMARK  status: ('A' for Active; 'I' for Inactive)
REMARK    1  A    between atoms: N_3  and  C_13
REMARK    2  A    between atoms: N_4  and  C_14
REMARK    3  A    between atoms: N_5  and  C_26
REMARK    4  A    between atoms: N_5  and  C_27
REMARK    5  A    between atoms: N_5  and  C_28
REMARK    6  A    between atoms: C_7  and  C_13
REMARK    7  A    between atoms: C_8  and  C_14
REMARK    8  A    between atoms: C_20  and  C_21
REMARK                            x       y       z     vdW  Elec       q    Type
REMARK                         _______ _______ _______ _____ _____    ______ ____
ROOT
ATOM      2  N   UNL     1     -12.656   9.597  18.246  0.00  0.00    -0.298 NA
ATOM      6  C   UNL     1     -11.348   7.805  19.604  0.00  0.00    -0.003 C 
ATOM      7  C   UNL     1     -12.860   7.742  19.921  0.00  0.00    +0.020 C 
ATOM      8  C   UNL     1     -11.525  10.234  18.972  0.00  0.00    +0.074 C 
ATOM      9  C   UNL     1     -10.822   9.220  19.903  0.00  0.00    +0.024 C 
ATOM     10  C   UNL     1     -13.562   8.916  19.201  0.00  0.00    +0.089 C 
ATOM     11  C   UNL     1     -11.199   7.575  18.087  0.00  0.00    +0.019 C 
ATOM     12  C   UNL     1     -12.094   8.573  17.332  0.00  0.00    +0.085 C 
ENDROOT
BRANCH   7  13
ATOM     13  C   UNL     1     -13.162   7.737  21.417  0.00  0.00    +0.089 C 
BRANCH  13   3
ATOM      3  N   UNL     1     -14.503   7.215  21.677  0.00  0.00    -0.302 NA
ATOM     15  C   UNL     1     -14.996   7.691  22.977  0.00  0.00    +0.084 C 
ATOM     16  C   UNL     1     -14.505   5.747  21.613  0.00  0.00    +0.084 C 
ATOM     17  C   UNL     1     -16.419   7.195  23.243  0.00  0.00    +0.015 C 
ATOM     18  C   UNL     1     -15.911   5.188  21.835  0.00  0.00    +0.015 C 
ATOM     19  C   UNL     1     -16.502   5.676  23.153  0.00  0.00    +0.002 C 
ENDBRANCH  13   3
ENDBRANCH   7  13
BRANCH   8  14
ATOM     14  C   UNL     1     -11.950  11.496  19.726  0.00  0.00    +0.123 C 
BRANCH  14   4
ATOM      1  O   UNL     1     -14.219  11.713  21.473  0.00  0.00    -0.270 OA
ATOM      4  N   UNL     1     -11.966  11.262  21.160  0.00  0.00    -0.310 N 
ATOM     20  C   UNL     1     -13.117  11.394  21.913  0.00  0.00    +0.244 C 
ATOM     29  H   UNL     1     -11.100  10.944  21.579  0.00  0.00    +0.149 HD
BRANCH  20  21
ATOM     21  C   UNL     1     -12.962  11.147  23.369  0.00  0.00    +0.037 A 
ATOM     22  C   UNL     1     -11.711  11.282  23.970  0.00  0.00    +0.015 A 
ATOM     23  C   UNL     1     -14.069  10.778  24.136  0.00  0.00    +0.015 A 
ATOM     24  C   UNL     1     -11.565  11.048  25.338  0.00  0.00    +0.024 A 
ATOM     25  C   UNL     1     -13.922  10.544  25.503  0.00  0.00    +0.024 A 
ATOM     26  C   UNL     1     -12.671  10.679  26.104  0.00  0.00    +0.029 A 
BRANCH  26   5
ATOM      5  N   UNL     1     -12.524  10.443  27.486  0.00  0.00    -0.336 N 
ATOM     27  C   UNL     1     -13.627  10.686  28.395  0.00  0.00    +0.129 C 
ATOM     28  C   UNL     1     -11.269   9.946  28.016  0.00  0.00    +0.129 C 
ENDBRANCH  26   5
ENDBRANCH  20  21
ENDBRANCH  14   4
ENDBRANCH   8  14
TORSDOF 6
ENDMDL
MODEL 9
REMARK VINA RESULT:      -6.1     29.010     31.639
REMARK  Name = 40780575
REMARK  8 active torsions:
REMARK  status: ('A' for Active; 'I' for Inactive)
REMARK    1  A    between atoms: N_3  and  C_13
REMARK    2  A    between atoms: N_4  and  C_14
REMARK    3  A    between atoms: N_5  and  C_26
REMARK    4  A    between atoms: N_5  and  C_27
REMARK    5  A    between atoms: N_5  and  C_28
REMARK    6  A    between atoms: C_7  and  C_13
REMARK    7  A    between atoms: C_8  and  C_14
REMARK    8  A    between atoms: C_20  and  C_21
REMARK                            x       y       z     vdW  Elec       q    Type
REMARK                         _______ _______ _______ _____ _____    ______ ____
ROOT
ATOM      2  N   UNL     1      -5.518 -12.197  15.277  0.00  0.00    -0.298 NA
ATOM      6  C   UNL     1      -5.812 -11.833  17.836  0.00  0.00    -0.003 C 
ATOM      7  C   UNL     1      -6.871 -11.037  17.040  0.00  0.00    +0.020 C 
ATOM      8  C   UNL     1      -4.226 -11.780  15.884  0.00  0.00    +0.074 C 
ATOM      9  C   UNL     1      -4.405 -11.413  17.374  0.00  0.00    +0.024 C 
ATOM     10  C   UNL     1      -6.560 -11.174  15.532  0.00  0.00    +0.089 C 
ATOM     11  C   UNL     1      -5.992 -13.317  17.459  0.00  0.00    +0.019 C 
ATOM     12  C   UNL     1      -5.942 -13.461  15.927  0.00  0.00    +0.085 C 
ENDROOT
BRANCH   7  13
ATOM     13  C   UNL     1      -6.969  -9.573  17.464  0.00  0.00    +0.089 C 
BRANCH  13   3
ATOM      3  N   UNL     1      -8.340  -9.227  17.834  0.00  0.00    -0.302 NA
ATOM     15  C   UNL     1      -9.095 -10.433  18.202  0.00  0.00    +0.084 C 
ATOM     16  C   UNL     1      -9.000  -8.501  16.739  0.00  0.00    +0.084 C 
ATOM     17  C   UNL     1     -10.518 -10.082  18.639  0.00  0.00    +0.015 C 
ATOM     18  C   UNL     1     -10.419  -8.087  17.128  0.00  0.00    +0.015 C 
ATOM     19  C   UNL     1     -11.250  -9.291  17.561  0.00  0.00    +0.002 C 
ENDBRANCH  13   3
ENDBRANCH   7  13
BRANCH   8  14
ATOM     14  C   UNL     1      -3.548 -10.655  15.099  0.00  0.00    +0.123 C 
BRANCH  14   4
ATOM      1  O   UNL     1      -1.764 -10.239  12.888  0.00  0.00    -0.270 OA
ATOM      4  N   UNL     1      -3.883 -10.734  13.687  0.00  0.00    -0.310 N 
ATOM     20  C   UNL     1      -2.946 -10.515  12.696  0.00  0.00    +0.244 C 
ATOM     29  H   UNL     1      -4.832 -11.009  13.459  0.00  0.00    +0.149 HD
BRANCH  20  21
ATOM     21  C   UNL     1      -3.453 -10.605  11.303  0.00  0.00    +0.037 A 
ATOM     22  C   UNL     1      -3.695  -9.443  10.572  0.00  0.00    +0.015 A 
ATOM     23  C   UNL     1      -3.688 -11.855  10.726  0.00  0.00    +0.015 A 
ATOM     24  C   UNL     1      -4.173  -9.528   9.264  0.00  0.00    +0.024 A 
ATOM     25  C   UNL     1      -4.165 -11.939   9.418  0.00  0.00    +0.024 A 
ATOM     26  C   UNL     1      -4.408 -10.777   8.687  0.00  0.00    +0.029 A 
BRANCH  26   5
ATOM      5  N   UNL     1      -4.890 -10.863   7.365  0.00  0.00    -0.336 N 
ATOM     27  C   UNL     1      -4.463 -11.942   6.496  0.00  0.00    +0.129 C 
ATOM     28  C   UNL     1      -5.826  -9.878   6.860  0.00  0.00    +0.129 C 
ENDBRANCH  26   5
ENDBRANCH  20  21
ENDBRANCH  14   4
ENDBRANCH   8  14
TORSDOF 6
ENDMDL
MODEL 10
REMARK VINA RESULT:      -6.0     28.375     30.821
REMARK  Name = 40780575
REMARK  8 active torsions:
REMARK  status: ('A' for Active; 'I' for Inactive)
REMARK    1  A    between atoms: N_3  and  C_13
REMARK    2  A    between atoms: N_4  and  C_14
REMARK    3  A    between atoms: N_5  and  C_26
REMARK    4  A    between atoms: N_5  and  C_27
REMARK    5  A    between atoms: N_5  and  C_28
REMARK    6  A    between atoms: C_7  and  C_13
REMARK    7  A    between atoms: C_8  and  C_14
REMARK    8  A    between atoms: C_20  and  C_21
REMARK                            x       y       z     vdW  Elec       q    Type
REMARK                         _______ _______ _______ _____ _____    ______ ____
ROOT
ATOM      2  N   UNL     1      -2.020 -11.336  14.670  0.00  0.00    -0.298 NA
ATOM      6  C   UNL     1      -3.869 -12.344  13.142  0.00  0.00    -0.003 C 
ATOM      7  C   UNL     1      -3.365 -10.993  12.583  0.00  0.00    +0.020 C 
ATOM      8  C   UNL     1      -3.220 -11.679  15.481  0.00  0.00    +0.074 C 
ATOM      9  C   UNL     1      -4.387 -12.140  14.578  0.00  0.00    +0.024 C 
ATOM     10  C   UNL     1      -2.380 -10.376  13.600  0.00  0.00    +0.089 C 
ATOM     11  C   UNL     1      -2.646 -13.277  13.228  0.00  0.00    +0.019 C 
ATOM     12  C   UNL     1      -1.531 -12.581  14.029  0.00  0.00    +0.085 C 
ENDROOT
BRANCH   7  13
ATOM     13  C   UNL     1      -4.495 -10.027  12.234  0.00  0.00    +0.089 C 
BRANCH  13   3
ATOM      3  N   UNL     1      -4.991 -10.270  10.880  0.00  0.00    -0.302 NA
ATOM     15  C   UNL     1      -3.886 -10.642   9.986  0.00  0.00    +0.084 C 
ATOM     16  C   UNL     1      -5.709  -9.091  10.377  0.00  0.00    +0.084 C 
ATOM     17  C   UNL     1      -4.396 -10.948   8.577  0.00  0.00    +0.015 C 
ATOM     18  C   UNL     1      -6.278  -9.346   8.980  0.00  0.00    +0.015 C 
ATOM     19  C   UNL     1      -5.186  -9.777   8.006  0.00  0.00    +0.002 C 
ENDBRANCH  13   3
ENDBRANCH   7  13
BRANCH   8  14
ATOM     14  C   UNL     1      -3.640 -10.541  16.414  0.00  0.00    +0.123 C 
BRANCH  14   4
ATOM      1  O   UNL     1      -5.996 -10.667  18.051  0.00  0.00    -0.270 OA
ATOM      4  N   UNL     1      -4.964 -10.050  16.068  0.00  0.00    -0.310 N 
ATOM     20  C   UNL     1      -6.036 -10.161  16.932  0.00  0.00    +0.244 C 
ATOM     29  H   UNL     1      -5.054  -9.574  15.178  0.00  0.00    +0.149 HD
BRANCH  20  21
ATOM     21  C   UNL     1      -7.328  -9.636  16.420  0.00  0.00    +0.037 A 
ATOM     22  C   UNL     1      -7.721  -9.908  15.110  0.00  0.00    +0.015 A 
ATOM     23  C   UNL     1      -8.148  -8.870  17.250  0.00  0.00    +0.015 A 
ATOM     24  C   UNL     1      -8.934  -9.414  14.628  0.00  0.00    +0.024 A 
ATOM     25  C   UNL     1      -9.360  -8.376  16.768  0.00  0.00    +0.024 A 
ATOM     26  C   UNL     1      -9.754  -8.648  15.458  0.00  0.00    +0.029 A 
BRANCH  26   5
ATOM      5  N   UNL     1     -10.979  -8.149  14.972  0.00  0.00    -0.336 N 
ATOM     27  C   UNL     1     -11.357  -6.770  15.209  0.00  0.00    +0.129 C 
ATOM     28  C   UNL     1     -11.875  -9.007  14.222  0.00  0.00    +0.129 C 
ENDBRANCH  26   5
ENDBRANCH  20  21
ENDBRANCH  14   4
ENDBRANCH   8  14
TORSDOF 6
ENDMDL
