MODEL 1
REMARK VINA RESULT:      -7.1      0.000      0.000
REMARK  Name = 51137549
REMARK  9 active torsions:
REMARK  status: ('A' for Active; 'I' for Inactive)
REMARK    1  A    between atoms: O_5  and  C_21
REMARK    2  A    between atoms: O_5  and  C_29
REMARK    3  A    between atoms: N_6  and  C_14
REMARK    4  A    between atoms: N_9  and  C_26
REMARK    5  A    between atoms: N_9  and  C_30
REMARK    6  A    between atoms: N_9  and  C_31
REMARK    7  A    between atoms: C_10  and  C_15
REMARK    8  A    between atoms: C_14  and  C_16
REMARK    9  A    between atoms: C_18  and  C_20
REMARK                            x       y       z     vdW  Elec       q    Type
REMARK                         _______ _______ _______ _____ _____    ______ ____
ROOT
ATOM      6  N   UNL     1      10.650   5.388   3.807  0.00  0.00    -0.297 NA
ATOM     10  C   UNL     1      12.112   4.355   2.293  0.00  0.00    +0.092 C 
ATOM     11  C   UNL     1      12.558   5.809   2.530  0.00  0.00    +0.029 C 
ATOM     12  C   UNL     1      10.676   4.297   2.831  0.00  0.00    +0.097 C 
ATOM     13  C   UNL     1      11.351   6.494   3.156  0.00  0.00    +0.085 C 
ENDROOT
BRANCH  10  15
ATOM      4  O   UNL     1      11.264   4.303  -0.003  0.00  0.00    -0.420 OA
ATOM      7  N   UNL     1      13.128   3.105   0.308  0.00  0.00    -0.112 NA
ATOM      8  N   UNL     1      12.763   2.989  -1.020  0.00  0.00    -0.107 NA
ATOM     15  C   UNL     1      12.226   3.881   0.862  0.00  0.00    +0.222 A 
ATOM     18  C   UNL     1      11.670   3.704  -1.156  0.00  0.00    +0.248 A 
BRANCH  18  20
ATOM     20  C   UNL     1      10.854   3.947  -2.311  0.00  0.00    +0.039 A 
ATOM     24  C   UNL     1      10.278   5.202  -2.507  0.00  0.00    +0.015 A 
ATOM     25  C   UNL     1      10.638   2.927  -3.238  0.00  0.00    +0.015 A 
ATOM     26  C   UNL     1       9.269   4.417  -4.557  0.00  0.00    +0.029 A 
ATOM     27  C   UNL     1       9.484   5.437  -3.630  0.00  0.00    +0.024 A 
ATOM     28  C   UNL     1       9.846   3.163  -4.361  0.00  0.00    +0.024 A 
BRANCH  26   9
ATOM      9  N   UNL     1       8.466   4.655  -5.692  0.00  0.00    -0.336 N 
ATOM     30  C   UNL     1       8.767   4.007  -6.954  0.00  0.00    +0.129 C 
ATOM     31  C   UNL     1       7.326   5.546  -5.611  0.00  0.00    +0.129 C 
ENDBRANCH  26   9
ENDBRANCH  18  20
ENDBRANCH  10  15
BRANCH   6  14
ATOM     14  C   UNL     1       9.295   5.746   4.202  0.00  0.00    +0.119 C 
BRANCH  14  16
ATOM     16  C   UNL     1       9.252   6.327   5.591  0.00  0.00    -0.030 A 
ATOM     17  C   UNL     1       9.806   5.622   6.659  0.00  0.00    +0.051 A 
ATOM     19  C   UNL     1       8.659   7.571   5.807  0.00  0.00    +0.005 A 
ATOM     21  C   UNL     1       9.766   6.161   7.946  0.00  0.00    +0.130 A 
ATOM     22  C   UNL     1       8.617   8.109   7.094  0.00  0.00    +0.004 A 
ATOM     23  C   UNL     1       9.171   7.404   8.163  0.00  0.00    +0.046 A 
BRANCH  21   5
ATOM      5  O   UNL     1      10.306   5.474   8.988  0.00  0.00    -0.406 OA
BRANCH   5  29
ATOM      1  F   UNL     1       9.142   3.539   8.975  0.00  0.00    -0.133 F 
ATOM      2  F   UNL     1      10.083   4.159  10.847  0.00  0.00    -0.133 F 
ATOM      3  F   UNL     1       8.310   5.232  10.080  0.00  0.00    -0.133 F 
ATOM     29  C   UNL     1       9.458   4.610   9.738  0.00  0.00    +0.575 C 
ENDBRANCH   5  29
ENDBRANCH  21   5
ENDBRANCH  14  16
ENDBRANCH   6  14
TORSDOF 7
ENDMDL
MODEL 2
REMARK VINA RESULT:      -7.1     19.464     22.070
REMARK  Name = 51137549
REMARK  9 active torsions:
REMARK  status: ('A' for Active; 'I' for Inactive)
REMARK    1  A    between atoms: O_5  and  C_21
REMARK    2  A    between atoms: O_5  and  C_29
REMARK    3  A    between atoms: N_6  and  C_14
REMARK    4  A    between atoms: N_9  and  C_26
REMARK    5  A    between atoms: N_9  and  C_30
REMARK    6  A    between atoms: N_9  and  C_31
REMARK    7  A    between atoms: C_10  and  C_15
REMARK    8  A    between atoms: C_14  and  C_16
REMARK    9  A    between atoms: C_18  and  C_20
REMARK                            x       y       z     vdW  Elec       q    Type
REMARK                         _______ _______ _______ _____ _____    ______ ____
ROOT
ATOM      6  N   UNL     1      13.829   8.999  21.115  0.00  0.00    -0.297 NA
ATOM     10  C   UNL     1      15.036   7.697  19.584  0.00  0.00    +0.092 C 
ATOM     11  C   UNL     1      13.745   6.961  19.981  0.00  0.00    +0.029 C 
ATOM     12  C   UNL     1      15.201   8.792  20.645  0.00  0.00    +0.097 C 
ATOM     13  C   UNL     1      13.270   7.655  21.250  0.00  0.00    +0.085 C 
ENDROOT
BRANCH  10  15
ATOM      4  O   UNL     1      17.224   6.958  20.398  0.00  0.00    -0.420 OA
ATOM      7  N   UNL     1      16.538   5.906  18.547  0.00  0.00    -0.112 NA
ATOM      8  N   UNL     1      17.775   5.397  18.893  0.00  0.00    -0.107 NA
ATOM     15  C   UNL     1      16.256   6.813  19.452  0.00  0.00    +0.222 A 
ATOM     18  C   UNL     1      18.137   6.040  19.979  0.00  0.00    +0.248 A 
BRANCH  18  20
ATOM     20  C   UNL     1      19.324   5.925  20.777  0.00  0.00    +0.039 A 
ATOM     24  C   UNL     1      20.310   5.001  20.431  0.00  0.00    +0.015 A 
ATOM     25  C   UNL     1      19.491   6.738  21.898  0.00  0.00    +0.015 A 
ATOM     26  C   UNL     1      21.631   5.703  22.328  0.00  0.00    +0.029 A 
ATOM     27  C   UNL     1      21.464   4.890  21.207  0.00  0.00    +0.024 A 
ATOM     28  C   UNL     1      20.644   6.626  22.673  0.00  0.00    +0.024 A 
BRANCH  26   9
ATOM      9  N   UNL     1      22.797   5.590  23.113  0.00  0.00    -0.336 N 
ATOM     30  C   UNL     1      23.931   4.822  22.636  0.00  0.00    +0.129 C 
ATOM     31  C   UNL     1      22.880   6.245  24.402  0.00  0.00    +0.129 C 
ENDBRANCH  26   9
ENDBRANCH  18  20
ENDBRANCH  10  15
BRANCH   6  14
ATOM     14  C   UNL     1      13.778   9.749  22.362  0.00  0.00    +0.119 C 
BRANCH  14  16
ATOM     16  C   UNL     1      12.768  10.865  22.302  0.00  0.00    -0.030 A 
ATOM     17  C   UNL     1      11.971  11.144  23.412  0.00  0.00    +0.051 A 
ATOM     19  C   UNL     1      12.631  11.619  21.137  0.00  0.00    +0.005 A 
ATOM     21  C   UNL     1      11.036  12.177  23.357  0.00  0.00    +0.130 A 
ATOM     22  C   UNL     1      11.695  12.652  21.081  0.00  0.00    +0.004 A 
ATOM     23  C   UNL     1      10.897  12.932  22.191  0.00  0.00    +0.046 A 
BRANCH  21   5
ATOM      5  O   UNL     1      10.258  12.450  24.440  0.00  0.00    -0.406 OA
BRANCH   5  29
ATOM      1  F   UNL     1       9.793  14.653  24.606  0.00  0.00    -0.133 F 
ATOM      2  F   UNL     1      10.120  13.530  26.452  0.00  0.00    -0.133 F 
ATOM      3  F   UNL     1      11.814  13.989  25.109  0.00  0.00    -0.133 F 
ATOM     29  C   UNL     1      10.508  13.650  25.164  0.00  0.00    +0.575 C 
ENDBRANCH   5  29
ENDBRANCH  21   5
ENDBRANCH  14  16
ENDBRANCH   6  14
TORSDOF 7
ENDMDL
MODEL 3
REMARK VINA RESULT:      -7.1     23.647     27.519
REMARK  Name = 51137549
REMARK  9 active torsions:
REMARK  status: ('A' for Active; 'I' for Inactive)
REMARK    1  A    between atoms: O_5  and  C_21
REMARK    2  A    between atoms: O_5  and  C_29
REMARK    3  A    between atoms: N_6  and  C_14
REMARK    4  A    between atoms: N_9  and  C_26
REMARK    5  A    between atoms: N_9  and  C_30
REMARK    6  A    between atoms: N_9  and  C_31
REMARK    7  A    between atoms: C_10  and  C_15
REMARK    8  A    between atoms: C_14  and  C_16
REMARK    9  A    between atoms: C_18  and  C_20
REMARK                            x       y       z     vdW  Elec       q    Type
REMARK                         _______ _______ _______ _____ _____    ______ ____
ROOT
ATOM      6  N   UNL     1      -4.983 -11.312  17.453  0.00  0.00    -0.297 NA
ATOM     10  C   UNL     1      -6.785 -10.044  18.254  0.00  0.00    +0.092 C 
ATOM     11  C   UNL     1      -6.288 -10.989  19.361  0.00  0.00    +0.029 C 
ATOM     12  C   UNL     1      -6.164 -10.595  16.964  0.00  0.00    +0.097 C 
ATOM     13  C   UNL     1      -5.444 -12.031  18.640  0.00  0.00    +0.085 C 
ENDROOT
BRANCH  10  15
ATOM      4  O   UNL     1      -8.768  -8.970  17.299  0.00  0.00    -0.420 OA
ATOM      7  N   UNL     1      -9.228 -10.544  18.822  0.00  0.00    -0.112 NA
ATOM      8  N   UNL     1     -10.427 -10.025  18.369  0.00  0.00    -0.107 NA
ATOM     15  C   UNL     1      -8.288  -9.900  18.170  0.00  0.00    +0.222 A 
ATOM     18  C   UNL     1     -10.110  -9.110  17.482  0.00  0.00    +0.248 A 
BRANCH  18  20
ATOM     20  C   UNL     1     -10.944  -8.252  16.691  0.00  0.00    +0.039 A 
ATOM     24  C   UNL     1     -12.261  -8.622  16.413  0.00  0.00    +0.015 A 
ATOM     25  C   UNL     1     -10.439  -7.048  16.201  0.00  0.00    +0.015 A 
ATOM     26  C   UNL     1     -12.566  -6.582  15.154  0.00  0.00    +0.029 A 
ATOM     27  C   UNL     1     -13.071  -7.787  15.644  0.00  0.00    +0.024 A 
ATOM     28  C   UNL     1     -11.250  -6.214  15.432  0.00  0.00    +0.024 A 
BRANCH  26   9
ATOM      9  N   UNL     1     -13.386  -5.739  14.376  0.00  0.00    -0.336 N 
ATOM     30  C   UNL     1     -14.813  -5.979  14.289  0.00  0.00    +0.129 C 
ATOM     31  C   UNL     1     -12.814  -4.618  13.659  0.00  0.00    +0.129 C 
ENDBRANCH  26   9
ENDBRANCH  18  20
ENDBRANCH  10  15
BRANCH   6  14
ATOM     14  C   UNL     1      -4.421 -12.202  16.448  0.00  0.00    +0.119 C 
BRANCH  14  16
ATOM     16  C   UNL     1      -3.374 -11.514  15.613  0.00  0.00    -0.030 A 
ATOM     17  C   UNL     1      -3.322 -11.737  14.237  0.00  0.00    +0.051 A 
ATOM     19  C   UNL     1      -2.457 -10.652  16.216  0.00  0.00    +0.005 A 
ATOM     21  C   UNL     1      -2.353 -11.099  13.463  0.00  0.00    +0.130 A 
ATOM     22  C   UNL     1      -1.487 -10.015  15.442  0.00  0.00    +0.004 A 
ATOM     23  C   UNL     1      -1.435 -10.238  14.066  0.00  0.00    +0.046 A 
BRANCH  21   5
ATOM      5  O   UNL     1      -2.302 -11.316  12.121  0.00  0.00    -0.406 OA
BRANCH   5  29
ATOM      1  F   UNL     1      -3.851  -9.692  11.879  0.00  0.00    -0.133 F 
ATOM      2  F   UNL     1      -1.888  -9.385  10.967  0.00  0.00    -0.133 F 
ATOM      3  F   UNL     1      -3.299 -10.857  10.114  0.00  0.00    -0.133 F 
ATOM     29  C   UNL     1      -2.825 -10.314  11.256  0.00  0.00    +0.575 C 
ENDBRANCH   5  29
ENDBRANCH  21   5
ENDBRANCH  14  16
ENDBRANCH   6  14
TORSDOF 7
ENDMDL
MODEL 4
REMARK VINA RESULT:      -6.9     23.179     27.010
REMARK  Name = 51137549
REMARK  9 active torsions:
REMARK  status: ('A' for Active; 'I' for Inactive)
REMARK    1  A    between atoms: O_5  and  C_21
REMARK    2  A    between atoms: O_5  and  C_29
REMARK    3  A    between atoms: N_6  and  C_14
REMARK    4  A    between atoms: N_9  and  C_26
REMARK    5  A    between atoms: N_9  and  C_30
REMARK    6  A    between atoms: N_9  and  C_31
REMARK    7  A    between atoms: C_10  and  C_15
REMARK    8  A    between atoms: C_14  and  C_16
REMARK    9  A    between atoms: C_18  and  C_20
REMARK                            x       y       z     vdW  Elec       q    Type
REMARK                         _______ _______ _______ _____ _____    ______ ____
ROOT
ATOM      6  N   UNL     1      -4.106 -10.848  14.991  0.00  0.00    -0.297 NA
ATOM     10  C   UNL     1      -5.441  -9.799  16.608  0.00  0.00    +0.092 C 
ATOM     11  C   UNL     1      -4.478 -10.783  17.294  0.00  0.00    +0.029 C 
ATOM     12  C   UNL     1      -5.410 -10.195  15.126  0.00  0.00    +0.097 C 
ATOM     13  C   UNL     1      -3.982 -11.692  16.179  0.00  0.00    +0.085 C 
ENDROOT
BRANCH  10  15
ATOM      4  O   UNL     1      -7.766  -9.036  16.510  0.00  0.00    -0.420 OA
ATOM      7  N   UNL     1      -7.314 -10.361  18.255  0.00  0.00    -0.112 NA
ATOM      8  N   UNL     1      -8.648 -10.007  18.322  0.00  0.00    -0.107 NA
ATOM     15  C   UNL     1      -6.839  -9.773  17.182  0.00  0.00    +0.222 A 
ATOM     18  C   UNL     1      -8.868  -9.234  17.285  0.00  0.00    +0.248 A 
BRANCH  18  20
ATOM     20  C   UNL     1     -10.067  -8.578  16.849  0.00  0.00    +0.039 A 
ATOM     24  C   UNL     1      -9.988  -7.402  16.104  0.00  0.00    +0.015 A 
ATOM     25  C   UNL     1     -11.313  -9.118  17.171  0.00  0.00    +0.015 A 
ATOM     26  C   UNL     1     -12.401  -7.305  16.003  0.00  0.00    +0.029 A 
ATOM     27  C   UNL     1     -11.155  -6.765  15.681  0.00  0.00    +0.024 A 
ATOM     28  C   UNL     1     -12.479  -8.481  16.749  0.00  0.00    +0.024 A 
BRANCH  26   9
ATOM      9  N   UNL     1     -13.580  -6.660  15.577  0.00  0.00    -0.336 N 
ATOM     30  C   UNL     1     -13.543  -5.713  14.479  0.00  0.00    +0.129 C 
ATOM     31  C   UNL     1     -14.845  -6.941  16.224  0.00  0.00    +0.129 C 
ENDBRANCH  26   9
ENDBRANCH  18  20
ENDBRANCH  10  15
BRANCH   6  14
ATOM     14  C   UNL     1      -3.991 -11.608  13.755  0.00  0.00    +0.119 C 
BRANCH  14  16
ATOM     16  C   UNL     1      -3.400 -10.783  12.643  0.00  0.00    -0.030 A 
ATOM     17  C   UNL     1      -4.212 -10.325  11.606  0.00  0.00    +0.051 A 
ATOM     19  C   UNL     1      -2.039 -10.476  12.651  0.00  0.00    +0.005 A 
ATOM     21  C   UNL     1      -3.664  -9.561  10.575  0.00  0.00    +0.130 A 
ATOM     22  C   UNL     1      -1.491  -9.713  11.620  0.00  0.00    +0.004 A 
ATOM     23  C   UNL     1      -2.303  -9.255  10.582  0.00  0.00    +0.046 A 
BRANCH  21   5
ATOM      5  O   UNL     1      -4.456  -9.115   9.564  0.00  0.00    -0.406 OA
BRANCH   5  29
ATOM      1  F   UNL     1      -6.123 -10.505   8.940  0.00  0.00    -0.133 F 
ATOM      2  F   UNL     1      -5.001  -9.477   7.372  0.00  0.00    -0.133 F 
ATOM      3  F   UNL     1      -4.066 -11.115   8.524  0.00  0.00    -0.133 F 
ATOM     29  C   UNL     1      -4.898 -10.054   8.589  0.00  0.00    +0.575 C 
ENDBRANCH   5  29
ENDBRANCH  21   5
ENDBRANCH  14  16
ENDBRANCH   6  14
TORSDOF 7
ENDMDL
MODEL 5
REMARK VINA RESULT:      -6.9     23.167     27.225
REMARK  Name = 51137549
REMARK  9 active torsions:
REMARK  status: ('A' for Active; 'I' for Inactive)
REMARK    1  A    between atoms: O_5  and  C_21
REMARK    2  A    between atoms: O_5  and  C_29
REMARK    3  A    between atoms: N_6  and  C_14
REMARK    4  A    between atoms: N_9  and  C_26
REMARK    5  A    between atoms: N_9  and  C_30
REMARK    6  A    between atoms: N_9  and  C_31
REMARK    7  A    between atoms: C_10  and  C_15
REMARK    8  A    between atoms: C_14  and  C_16
REMARK    9  A    between atoms: C_18  and  C_20
REMARK                            x       y       z     vdW  Elec       q    Type
REMARK                         _______ _______ _______ _____ _____    ______ ____
ROOT
ATOM      6  N   UNL     1      -2.440 -10.949  13.834  0.00  0.00    -0.297 NA
ATOM     10  C   UNL     1      -3.170 -10.356  15.982  0.00  0.00    +0.092 C 
ATOM     11  C   UNL     1      -1.768 -10.985  16.069  0.00  0.00    +0.029 C 
ATOM     12  C   UNL     1      -3.679 -10.735  14.585  0.00  0.00    +0.097 C 
ATOM     13  C   UNL     1      -1.575 -11.703  14.740  0.00  0.00    +0.085 C 
ENDROOT
BRANCH  10  15
ATOM      4  O   UNL     1      -5.405 -10.333  16.981  0.00  0.00    -0.420 OA
ATOM      7  N   UNL     1      -3.892 -11.484  18.160  0.00  0.00    -0.112 NA
ATOM      8  N   UNL     1      -5.098 -11.552  18.832  0.00  0.00    -0.107 NA
ATOM     15  C   UNL     1      -4.118 -10.764  17.087  0.00  0.00    +0.222 A 
ATOM     18  C   UNL     1      -5.952 -10.867  18.108  0.00  0.00    +0.248 A 
BRANCH  18  20
ATOM     20  C   UNL     1      -7.346 -10.599  18.317  0.00  0.00    +0.039 A 
ATOM     24  C   UNL     1      -8.009  -9.678  17.506  0.00  0.00    +0.015 A 
ATOM     25  C   UNL     1      -8.038 -11.262  19.331  0.00  0.00    +0.015 A 
ATOM     26  C   UNL     1     -10.056 -10.080  18.724  0.00  0.00    +0.029 A 
ATOM     27  C   UNL     1      -9.364  -9.418  17.710  0.00  0.00    +0.024 A 
ATOM     28  C   UNL     1      -9.392 -11.002  19.535  0.00  0.00    +0.024 A 
BRANCH  26   9
ATOM      9  N   UNL     1     -11.426  -9.817  18.931  0.00  0.00    -0.336 N 
ATOM     30  C   UNL     1     -12.243  -9.294  17.854  0.00  0.00    +0.129 C 
ATOM     31  C   UNL     1     -12.036 -10.073  20.220  0.00  0.00    +0.129 C 
ENDBRANCH  26   9
ENDBRANCH  18  20
ENDBRANCH  10  15
BRANCH   6  14
ATOM     14  C   UNL     1      -2.668 -11.646  12.576  0.00  0.00    +0.119 C 
BRANCH  14  16
ATOM     16  C   UNL     1      -3.299 -10.747  11.545  0.00  0.00    -0.030 A 
ATOM     17  C   UNL     1      -4.657 -10.868  11.252  0.00  0.00    +0.051 A 
ATOM     19  C   UNL     1      -2.524  -9.795  10.883  0.00  0.00    +0.005 A 
ATOM     21  C   UNL     1      -5.241 -10.036  10.297  0.00  0.00    +0.130 A 
ATOM     22  C   UNL     1      -3.107  -8.964   9.927  0.00  0.00    +0.004 A 
ATOM     23  C   UNL     1      -4.466  -9.084   9.634  0.00  0.00    +0.046 A 
BRANCH  21   5
ATOM      5  O   UNL     1      -6.566 -10.153  10.011  0.00  0.00    -0.406 OA
BRANCH   5  29
ATOM      1  F   UNL     1      -8.618  -9.866  10.908  0.00  0.00    -0.133 F 
ATOM      2  F   UNL     1      -6.960  -8.717  11.748  0.00  0.00    -0.133 F 
ATOM      3  F   UNL     1      -7.763  -8.221   9.750  0.00  0.00    -0.133 F 
ATOM     29  C   UNL     1      -7.468  -9.224  10.604  0.00  0.00    +0.575 C 
ENDBRANCH   5  29
ENDBRANCH  21   5
ENDBRANCH  14  16
ENDBRANCH   6  14
TORSDOF 7
ENDMDL
MODEL 6
REMARK VINA RESULT:      -6.8     34.471     38.063
REMARK  Name = 51137549
REMARK  9 active torsions:
REMARK  status: ('A' for Active; 'I' for Inactive)
REMARK    1  A    between atoms: O_5  and  C_21
REMARK    2  A    between atoms: O_5  and  C_29
REMARK    3  A    between atoms: N_6  and  C_14
REMARK    4  A    between atoms: N_9  and  C_26
REMARK    5  A    between atoms: N_9  and  C_30
REMARK    6  A    between atoms: N_9  and  C_31
REMARK    7  A    between atoms: C_10  and  C_15
REMARK    8  A    between atoms: C_14  and  C_16
REMARK    9  A    between atoms: C_18  and  C_20
REMARK                            x       y       z     vdW  Elec       q    Type
REMARK                         _______ _______ _______ _____ _____    ______ ____
ROOT
ATOM      6  N   UNL     1     -11.783   9.510  33.411  0.00  0.00    -0.297 NA
ATOM     10  C   UNL     1     -13.399   8.032  34.248  0.00  0.00    +0.092 C 
ATOM     11  C   UNL     1     -12.588   8.622  35.414  0.00  0.00    +0.029 C 
ATOM     12  C   UNL     1     -12.565   8.342  32.998  0.00  0.00    +0.097 C 
ATOM     13  C   UNL     1     -11.337   9.204  34.769  0.00  0.00    +0.085 C 
ENDROOT
BRANCH  10  15
ATOM      4  O   UNL     1     -13.827   5.845  33.233  0.00  0.00    -0.420 OA
ATOM      7  N   UNL     1     -13.951   5.853  35.466  0.00  0.00    -0.112 NA
ATOM      8  N   UNL     1     -14.211   4.568  35.029  0.00  0.00    -0.107 NA
ATOM     15  C   UNL     1     -13.732   6.563  34.385  0.00  0.00    +0.222 A 
ATOM     18  C   UNL     1     -14.128   4.610  33.720  0.00  0.00    +0.248 A 
BRANCH  18  20
ATOM     20  C   UNL     1     -14.303   3.575  32.742  0.00  0.00    +0.039 A 
ATOM     24  C   UNL     1     -14.124   3.857  31.388  0.00  0.00    +0.015 A 
ATOM     25  C   UNL     1     -14.651   2.286  33.147  0.00  0.00    +0.015 A 
ATOM     26  C   UNL     1     -14.643   1.560  30.843  0.00  0.00    +0.029 A 
ATOM     27  C   UNL     1     -14.295   2.849  30.438  0.00  0.00    +0.024 A 
ATOM     28  C   UNL     1     -14.821   1.279  32.197  0.00  0.00    +0.024 A 
BRANCH  26   9
ATOM      9  N   UNL     1     -14.815   0.542  29.882  0.00  0.00    -0.336 N 
ATOM     30  C   UNL     1     -15.939   0.580  28.966  0.00  0.00    +0.129 C 
ATOM     31  C   UNL     1     -13.868  -0.551  29.793  0.00  0.00    +0.129 C 
ENDBRANCH  26   9
ENDBRANCH  18  20
ENDBRANCH  10  15
BRANCH   6  14
ATOM     14  C   UNL     1     -10.672   9.780  32.510  0.00  0.00    +0.119 C 
BRANCH  14  16
ATOM     16  C   UNL     1     -11.070  10.711  31.394  0.00  0.00    -0.030 A 
ATOM     17  C   UNL     1     -11.612  10.196  30.217  0.00  0.00    +0.051 A 
ATOM     19  C   UNL     1     -10.895  12.087  31.540  0.00  0.00    +0.005 A 
ATOM     21  C   UNL     1     -11.980  11.059  29.184  0.00  0.00    +0.130 A 
ATOM     22  C   UNL     1     -11.262  12.949  30.506  0.00  0.00    +0.004 A 
ATOM     23  C   UNL     1     -11.805  12.435  29.328  0.00  0.00    +0.046 A 
BRANCH  21   5
ATOM      5  O   UNL     1     -12.509  10.557  28.035  0.00  0.00    -0.406 OA
BRANCH   5  29
ATOM      1  F   UNL     1     -10.835  11.315  26.723  0.00  0.00    -0.133 F 
ATOM      2  F   UNL     1     -10.824   9.203  27.287  0.00  0.00    -0.133 F 
ATOM      3  F   UNL     1     -12.306   9.964  25.835  0.00  0.00    -0.133 F 
ATOM     29  C   UNL     1     -11.624  10.243  26.965  0.00  0.00    +0.575 C 
ENDBRANCH   5  29
ENDBRANCH  21   5
ENDBRANCH  14  16
ENDBRANCH   6  14
TORSDOF 7
ENDMDL
MODEL 7
REMARK VINA RESULT:      -6.8     19.567     22.497
REMARK  Name = 51137549
REMARK  9 active torsions:
REMARK  status: ('A' for Active; 'I' for Inactive)
REMARK    1  A    between atoms: O_5  and  C_21
REMARK    2  A    between atoms: O_5  and  C_29
REMARK    3  A    between atoms: N_6  and  C_14
REMARK    4  A    between atoms: N_9  and  C_26
REMARK    5  A    between atoms: N_9  and  C_30
REMARK    6  A    between atoms: N_9  and  C_31
REMARK    7  A    between atoms: C_10  and  C_15
REMARK    8  A    between atoms: C_14  and  C_16
REMARK    9  A    between atoms: C_18  and  C_20
REMARK                            x       y       z     vdW  Elec       q    Type
REMARK                         _______ _______ _______ _____ _____    ______ ____
ROOT
ATOM      6  N   UNL     1      17.020   7.448  20.840  0.00  0.00    -0.297 NA
ATOM     10  C   UNL     1      19.015   6.579  21.714  0.00  0.00    +0.092 C 
ATOM     11  C   UNL     1      18.971   8.099  21.945  0.00  0.00    +0.029 C 
ATOM     12  C   UNL     1      17.931   6.314  20.662  0.00  0.00    +0.097 C 
ATOM     13  C   UNL     1      17.893   8.611  20.998  0.00  0.00    +0.085 C 
ENDROOT
BRANCH  10  15
ATOM      4  O   UNL     1      20.813   4.940  21.989  0.00  0.00    -0.420 OA
ATOM      7  N   UNL     1      21.207   6.467  20.402  0.00  0.00    -0.112 NA
ATOM      8  N   UNL     1      22.292   5.612  20.450  0.00  0.00    -0.107 NA
ATOM     15  C   UNL     1      20.369   6.037  21.316  0.00  0.00    +0.222 A 
ATOM     18  C   UNL     1      22.019   4.737  21.390  0.00  0.00    +0.248 A 
BRANCH  18  20
ATOM     20  C   UNL     1      22.781   3.622  21.874  0.00  0.00    +0.039 A 
ATOM     24  C   UNL     1      22.651   3.211  23.200  0.00  0.00    +0.015 A 
ATOM     25  C   UNL     1      23.651   2.949  21.016  0.00  0.00    +0.015 A 
ATOM     26  C   UNL     1      24.262   1.453  22.812  0.00  0.00    +0.029 A 
ATOM     27  C   UNL     1      23.392   2.127  23.670  0.00  0.00    +0.024 A 
ATOM     28  C   UNL     1      24.392   1.865  21.486  0.00  0.00    +0.024 A 
BRANCH  26   9
ATOM      9  N   UNL     1      25.012   0.357  23.287  0.00  0.00    -0.336 N 
ATOM     30  C   UNL     1      25.964  -0.311  22.422  0.00  0.00    +0.129 C 
ATOM     31  C   UNL     1      24.847  -0.110  24.649  0.00  0.00    +0.129 C 
ENDBRANCH  26   9
ENDBRANCH  18  20
ENDBRANCH  10  15
BRANCH   6  14
ATOM     14  C   UNL     1      16.095   7.596  19.726  0.00  0.00    +0.119 C 
BRANCH  14  16
ATOM     16  C   UNL     1      14.904   8.441  20.096  0.00  0.00    -0.030 A 
ATOM     17  C   UNL     1      13.968   7.962  21.013  0.00  0.00    +0.051 A 
ATOM     19  C   UNL     1      14.739   9.701  19.522  0.00  0.00    +0.005 A 
ATOM     21  C   UNL     1      12.865   8.744  21.355  0.00  0.00    +0.130 A 
ATOM     22  C   UNL     1      13.635  10.483  19.864  0.00  0.00    +0.004 A 
ATOM     23  C   UNL     1      12.698  10.005  20.781  0.00  0.00    +0.046 A 
BRANCH  21   5
ATOM      5  O   UNL     1      11.952   8.278  22.249  0.00  0.00    -0.406 OA
BRANCH   5  29
ATOM      1  F   UNL     1       9.843   7.547  22.592  0.00  0.00    -0.133 F 
ATOM      2  F   UNL     1      10.523   7.795  20.530  0.00  0.00    -0.133 F 
ATOM      3  F   UNL     1      11.298   6.138  21.770  0.00  0.00    -0.133 F 
ATOM     29  C   UNL     1      10.912   7.432  21.771  0.00  0.00    +0.575 C 
ENDBRANCH   5  29
ENDBRANCH  21   5
ENDBRANCH  14  16
ENDBRANCH   6  14
TORSDOF 7
ENDMDL
MODEL 8
REMARK VINA RESULT:      -6.8     25.497     28.656
REMARK  Name = 51137549
REMARK  9 active torsions:
REMARK  status: ('A' for Active; 'I' for Inactive)
REMARK    1  A    between atoms: O_5  and  C_21
REMARK    2  A    between atoms: O_5  and  C_29
REMARK    3  A    between atoms: N_6  and  C_14
REMARK    4  A    between atoms: N_9  and  C_26
REMARK    5  A    between atoms: N_9  and  C_30
REMARK    6  A    between atoms: N_9  and  C_31
REMARK    7  A    between atoms: C_10  and  C_15
REMARK    8  A    between atoms: C_14  and  C_16
REMARK    9  A    between atoms: C_18  and  C_20
REMARK                            x       y       z     vdW  Elec       q    Type
REMARK                         _______ _______ _______ _____ _____    ______ ____
ROOT
ATOM      6  N   UNL     1     -13.031  -6.062  14.783  0.00  0.00    -0.297 NA
ATOM     10  C   UNL     1     -11.736  -6.796  16.595  0.00  0.00    +0.092 C 
ATOM     11  C   UNL     1     -10.837  -6.069  15.580  0.00  0.00    +0.029 C 
ATOM     12  C   UNL     1     -13.030  -7.092  15.825  0.00  0.00    +0.097 C 
ATOM     13  C   UNL     1     -11.653  -6.019  14.296  0.00  0.00    +0.085 C 
ENDROOT
BRANCH  10  15
ATOM      4  O   UNL     1      -9.781  -8.194  17.063  0.00  0.00    -0.420 OA
ATOM      7  N   UNL     1     -11.696  -8.998  17.893  0.00  0.00    -0.112 NA
ATOM      8  N   UNL     1     -10.683  -9.877  18.228  0.00  0.00    -0.107 NA
ATOM     15  C   UNL     1     -11.124  -8.032  17.215  0.00  0.00    +0.222 A 
ATOM     18  C   UNL     1      -9.583  -9.368  17.722  0.00  0.00    +0.248 A 
BRANCH  18  20
ATOM     20  C   UNL     1      -8.232  -9.849  17.758  0.00  0.00    +0.039 A 
ATOM     24  C   UNL     1      -7.831 -10.726  18.766  0.00  0.00    +0.015 A 
ATOM     25  C   UNL     1      -7.321  -9.440  16.785  0.00  0.00    +0.015 A 
ATOM     26  C   UNL     1      -5.605 -10.784  17.827  0.00  0.00    +0.029 A 
ATOM     27  C   UNL     1      -6.517 -11.193  18.800  0.00  0.00    +0.024 A 
ATOM     28  C   UNL     1      -6.008  -9.907  16.820  0.00  0.00    +0.024 A 
BRANCH  26   9
ATOM      9  N   UNL     1      -4.277 -11.256  17.862  0.00  0.00    -0.336 N 
ATOM     30  C   UNL     1      -3.387 -11.031  16.739  0.00  0.00    +0.129 C 
ATOM     31  C   UNL     1      -3.781 -11.965  19.024  0.00  0.00    +0.129 C 
ENDBRANCH  26   9
ENDBRANCH  18  20
ENDBRANCH  10  15
BRANCH   6  14
ATOM     14  C   UNL     1     -13.986  -6.348  13.722  0.00  0.00    +0.119 C 
BRANCH  14  16
ATOM     16  C   UNL     1     -14.099  -5.206  12.747  0.00  0.00    -0.030 A 
ATOM     17  C   UNL     1     -13.466  -5.283  11.507  0.00  0.00    +0.051 A 
ATOM     19  C   UNL     1     -14.836  -4.072  13.086  0.00  0.00    +0.005 A 
ATOM     21  C   UNL     1     -13.570  -4.225  10.604  0.00  0.00    +0.130 A 
ATOM     22  C   UNL     1     -14.940  -3.013  12.183  0.00  0.00    +0.004 A 
ATOM     23  C   UNL     1     -14.307  -3.090  10.942  0.00  0.00    +0.046 A 
BRANCH  21   5
ATOM      5  O   UNL     1     -12.953  -4.300   9.394  0.00  0.00    -0.406 OA
BRANCH   5  29
ATOM      1  F   UNL     1     -11.317  -3.139  10.431  0.00  0.00    -0.133 F 
ATOM      2  F   UNL     1     -10.742  -4.547   8.861  0.00  0.00    -0.133 F 
ATOM      3  F   UNL     1     -11.759  -2.654   8.346  0.00  0.00    -0.133 F 
ATOM     29  C   UNL     1     -11.690  -3.662   9.241  0.00  0.00    +0.575 C 
ENDBRANCH   5  29
ENDBRANCH  21   5
ENDBRANCH  14  16
ENDBRANCH   6  14
TORSDOF 7
ENDMDL
MODEL 9
REMARK VINA RESULT:      -6.8     23.145     27.205
REMARK  Name = 51137549
REMARK  9 active torsions:
REMARK  status: ('A' for Active; 'I' for Inactive)
REMARK    1  A    between atoms: O_5  and  C_21
REMARK    2  A    between atoms: O_5  and  C_29
REMARK    3  A    between atoms: N_6  and  C_14
REMARK    4  A    between atoms: N_9  and  C_26
REMARK    5  A    between atoms: N_9  and  C_30
REMARK    6  A    between atoms: N_9  and  C_31
REMARK    7  A    between atoms: C_10  and  C_15
REMARK    8  A    between atoms: C_14  and  C_16
REMARK    9  A    between atoms: C_18  and  C_20
REMARK                            x       y       z     vdW  Elec       q    Type
REMARK                         _______ _______ _______ _____ _____    ______ ____
ROOT
ATOM      6  N   UNL     1      -2.350 -11.157  13.671  0.00  0.00    -0.297 NA
ATOM     10  C   UNL     1      -3.139 -10.399  15.745  0.00  0.00    +0.092 C 
ATOM     11  C   UNL     1      -1.701 -10.923  15.901  0.00  0.00    +0.029 C 
ATOM     12  C   UNL     1      -3.609 -10.949  14.392  0.00  0.00    +0.097 C 
ATOM     13  C   UNL     1      -1.448 -11.758  14.653  0.00  0.00    +0.085 C 
ENDROOT
BRANCH  10  15
ATOM      4  O   UNL     1      -5.358 -10.326  16.777  0.00  0.00    -0.420 OA
ATOM      7  N   UNL     1      -3.828 -11.424  17.984  0.00  0.00    -0.112 NA
ATOM      8  N   UNL     1      -5.024 -11.459  18.676  0.00  0.00    -0.107 NA
ATOM     15  C   UNL     1      -4.070 -10.753  16.882  0.00  0.00    +0.222 A 
ATOM     18  C   UNL     1      -5.888 -10.806  17.935  0.00  0.00    +0.248 A 
BRANCH  18  20
ATOM     20  C   UNL     1      -7.278 -10.526  18.153  0.00  0.00    +0.039 A 
ATOM     24  C   UNL     1      -7.991 -11.243  19.115  0.00  0.00    +0.015 A 
ATOM     25  C   UNL     1      -7.916  -9.537  17.404  0.00  0.00    +0.015 A 
ATOM     26  C   UNL     1      -9.981  -9.981  18.577  0.00  0.00    +0.029 A 
ATOM     27  C   UNL     1      -9.343 -10.970  19.326  0.00  0.00    +0.024 A 
ATOM     28  C   UNL     1      -9.267  -9.266  17.616  0.00  0.00    +0.024 A 
BRANCH  26   9
ATOM      9  N   UNL     1     -11.347  -9.707  18.791  0.00  0.00    -0.336 N 
ATOM     30  C   UNL     1     -11.946  -9.929  20.093  0.00  0.00    +0.129 C 
ATOM     31  C   UNL     1     -12.170  -9.192  17.715  0.00  0.00    +0.129 C 
ENDBRANCH  26   9
ENDBRANCH  18  20
ENDBRANCH  10  15
BRANCH   6  14
ATOM     14  C   UNL     1      -2.520 -11.990  12.490  0.00  0.00    +0.119 C 
BRANCH  14  16
ATOM     16  C   UNL     1      -3.067 -11.207  11.326  0.00  0.00    -0.030 A 
ATOM     17  C   UNL     1      -3.969 -11.805  10.445  0.00  0.00    +0.051 A 
ATOM     19  C   UNL     1      -2.673  -9.884  11.129  0.00  0.00    +0.005 A 
ATOM     21  C   UNL     1      -4.475 -11.080   9.367  0.00  0.00    +0.130 A 
ATOM     22  C   UNL     1      -3.179  -9.159  10.050  0.00  0.00    +0.004 A 
ATOM     23  C   UNL     1      -4.081  -9.756   9.169  0.00  0.00    +0.046 A 
BRANCH  21   5
ATOM      5  O   UNL     1      -5.355 -11.663   8.508  0.00  0.00    -0.406 OA
BRANCH   5  29
ATOM      1  F   UNL     1      -4.471 -11.161   6.492  0.00  0.00    -0.133 F 
ATOM      2  F   UNL     1      -3.775 -12.972   7.498  0.00  0.00    -0.133 F 
ATOM      3  F   UNL     1      -5.805 -12.887   6.629  0.00  0.00    -0.133 F 
ATOM     29  C   UNL     1      -4.853 -12.188   7.284  0.00  0.00    +0.575 C 
ENDBRANCH   5  29
ENDBRANCH  21   5
ENDBRANCH  14  16
ENDBRANCH   6  14
TORSDOF 7
ENDMDL
MODEL 10
REMARK VINA RESULT:      -6.8     19.454     22.044
REMARK  Name = 51137549
REMARK  9 active torsions:
REMARK  status: ('A' for Active; 'I' for Inactive)
REMARK    1  A    between atoms: O_5  and  C_21
REMARK    2  A    between atoms: O_5  and  C_29
REMARK    3  A    between atoms: N_6  and  C_14
REMARK    4  A    between atoms: N_9  and  C_26
REMARK    5  A    between atoms: N_9  and  C_30
REMARK    6  A    between atoms: N_9  and  C_31
REMARK    7  A    between atoms: C_10  and  C_15
REMARK    8  A    between atoms: C_14  and  C_16
REMARK    9  A    between atoms: C_18  and  C_20
REMARK                            x       y       z     vdW  Elec       q    Type
REMARK                         _______ _______ _______ _____ _____    ______ ____
ROOT
ATOM      6  N   UNL     1      17.619   6.443  21.111  0.00  0.00    -0.297 NA
ATOM     10  C   UNL     1      15.381   6.257  20.438  0.00  0.00    +0.092 C 
ATOM     11  C   UNL     1      16.298   6.169  19.206  0.00  0.00    +0.029 C 
ATOM     12  C   UNL     1      16.275   6.826  21.548  0.00  0.00    +0.097 C 
ATOM     13  C   UNL     1      17.640   6.715  19.674  0.00  0.00    +0.085 C 
ENDROOT
BRANCH  10  15
ATOM      4  O   UNL     1      13.897   8.095  21.086  0.00  0.00    -0.420 OA
ATOM      7  N   UNL     1      13.168   6.908  19.336  0.00  0.00    -0.112 NA
ATOM      8  N   UNL     1      12.243   7.903  19.592  0.00  0.00    -0.107 NA
ATOM     15  C   UNL     1      14.115   7.058  20.231  0.00  0.00    +0.222 A 
ATOM     18  C   UNL     1      12.710   8.571  20.621  0.00  0.00    +0.248 A 
BRANCH  18  20
ATOM     20  C   UNL     1      12.172   9.704  21.317  0.00  0.00    +0.039 A 
ATOM     24  C   UNL     1      12.386  10.991  20.825  0.00  0.00    +0.015 A 
ATOM     25  C   UNL     1      11.433   9.517  22.486  0.00  0.00    +0.015 A 
ATOM     26  C   UNL     1      11.124  11.906  22.672  0.00  0.00    +0.029 A 
ATOM     27  C   UNL     1      11.863  12.093  21.503  0.00  0.00    +0.024 A 
ATOM     28  C   UNL     1      10.910  10.618  23.163  0.00  0.00    +0.024 A 
BRANCH  26   9
ATOM      9  N   UNL     1      10.595  13.019  23.356  0.00  0.00    -0.336 N 
ATOM     30  C   UNL     1      10.543  13.033  24.806  0.00  0.00    +0.129 C 
ATOM     31  C   UNL     1      10.104  14.167  22.622  0.00  0.00    +0.129 C 
ENDBRANCH  26   9
ENDBRANCH  18  20
ENDBRANCH  10  15
BRANCH   6  14
ATOM     14  C   UNL     1      18.661   7.165  21.827  0.00  0.00    +0.119 C 
BRANCH  14  16
ATOM     16  C   UNL     1      20.036   6.801  21.332  0.00  0.00    -0.030 A 
ATOM     17  C   UNL     1      20.437   5.465  21.307  0.00  0.00    +0.051 A 
ATOM     19  C   UNL     1      20.907   7.800  20.897  0.00  0.00    +0.005 A 
ATOM     21  C   UNL     1      21.711   5.128  20.848  0.00  0.00    +0.130 A 
ATOM     22  C   UNL     1      22.181   7.462  20.439  0.00  0.00    +0.004 A 
ATOM     23  C   UNL     1      22.583   6.127  20.414  0.00  0.00    +0.046 A 
BRANCH  21   5
ATOM      5  O   UNL     1      22.102   3.825  20.824  0.00  0.00    -0.406 OA
BRANCH   5  29
ATOM      1  F   UNL     1      21.856   3.088  22.944  0.00  0.00    -0.133 F 
ATOM      2  F   UNL     1      23.356   2.118  21.686  0.00  0.00    -0.133 F 
ATOM      3  F   UNL     1      23.687   4.169  22.438  0.00  0.00    -0.133 F 
ATOM     29  C   UNL     1      22.767   3.300  21.968  0.00  0.00    +0.575 C 
ENDBRANCH   5  29
ENDBRANCH  21   5
ENDBRANCH  14  16
ENDBRANCH   6  14
TORSDOF 7
ENDMDL
