MODEL 1
REMARK VINA RESULT:      -7.6      0.000      0.000
REMARK  Name = 26743732
REMARK  7 active torsions:
REMARK  status: ('A' for Active; 'I' for Inactive)
REMARK    1  A    between atoms: O_4  and  C_13
REMARK    2  A    between atoms: O_6  and  C_28
REMARK    3  A    between atoms: O_6  and  C_29
REMARK    4  A    between atoms: N_7  and  C_15
REMARK    5  A    between atoms: C_11  and  C_16
REMARK    6  A    between atoms: C_15  and  C_17
REMARK    7  A    between atoms: C_18  and  C_21
REMARK                            x       y       z     vdW  Elec       q    Type
REMARK                         _______ _______ _______ _____ _____    ______ ____
ROOT
ATOM      5  O   UNL     1      14.430   6.732  19.504  0.00  0.00    -0.336 OA
ATOM      8  N   UNL     1      15.661   7.547  21.190  0.00  0.00    -0.190 NA
ATOM      9  N   UNL     1      15.719   6.212  19.332  0.00  0.00    -0.056 NA
ATOM     16  C   UNL     1      14.483   7.507  20.620  0.00  0.00    +0.245 A 
ATOM     18  C   UNL     1      16.385   6.737  20.364  0.00  0.00    +0.202 A 
ENDROOT
BRANCH  18  21
ATOM     21  C   UNL     1      17.777   6.475  20.598  0.00  0.00    +0.023 A 
ATOM     24  C   UNL     1      18.466   7.185  21.581  0.00  0.00    +0.015 A 
ATOM     25  C   UNL     1      18.440   5.509  19.842  0.00  0.00    +0.015 A 
ATOM     26  C   UNL     1      19.818   6.931  21.807  0.00  0.00    +0.046 A 
ATOM     27  C   UNL     1      19.793   5.255  20.068  0.00  0.00    +0.046 A 
ATOM     28  C   UNL     1      20.482   5.966  21.050  0.00  0.00    +0.130 A 
BRANCH  28   6
ATOM      6  O   UNL     1      21.801   5.716  21.270  0.00  0.00    -0.406 OA
BRANCH   6  29
ATOM      1  F   UNL     1      21.850   5.084  23.437  0.00  0.00    -0.133 F 
ATOM      2  F   UNL     1      21.445   3.555  21.928  0.00  0.00    -0.133 F 
ATOM      3  F   UNL     1      23.471   4.413  22.134  0.00  0.00    -0.133 F 
ATOM     29  C   UNL     1      22.149   4.680  22.181  0.00  0.00    +0.575 C 
ENDBRANCH   6  29
ENDBRANCH  28   6
ENDBRANCH  18  21
BRANCH  16  11
ATOM      7  N   UNL     1      12.389   8.622  19.867  0.00  0.00    -0.285 NA
ATOM     11  C   UNL     1      13.196   8.192  21.027  0.00  0.00    +0.149 C 
ATOM     12  C   UNL     1      12.263   7.274  21.837  0.00  0.00    +0.061 C 
ATOM     13  C   UNL     1      10.941   7.285  21.079  0.00  0.00    +0.130 C 
ATOM     14  C   UNL     1      10.992   8.585  20.297  0.00  0.00    +0.116 C 
BRANCH  13   4
ATOM      4  O   UNL     1       9.848   7.255  21.975  0.00  0.00    -0.390 OA
ATOM     30  H   UNL     1       9.456   6.365  21.929  0.00  0.00    +0.210 HD
ENDBRANCH  13   4
BRANCH   7  15
ATOM     15  C   UNL     1      12.769   9.932  19.355  0.00  0.00    +0.122 C 
BRANCH  15  17
ATOM     10  N   UNL     1      13.516   8.650  15.871  0.00  0.00    -0.263 NA
ATOM     17  C   UNL     1      13.348   9.844  17.967  0.00  0.00    -0.015 A 
ATOM     19  C   UNL     1      14.219  10.817  17.492  0.00  0.00    +0.008 A 
ATOM     20  C   UNL     1      13.031   8.790  17.125  0.00  0.00    +0.115 A 
ATOM     22  C   UNL     1      14.739  10.709  16.206  0.00  0.00    +0.020 A 
ATOM     23  C   UNL     1      14.360   9.616  15.444  0.00  0.00    +0.111 A 
ENDBRANCH  15  17
ENDBRANCH   7  15
ENDBRANCH  16  11
TORSDOF 7
ENDMDL
MODEL 2
REMARK VINA RESULT:      -7.4      2.125      3.632
REMARK  Name = 26743732
REMARK  7 active torsions:
REMARK  status: ('A' for Active; 'I' for Inactive)
REMARK    1  A    between atoms: O_4  and  C_13
REMARK    2  A    between atoms: O_6  and  C_28
REMARK    3  A    between atoms: O_6  and  C_29
REMARK    4  A    between atoms: N_7  and  C_15
REMARK    5  A    between atoms: C_11  and  C_16
REMARK    6  A    between atoms: C_15  and  C_17
REMARK    7  A    between atoms: C_18  and  C_21
REMARK                            x       y       z     vdW  Elec       q    Type
REMARK                         _______ _______ _______ _____ _____    ______ ____
ROOT
ATOM      5  O   UNL     1      14.785   8.779  20.255  0.00  0.00    -0.336 OA
ATOM      8  N   UNL     1      15.344   6.658  19.801  0.00  0.00    -0.190 NA
ATOM      9  N   UNL     1      16.163   8.682  20.485  0.00  0.00    -0.056 NA
ATOM     16  C   UNL     1      14.382   7.544  19.856  0.00  0.00    +0.245 A 
ATOM     18  C   UNL     1      16.418   7.403  20.195  0.00  0.00    +0.202 A 
ENDROOT
BRANCH  18  21
ATOM     21  C   UNL     1      17.732   6.836  20.291  0.00  0.00    +0.023 A 
ATOM     24  C   UNL     1      18.706   7.459  21.071  0.00  0.00    +0.015 A 
ATOM     25  C   UNL     1      18.036   5.662  19.602  0.00  0.00    +0.015 A 
ATOM     26  C   UNL     1      19.984   6.909  21.162  0.00  0.00    +0.046 A 
ATOM     27  C   UNL     1      19.315   5.112  19.693  0.00  0.00    +0.046 A 
ATOM     28  C   UNL     1      20.289   5.735  20.472  0.00  0.00    +0.130 A 
BRANCH  28   6
ATOM      6  O   UNL     1      21.536   5.197  20.562  0.00  0.00    -0.406 OA
BRANCH   6  29
ATOM      1  F   UNL     1      23.027   3.707  21.368  0.00  0.00    -0.133 F 
ATOM      2  F   UNL     1      21.379   4.319  22.667  0.00  0.00    -0.133 F 
ATOM      3  F   UNL     1      21.004   3.004  20.931  0.00  0.00    -0.133 F 
ATOM     29  C   UNL     1      21.719   4.053  21.388  0.00  0.00    +0.575 C 
ENDBRANCH   6  29
ENDBRANCH  28   6
ENDBRANCH  18  21
BRANCH  16  11
ATOM      7  N   UNL     1      12.110   8.556  19.949  0.00  0.00    -0.285 NA
ATOM     11  C   UNL     1      12.910   7.384  19.540  0.00  0.00    +0.149 C 
ATOM     12  C   UNL     1      12.638   7.228  18.033  0.00  0.00    +0.061 C 
ATOM     13  C   UNL     1      11.639   8.328  17.696  0.00  0.00    +0.130 C 
ATOM     14  C   UNL     1      10.977   8.626  19.028  0.00  0.00    +0.116 C 
BRANCH  13   4
ATOM      4  O   UNL     1      10.705   7.881  16.733  0.00  0.00    -0.390 OA
ATOM     30  H   UNL     1      10.644   8.565  16.044  0.00  0.00    +0.210 HD
ENDBRANCH  13   4
BRANCH   7  15
ATOM     15  C   UNL     1      11.681   8.503  21.340  0.00  0.00    +0.122 C 
BRANCH  15  17
ATOM     10  N   UNL     1      10.712  11.266  23.740  0.00  0.00    -0.263 NA
ATOM     17  C   UNL     1      11.501   9.881  21.923  0.00  0.00    -0.015 A 
ATOM     19  C   UNL     1      11.925  11.011  21.234  0.00  0.00    +0.008 A 
ATOM     20  C   UNL     1      10.905  10.061  23.161  0.00  0.00    +0.115 A 
ATOM     22  C   UNL     1      11.744  12.270  21.797  0.00  0.00    +0.020 A 
ATOM     23  C   UNL     1      11.137  12.343  23.040  0.00  0.00    +0.111 A 
ENDBRANCH  15  17
ENDBRANCH   7  15
ENDBRANCH  16  11
TORSDOF 7
ENDMDL
MODEL 3
REMARK VINA RESULT:      -7.3     26.362     29.472
REMARK  Name = 26743732
REMARK  7 active torsions:
REMARK  status: ('A' for Active; 'I' for Inactive)
REMARK    1  A    between atoms: O_4  and  C_13
REMARK    2  A    between atoms: O_6  and  C_28
REMARK    3  A    between atoms: O_6  and  C_29
REMARK    4  A    between atoms: N_7  and  C_15
REMARK    5  A    between atoms: C_11  and  C_16
REMARK    6  A    between atoms: C_15  and  C_17
REMARK    7  A    between atoms: C_18  and  C_21
REMARK                            x       y       z     vdW  Elec       q    Type
REMARK                         _______ _______ _______ _____ _____    ______ ____
ROOT
ATOM      5  O   UNL     1      -5.227 -11.944  16.715  0.00  0.00    -0.336 OA
ATOM      8  N   UNL     1      -5.611 -10.182  15.386  0.00  0.00    -0.190 NA
ATOM      9  N   UNL     1      -6.530 -11.518  17.001  0.00  0.00    -0.056 NA
ATOM     16  C   UNL     1      -4.758 -11.104  15.755  0.00  0.00    +0.245 A 
ATOM     18  C   UNL     1      -6.683 -10.476  16.178  0.00  0.00    +0.202 A 
ENDROOT
BRANCH  18  21
ATOM     21  C   UNL     1      -7.893  -9.707  16.123  0.00  0.00    +0.023 A 
ATOM     24  C   UNL     1      -8.623  -9.637  14.937  0.00  0.00    +0.015 A 
ATOM     25  C   UNL     1      -8.338  -9.028  17.257  0.00  0.00    +0.015 A 
ATOM     26  C   UNL     1      -9.798  -8.888  14.883  0.00  0.00    +0.046 A 
ATOM     27  C   UNL     1      -9.514  -8.278  17.204  0.00  0.00    +0.046 A 
ATOM     28  C   UNL     1     -10.243  -8.208  16.017  0.00  0.00    +0.130 A 
BRANCH  28   6
ATOM      6  O   UNL     1     -11.390  -7.478  15.966  0.00  0.00    -0.406 OA
BRANCH   6  29
ATOM      1  F   UNL     1     -11.332  -5.495  17.043  0.00  0.00    -0.133 F 
ATOM      2  F   UNL     1     -10.111  -5.724  15.245  0.00  0.00    -0.133 F 
ATOM      3  F   UNL     1     -12.311  -5.576  15.090  0.00  0.00    -0.133 F 
ATOM     29  C   UNL     1     -11.286  -6.066  15.818  0.00  0.00    +0.575 C 
ENDBRANCH   6  29
ENDBRANCH  28   6
ENDBRANCH  18  21
BRANCH  16  11
ATOM      7  N   UNL     1      -3.019 -10.584  14.051  0.00  0.00    -0.285 NA
ATOM     11  C   UNL     1      -3.348 -11.358  15.265  0.00  0.00    +0.149 C 
ATOM     12  C   UNL     1      -2.278 -10.950  16.294  0.00  0.00    +0.061 C 
ATOM     13  C   UNL     1      -1.367  -9.980  15.552  0.00  0.00    +0.130 C 
ATOM     14  C   UNL     1      -1.578 -10.339  14.094  0.00  0.00    +0.116 C 
BRANCH  13   4
ATOM      4  O   UNL     1      -0.020 -10.155  15.946  0.00  0.00    -0.390 OA
ATOM     30  H   UNL     1       0.004 -10.883  16.591  0.00  0.00    +0.210 HD
ENDBRANCH  13   4
BRANCH   7  15
ATOM     15  C   UNL     1      -3.425 -11.247  12.819  0.00  0.00    +0.122 C 
BRANCH  15  17
ATOM     10  N   UNL     1      -5.613  -8.772  10.970  0.00  0.00    -0.263 NA
ATOM     17  C   UNL     1      -3.889 -10.261  11.779  0.00  0.00    -0.015 A 
ATOM     19  C   UNL     1      -3.080  -9.925  10.699  0.00  0.00    +0.008 A 
ATOM     20  C   UNL     1      -5.135  -9.662  11.867  0.00  0.00    +0.115 A 
ATOM     22  C   UNL     1      -3.536  -9.012   9.754  0.00  0.00    +0.020 A 
ATOM     23  C   UNL     1      -4.798  -8.470   9.933  0.00  0.00    +0.111 A 
ENDBRANCH  15  17
ENDBRANCH   7  15
ENDBRANCH  16  11
TORSDOF 7
ENDMDL
MODEL 4
REMARK VINA RESULT:      -7.3      1.871      3.838
REMARK  Name = 26743732
REMARK  7 active torsions:
REMARK  status: ('A' for Active; 'I' for Inactive)
REMARK    1  A    between atoms: O_4  and  C_13
REMARK    2  A    between atoms: O_6  and  C_28
REMARK    3  A    between atoms: O_6  and  C_29
REMARK    4  A    between atoms: N_7  and  C_15
REMARK    5  A    between atoms: C_11  and  C_16
REMARK    6  A    between atoms: C_15  and  C_17
REMARK    7  A    between atoms: C_18  and  C_21
REMARK                            x       y       z     vdW  Elec       q    Type
REMARK                         _______ _______ _______ _____ _____    ______ ____
ROOT
ATOM      5  O   UNL     1      15.138   8.444  20.056  0.00  0.00    -0.336 OA
ATOM      8  N   UNL     1      16.085   6.649  19.109  0.00  0.00    -0.190 NA
ATOM      9  N   UNL     1      16.348   8.241  20.731  0.00  0.00    -0.056 NA
ATOM     16  C   UNL     1      15.062   7.464  19.118  0.00  0.00    +0.245 A 
ATOM     18  C   UNL     1      16.848   7.166  20.116  0.00  0.00    +0.202 A 
ENDROOT
BRANCH  18  21
ATOM     21  C   UNL     1      18.106   6.581  20.483  0.00  0.00    +0.023 A 
ATOM     24  C   UNL     1      18.621   5.514  19.749  0.00  0.00    +0.015 A 
ATOM     25  C   UNL     1      18.813   7.082  21.577  0.00  0.00    +0.015 A 
ATOM     26  C   UNL     1      19.843   4.945  20.108  0.00  0.00    +0.046 A 
ATOM     27  C   UNL     1      20.035   6.513  21.936  0.00  0.00    +0.046 A 
ATOM     28  C   UNL     1      20.550   5.444  21.202  0.00  0.00    +0.130 A 
BRANCH  28   6
ATOM      6  O   UNL     1      21.743   4.891  21.552  0.00  0.00    -0.406 OA
BRANCH   6  29
ATOM      1  F   UNL     1      23.701   5.917  22.008  0.00  0.00    -0.133 F 
ATOM      2  F   UNL     1      23.644   4.506  20.340  0.00  0.00    -0.133 F 
ATOM      3  F   UNL     1      22.651   6.474  20.173  0.00  0.00    -0.133 F 
ATOM     29  C   UNL     1      22.932   5.445  21.000  0.00  0.00    +0.575 C 
ENDBRANCH   6  29
ENDBRANCH  28   6
ENDBRANCH  18  21
BRANCH  16  11
ATOM      7  N   UNL     1      12.812   8.438  18.689  0.00  0.00    -0.285 NA
ATOM     11  C   UNL     1      13.827   7.464  18.241  0.00  0.00    +0.149 C 
ATOM     12  C   UNL     1      14.132   7.856  16.784  0.00  0.00    +0.061 C 
ATOM     13  C   UNL     1      13.207   9.031  16.489  0.00  0.00    +0.130 C 
ATOM     14  C   UNL     1      12.083   8.858  17.493  0.00  0.00    +0.116 C 
BRANCH  13   4
ATOM      4  O   UNL     1      12.735   8.976  15.157  0.00  0.00    -0.390 OA
ATOM     30  H   UNL     1      11.762   8.987  15.191  0.00  0.00    +0.210 HD
ENDBRANCH  13   4
BRANCH   7  15
ATOM     15  C   UNL     1      11.921   7.910  19.714  0.00  0.00    +0.122 C 
BRANCH  15  17
ATOM     10  N   UNL     1      10.573   9.470  22.890  0.00  0.00    -0.263 NA
ATOM     17  C   UNL     1      11.637   8.928  20.788  0.00  0.00    -0.015 A 
ATOM     19  C   UNL     1      12.139  10.222  20.699  0.00  0.00    +0.008 A 
ATOM     20  C   UNL     1      10.867   8.606  21.893  0.00  0.00    +0.115 A 
ATOM     22  C   UNL     1      11.859  11.140  21.705  0.00  0.00    +0.020 A 
ATOM     23  C   UNL     1      11.079  10.719  22.769  0.00  0.00    +0.111 A 
ENDBRANCH  15  17
ENDBRANCH   7  15
ENDBRANCH  16  11
TORSDOF 7
ENDMDL
MODEL 5
REMARK VINA RESULT:      -6.7      4.890      9.624
REMARK  Name = 26743732
REMARK  7 active torsions:
REMARK  status: ('A' for Active; 'I' for Inactive)
REMARK    1  A    between atoms: O_4  and  C_13
REMARK    2  A    between atoms: O_6  and  C_28
REMARK    3  A    between atoms: O_6  and  C_29
REMARK    4  A    between atoms: N_7  and  C_15
REMARK    5  A    between atoms: C_11  and  C_16
REMARK    6  A    between atoms: C_15  and  C_17
REMARK    7  A    between atoms: C_18  and  C_21
REMARK                            x       y       z     vdW  Elec       q    Type
REMARK                         _______ _______ _______ _____ _____    ______ ____
ROOT
ATOM      5  O   UNL     1      19.327   7.917  21.724  0.00  0.00    -0.336 OA
ATOM      8  N   UNL     1      18.184   6.284  20.702  0.00  0.00    -0.190 NA
ATOM      9  N   UNL     1      17.997   8.350  21.668  0.00  0.00    -0.056 NA
ATOM     16  C   UNL     1      19.349   6.693  21.133  0.00  0.00    +0.245 A 
ATOM     18  C   UNL     1      17.385   7.334  21.053  0.00  0.00    +0.202 A 
ENDROOT
BRANCH  18  21
ATOM     21  C   UNL     1      15.978   7.336  20.771  0.00  0.00    +0.023 A 
ATOM     24  C   UNL     1      15.527   7.171  19.462  0.00  0.00    +0.015 A 
ATOM     25  C   UNL     1      15.061   7.505  21.808  0.00  0.00    +0.015 A 
ATOM     26  C   UNL     1      14.160   7.176  19.189  0.00  0.00    +0.046 A 
ATOM     27  C   UNL     1      13.693   7.509  21.535  0.00  0.00    +0.046 A 
ATOM     28  C   UNL     1      13.242   7.345  20.226  0.00  0.00    +0.130 A 
BRANCH  28   6
ATOM      6  O   UNL     1      11.908   7.348  19.960  0.00  0.00    -0.406 OA
BRANCH   6  29
ATOM      1  F   UNL     1      10.406   8.721  20.937  0.00  0.00    -0.133 F 
ATOM      2  F   UNL     1      12.119   9.626  19.924  0.00  0.00    -0.133 F 
ATOM      3  F   UNL     1      10.497   8.686  18.754  0.00  0.00    -0.133 F 
ATOM     29  C   UNL     1      11.239   8.602  19.878  0.00  0.00    +0.575 C 
ENDBRANCH   6  29
ENDBRANCH  28   6
ENDBRANCH  18  21
BRANCH  16  11
ATOM      7  N   UNL     1      21.180   5.574  22.395  0.00  0.00    -0.285 NA
ATOM     11  C   UNL     1      20.695   6.000  21.067  0.00  0.00    +0.149 C 
ATOM     12  C   UNL     1      20.659   4.710  20.228  0.00  0.00    +0.061 C 
ATOM     13  C   UNL     1      21.186   3.621  21.155  0.00  0.00    +0.130 C 
ATOM     14  C   UNL     1      22.008   4.389  22.172  0.00  0.00    +0.116 C 
BRANCH  13   4
ATOM      4  O   UNL     1      21.973   2.690  20.439  0.00  0.00    -0.390 OA
ATOM     30  H   UNL     1      22.842   3.100  20.283  0.00  0.00    +0.210 HD
ENDBRANCH  13   4
BRANCH   7  15
ATOM     15  C   UNL     1      21.903   6.620  23.106  0.00  0.00    +0.122 C 
BRANCH  15  17
ATOM     10  N   UNL     1      22.125   5.822  26.800  0.00  0.00    -0.263 NA
ATOM     17  C   UNL     1      21.590   6.614  24.580  0.00  0.00    -0.015 A 
ATOM     19  C   UNL     1      20.526   7.350  25.089  0.00  0.00    +0.008 A 
ATOM     20  C   UNL     1      22.352   5.873  25.469  0.00  0.00    +0.115 A 
ATOM     22  C   UNL     1      20.261   7.323  26.454  0.00  0.00    +0.020 A 
ATOM     23  C   UNL     1      21.082   6.550  27.259  0.00  0.00    +0.111 A 
ENDBRANCH  15  17
ENDBRANCH   7  15
ENDBRANCH  16  11
TORSDOF 7
ENDMDL
MODEL 6
REMARK VINA RESULT:      -6.6     16.486     20.103
REMARK  Name = 26743732
REMARK  7 active torsions:
REMARK  status: ('A' for Active; 'I' for Inactive)
REMARK    1  A    between atoms: O_4  and  C_13
REMARK    2  A    between atoms: O_6  and  C_28
REMARK    3  A    between atoms: O_6  and  C_29
REMARK    4  A    between atoms: N_7  and  C_15
REMARK    5  A    between atoms: C_11  and  C_16
REMARK    6  A    between atoms: C_15  and  C_17
REMARK    7  A    between atoms: C_18  and  C_21
REMARK                            x       y       z     vdW  Elec       q    Type
REMARK                         _______ _______ _______ _____ _____    ______ ____
ROOT
ATOM      5  O   UNL     1      12.833   6.253   0.864  0.00  0.00    -0.336 OA
ATOM      8  N   UNL     1      12.527   4.532   2.264  0.00  0.00    -0.190 NA
ATOM      9  N   UNL     1      12.085   6.753   1.937  0.00  0.00    -0.056 NA
ATOM     16  C   UNL     1      13.050   4.939   1.136  0.00  0.00    +0.245 A 
ATOM     18  C   UNL     1      11.945   5.679   2.720  0.00  0.00    +0.202 A 
ENDROOT
BRANCH  18  21
ATOM     21  C   UNL     1      11.229   5.717   3.963  0.00  0.00    +0.023 A 
ATOM     24  C   UNL     1      10.147   4.863   4.173  0.00  0.00    +0.015 A 
ATOM     25  C   UNL     1      11.615   6.612   4.961  0.00  0.00    +0.015 A 
ATOM     26  C   UNL     1       9.451   4.902   5.380  0.00  0.00    +0.046 A 
ATOM     27  C   UNL     1      10.919   6.651   6.169  0.00  0.00    +0.046 A 
ATOM     28  C   UNL     1       9.836   5.797   6.379  0.00  0.00    +0.130 A 
BRANCH  28   6
ATOM      6  O   UNL     1       9.158   5.835   7.557  0.00  0.00    -0.406 OA
BRANCH   6  29
ATOM      1  F   UNL     1       8.730   5.062   9.634  0.00  0.00    -0.133 F 
ATOM      2  F   UNL     1       9.870   3.784   8.276  0.00  0.00    -0.133 F 
ATOM      3  F   UNL     1      10.791   5.597   9.141  0.00  0.00    -0.133 F 
ATOM     29  C   UNL     1       9.654   5.065   8.646  0.00  0.00    +0.575 C 
ENDBRANCH   6  29
ENDBRANCH  28   6
ENDBRANCH  18  21
BRANCH  16  11
ATOM      7  N   UNL     1      13.171   4.079  -1.197  0.00  0.00    -0.285 NA
ATOM     11  C   UNL     1      13.850   4.162   0.112  0.00  0.00    +0.149 C 
ATOM     12  C   UNL     1      15.214   4.808  -0.193  0.00  0.00    +0.061 C 
ATOM     13  C   UNL     1      15.227   5.008  -1.704  0.00  0.00    +0.130 C 
ATOM     14  C   UNL     1      14.225   3.987  -2.206  0.00  0.00    +0.116 C 
BRANCH  13   4
ATOM      4  O   UNL     1      16.520   4.778  -2.229  0.00  0.00    -0.390 OA
ATOM     30  H   UNL     1      17.161   5.177  -1.615  0.00  0.00    +0.210 HD
ENDBRANCH  13   4
BRANCH   7  15
ATOM     15  C   UNL     1      12.229   2.971  -1.287  0.00  0.00    +0.122 C 
BRANCH  15  17
ATOM     10  N   UNL     1       9.523   4.877  -3.125  0.00  0.00    -0.263 NA
ATOM     17  C   UNL     1      11.097   3.273  -2.235  0.00  0.00    -0.015 A 
ATOM     19  C   UNL     1      10.579   2.289  -3.069  0.00  0.00    +0.008 A 
ATOM     20  C   UNL     1      10.539   4.539  -2.300  0.00  0.00    +0.115 A 
ATOM     22  C   UNL     1       9.533   2.598  -3.932  0.00  0.00    +0.020 A 
ATOM     23  C   UNL     1       9.045   3.894  -3.921  0.00  0.00    +0.111 A 
ENDBRANCH  15  17
ENDBRANCH   7  15
ENDBRANCH  16  11
TORSDOF 7
ENDMDL
MODEL 7
REMARK VINA RESULT:      -6.5     29.156     32.459
REMARK  Name = 26743732
REMARK  7 active torsions:
REMARK  status: ('A' for Active; 'I' for Inactive)
REMARK    1  A    between atoms: O_4  and  C_13
REMARK    2  A    between atoms: O_6  and  C_28
REMARK    3  A    between atoms: O_6  and  C_29
REMARK    4  A    between atoms: N_7  and  C_15
REMARK    5  A    between atoms: C_11  and  C_16
REMARK    6  A    between atoms: C_15  and  C_17
REMARK    7  A    between atoms: C_18  and  C_21
REMARK                            x       y       z     vdW  Elec       q    Type
REMARK                         _______ _______ _______ _____ _____    ______ ____
ROOT
ATOM      5  O   UNL     1     -16.629   2.958  22.719  0.00  0.00    -0.336 OA
ATOM      8  N   UNL     1     -16.684   4.331  24.489  0.00  0.00    -0.190 NA
ATOM      9  N   UNL     1     -16.490   2.143  23.849  0.00  0.00    -0.056 NA
ATOM     16  C   UNL     1     -16.737   4.231  23.185  0.00  0.00    +0.245 A 
ATOM     18  C   UNL     1     -16.532   3.024  24.852  0.00  0.00    +0.202 A 
ENDROOT
BRANCH  18  21
ATOM     21  C   UNL     1     -16.424   2.633  26.229  0.00  0.00    +0.023 A 
ATOM     24  C   UNL     1     -16.026   3.562  27.189  0.00  0.00    +0.015 A 
ATOM     25  C   UNL     1     -16.716   1.322  26.605  0.00  0.00    +0.015 A 
ATOM     26  C   UNL     1     -15.919   3.181  28.526  0.00  0.00    +0.046 A 
ATOM     27  C   UNL     1     -16.609   0.941  27.943  0.00  0.00    +0.046 A 
ATOM     28  C   UNL     1     -16.210   1.870  28.903  0.00  0.00    +0.130 A 
BRANCH  28   6
ATOM      6  O   UNL     1     -16.107   1.498  30.208  0.00  0.00    -0.406 OA
BRANCH   6  29
ATOM      1  F   UNL     1     -13.963   0.942  29.773  0.00  0.00    -0.133 F 
ATOM      2  F   UNL     1     -14.620   0.951  31.857  0.00  0.00    -0.133 F 
ATOM      3  F   UNL     1     -15.310  -0.629  30.475  0.00  0.00    -0.133 F 
ATOM     29  C   UNL     1     -15.007   0.681  30.592  0.00  0.00    +0.575 C 
ENDBRANCH   6  29
ENDBRANCH  28   6
ENDBRANCH  18  21
BRANCH  16  11
ATOM      7  N   UNL     1     -15.618   5.713  21.528  0.00  0.00    -0.285 NA
ATOM     11  C   UNL     1     -16.900   5.319  22.144  0.00  0.00    +0.149 C 
ATOM     12  C   UNL     1     -17.787   4.884  20.963  0.00  0.00    +0.061 C 
ATOM     13  C   UNL     1     -16.933   5.113  19.722  0.00  0.00    +0.130 C 
ATOM     14  C   UNL     1     -15.929   6.159  20.171  0.00  0.00    +0.116 C 
BRANCH  13   4
ATOM      4  O   UNL     1     -17.725   5.573  18.645  0.00  0.00    -0.390 OA
ATOM     30  H   UNL     1     -17.646   6.543  18.617  0.00  0.00    +0.210 HD
ENDBRANCH  13   4
BRANCH   7  15
ATOM     15  C   UNL     1     -14.904   6.731  22.287  0.00  0.00    +0.122 C 
BRANCH  15  17
ATOM     10  N   UNL     1     -12.621   9.095  20.407  0.00  0.00    -0.263 NA
ATOM     17  C   UNL     1     -13.707   7.254  21.536  0.00  0.00    -0.015 A 
ATOM     19  C   UNL     1     -12.616   6.435  21.269  0.00  0.00    +0.008 A 
ATOM     20  C   UNL     1     -13.661   8.564  21.088  0.00  0.00    +0.115 A 
ATOM     22  C   UNL     1     -11.526   6.946  20.571  0.00  0.00    +0.020 A 
ATOM     23  C   UNL     1     -11.578   8.270  20.166  0.00  0.00    +0.111 A 
ENDBRANCH  15  17
ENDBRANCH   7  15
ENDBRANCH  16  11
TORSDOF 7
ENDMDL
MODEL 8
REMARK VINA RESULT:      -6.5     27.379     29.214
REMARK  Name = 26743732
REMARK  7 active torsions:
REMARK  status: ('A' for Active; 'I' for Inactive)
REMARK    1  A    between atoms: O_4  and  C_13
REMARK    2  A    between atoms: O_6  and  C_28
REMARK    3  A    between atoms: O_6  and  C_29
REMARK    4  A    between atoms: N_7  and  C_15
REMARK    5  A    between atoms: C_11  and  C_16
REMARK    6  A    between atoms: C_15  and  C_17
REMARK    7  A    between atoms: C_18  and  C_21
REMARK                            x       y       z     vdW  Elec       q    Type
REMARK                         _______ _______ _______ _____ _____    ______ ____
ROOT
ATOM      5  O   UNL     1      -7.577 -10.319  11.464  0.00  0.00    -0.336 OA
ATOM      8  N   UNL     1      -5.871  -9.216  12.409  0.00  0.00    -0.190 NA
ATOM      9  N   UNL     1      -7.543 -10.728  12.803  0.00  0.00    -0.056 NA
ATOM     16  C   UNL     1      -6.559  -9.430  11.316  0.00  0.00    +0.245 A 
ATOM     18  C   UNL     1      -6.512 -10.035  13.293  0.00  0.00    +0.202 A 
ENDROOT
BRANCH  18  21
ATOM     21  C   UNL     1      -6.094 -10.137  14.662  0.00  0.00    +0.023 A 
ATOM     24  C   UNL     1      -4.776 -10.475  14.967  0.00  0.00    +0.015 A 
ATOM     25  C   UNL     1      -7.008  -9.900  15.689  0.00  0.00    +0.015 A 
ATOM     26  C   UNL     1      -4.371 -10.576  16.297  0.00  0.00    +0.046 A 
ATOM     27  C   UNL     1      -6.603 -10.001  17.020  0.00  0.00    +0.046 A 
ATOM     28  C   UNL     1      -5.285 -10.340  17.325  0.00  0.00    +0.130 A 
BRANCH  28   6
ATOM      6  O   UNL     1      -4.891 -10.437  18.623  0.00  0.00    -0.406 OA
BRANCH   6  29
ATOM      1  F   UNL     1      -5.858 -11.551  20.331  0.00  0.00    -0.133 F 
ATOM      2  F   UNL     1      -5.557 -12.618  18.447  0.00  0.00    -0.133 F 
ATOM      3  F   UNL     1      -3.834 -12.129  19.743  0.00  0.00    -0.133 F 
ATOM     29  C   UNL     1      -5.024 -11.694  19.276  0.00  0.00    +0.575 C 
ENDBRANCH   6  29
ENDBRANCH  28   6
ENDBRANCH  18  21
BRANCH  16  11
ATOM      7  N   UNL     1      -5.500  -9.644   9.074  0.00  0.00    -0.285 NA
ATOM     11  C   UNL     1      -6.382  -8.831   9.937  0.00  0.00    +0.149 C 
ATOM     12  C   UNL     1      -7.706  -8.725   9.159  0.00  0.00    +0.061 C 
ATOM     13  C   UNL     1      -7.457  -9.469   7.852  0.00  0.00    +0.130 C 
ATOM     14  C   UNL     1      -5.948  -9.423   7.699  0.00  0.00    +0.116 C 
BRANCH  13   4
ATOM      4  O   UNL     1      -8.113  -8.828   6.776  0.00  0.00    -0.390 OA
ATOM     30  H   UNL     1      -7.876  -7.884   6.809  0.00  0.00    +0.210 HD
ENDBRANCH  13   4
BRANCH   7  15
ATOM     15  C   UNL     1      -4.086  -9.337   9.244  0.00  0.00    +0.122 C 
BRANCH  15  17
ATOM     10  N   UNL     1      -3.261 -12.405  11.303  0.00  0.00    -0.263 NA
ATOM     17  C   UNL     1      -3.442 -10.223  10.278  0.00  0.00    -0.015 A 
ATOM     19  C   UNL     1      -2.472  -9.727  11.142  0.00  0.00    +0.008 A 
ATOM     20  C   UNL     1      -3.798 -11.557  10.398  0.00  0.00    +0.115 A 
ATOM     22  C   UNL     1      -1.896 -10.570  12.087  0.00  0.00    +0.020 A 
ATOM     23  C   UNL     1      -2.321 -11.887  12.127  0.00  0.00    +0.111 A 
ENDBRANCH  15  17
ENDBRANCH   7  15
ENDBRANCH  16  11
TORSDOF 7
ENDMDL
MODEL 9
REMARK VINA RESULT:      -6.4      5.080      7.813
REMARK  Name = 26743732
REMARK  7 active torsions:
REMARK  status: ('A' for Active; 'I' for Inactive)
REMARK    1  A    between atoms: O_4  and  C_13
REMARK    2  A    between atoms: O_6  and  C_28
REMARK    3  A    between atoms: O_6  and  C_29
REMARK    4  A    between atoms: N_7  and  C_15
REMARK    5  A    between atoms: C_11  and  C_16
REMARK    6  A    between atoms: C_15  and  C_17
REMARK    7  A    between atoms: C_18  and  C_21
REMARK                            x       y       z     vdW  Elec       q    Type
REMARK                         _______ _______ _______ _____ _____    ______ ____
ROOT
ATOM      5  O   UNL     1      12.995  10.455  19.457  0.00  0.00    -0.336 OA
ATOM      8  N   UNL     1      13.391   9.476  17.481  0.00  0.00    -0.190 NA
ATOM      9  N   UNL     1      13.585  11.434  18.648  0.00  0.00    -0.056 NA
ATOM     16  C   UNL     1      12.918   9.333  18.693  0.00  0.00    +0.245 A 
ATOM     18  C   UNL     1      13.788  10.781  17.501  0.00  0.00    +0.202 A 
ENDROOT
BRANCH  18  21
ATOM     21  C   UNL     1      14.388  11.402  16.354  0.00  0.00    +0.023 A 
ATOM     24  C   UNL     1      14.432  12.792  16.256  0.00  0.00    +0.015 A 
ATOM     25  C   UNL     1      14.926  10.614  15.337  0.00  0.00    +0.015 A 
ATOM     26  C   UNL     1      15.013  13.395  15.141  0.00  0.00    +0.046 A 
ATOM     27  C   UNL     1      15.508  11.217  14.222  0.00  0.00    +0.046 A 
ATOM     28  C   UNL     1      15.551  12.607  14.123  0.00  0.00    +0.130 A 
BRANCH  28   6
ATOM      6  O   UNL     1      16.120  13.195  13.036  0.00  0.00    -0.406 OA
BRANCH   6  29
ATOM      1  F   UNL     1      17.920  12.114  12.207  0.00  0.00    -0.133 F 
ATOM      2  F   UNL     1      17.981  14.297  12.294  0.00  0.00    -0.133 F 
ATOM      3  F   UNL     1      18.117  13.100  14.147  0.00  0.00    -0.133 F 
ATOM     29  C   UNL     1      17.539  13.191  12.931  0.00  0.00    +0.575 C 
ENDBRANCH   6  29
ENDBRANCH  28   6
ENDBRANCH  18  21
BRANCH  16  11
ATOM      7  N   UNL     1      13.114   7.608  20.476  0.00  0.00    -0.285 NA
ATOM     11  C   UNL     1      12.306   8.112  19.348  0.00  0.00    +0.149 C 
ATOM     12  C   UNL     1      10.918   8.394  19.952  0.00  0.00    +0.061 C 
ATOM     13  C   UNL     1      11.031   7.973  21.413  0.00  0.00    +0.130 C 
ATOM     14  C   UNL     1      12.178   6.980  21.409  0.00  0.00    +0.116 C 
BRANCH  13   4
ATOM      4  O   UNL     1       9.827   7.381  21.859  0.00  0.00    -0.390 OA
ATOM     30  H   UNL     1       9.241   7.291  21.087  0.00  0.00    +0.210 HD
ENDBRANCH  13   4
BRANCH   7  15
ATOM     15  C   UNL     1      14.171   6.693  20.064  0.00  0.00    +0.122 C 
BRANCH  15  17
ATOM     10  N   UNL     1      16.863   8.831  21.649  0.00  0.00    -0.263 NA
ATOM     17  C   UNL     1      15.531   7.182  20.487  0.00  0.00    -0.015 A 
ATOM     19  C   UNL     1      16.683   6.488  20.134  0.00  0.00    +0.008 A 
ATOM     20  C   UNL     1      15.674   8.337  21.238  0.00  0.00    +0.115 A 
ATOM     22  C   UNL     1      17.926   6.965  20.538  0.00  0.00    +0.020 A 
ATOM     23  C   UNL     1      17.961   8.130  21.287  0.00  0.00    +0.111 A 
ENDBRANCH  15  17
ENDBRANCH   7  15
ENDBRANCH  16  11
TORSDOF 7
ENDMDL
MODEL 10
REMARK VINA RESULT:      -6.2     30.411     32.839
REMARK  Name = 26743732
REMARK  7 active torsions:
REMARK  status: ('A' for Active; 'I' for Inactive)
REMARK    1  A    between atoms: O_4  and  C_13
REMARK    2  A    between atoms: O_6  and  C_28
REMARK    3  A    between atoms: O_6  and  C_29
REMARK    4  A    between atoms: N_7  and  C_15
REMARK    5  A    between atoms: C_11  and  C_16
REMARK    6  A    between atoms: C_15  and  C_17
REMARK    7  A    between atoms: C_18  and  C_21
REMARK                            x       y       z     vdW  Elec       q    Type
REMARK                         _______ _______ _______ _____ _____    ______ ____
ROOT
ATOM      5  O   UNL     1     -15.041   8.337  33.535  0.00  0.00    -0.336 OA
ATOM      8  N   UNL     1     -13.479   7.081  32.535  0.00  0.00    -0.190 NA
ATOM      9  N   UNL     1     -15.476   7.011  33.650  0.00  0.00    -0.056 NA
ATOM     16  C   UNL     1     -13.859   8.289  32.865  0.00  0.00    +0.245 A 
ATOM     18  C   UNL     1     -14.502   6.331  33.037  0.00  0.00    +0.202 A 
ENDROOT
BRANCH  18  21
ATOM     21  C   UNL     1     -14.522   4.902  32.908  0.00  0.00    +0.023 A 
ATOM     24  C   UNL     1     -13.508   4.250  32.209  0.00  0.00    +0.015 A 
ATOM     25  C   UNL     1     -15.559   4.166  33.481  0.00  0.00    +0.015 A 
ATOM     26  C   UNL     1     -13.528   2.861  32.082  0.00  0.00    +0.046 A 
ATOM     27  C   UNL     1     -15.580   2.776  33.354  0.00  0.00    +0.046 A 
ATOM     28  C   UNL     1     -14.565   2.124  32.654  0.00  0.00    +0.130 A 
BRANCH  28   6
ATOM      6  O   UNL     1     -14.586   0.769  32.532  0.00  0.00    -0.406 OA
BRANCH   6  29
ATOM      1  F   UNL     1     -15.479  -0.992  31.438  0.00  0.00    -0.133 F 
ATOM      2  F   UNL     1     -15.747   0.998  30.575  0.00  0.00    -0.133 F 
ATOM      3  F   UNL     1     -13.766   0.019  30.532  0.00  0.00    -0.133 F 
ATOM     29  C   UNL     1     -14.888   0.211  31.258  0.00  0.00    +0.575 C 
ENDBRANCH   6  29
ENDBRANCH  28   6
ENDBRANCH  18  21
BRANCH  16  11
ATOM      7  N   UNL     1     -11.866   9.718  33.289  0.00  0.00    -0.285 NA
ATOM     11  C   UNL     1     -13.173   9.615  32.610  0.00  0.00    +0.149 C 
ATOM     12  C   UNL     1     -12.864   9.848  31.121  0.00  0.00    +0.061 C 
ATOM     13  C   UNL     1     -11.365  10.120  31.067  0.00  0.00    +0.130 C 
ATOM     14  C   UNL     1     -11.042  10.604  32.468  0.00  0.00    +0.116 C 
BRANCH  13   4
ATOM      4  O   UNL     1     -11.067  11.099  30.091  0.00  0.00    -0.390 OA
ATOM     30  H   UNL     1     -11.481  10.817  29.257  0.00  0.00    +0.210 HD
ENDBRANCH  13   4
BRANCH   7  15
ATOM     15  C   UNL     1     -11.967  10.186  34.665  0.00  0.00    +0.122 C 
BRANCH  15  17
ATOM     10  N   UNL     1      -9.035   8.752  36.583  0.00  0.00    -0.263 NA
ATOM     17  C   UNL     1     -11.173   9.322  35.610  0.00  0.00    -0.015 A 
ATOM     19  C   UNL     1     -11.789   8.327  36.360  0.00  0.00    +0.008 A 
ATOM     20  C   UNL     1      -9.806   9.492  35.756  0.00  0.00    +0.115 A 
ATOM     22  C   UNL     1     -11.029   7.545  37.223  0.00  0.00    +0.020 A 
ATOM     23  C   UNL     1      -9.669   7.794  37.297  0.00  0.00    +0.111 A 
ENDBRANCH  15  17
ENDBRANCH   7  15
ENDBRANCH  16  11
TORSDOF 7
ENDMDL
