MODEL 1
REMARK VINA RESULT:      -7.8      0.000      0.000
REMARK  Name = 7155430
REMARK  2 active torsions:
REMARK  status: ('A' for Active; 'I' for Inactive)
REMARK    1  A    between atoms: N_6  and  C_22
REMARK    2  A    between atoms: C_14  and  C_19
REMARK                            x       y       z     vdW  Elec       q    Type
REMARK                         _______ _______ _______ _____ _____    ______ ____
ROOT
ATOM      2  O   UNL     1       9.154  10.156   3.072  0.00  0.00    -0.268 OA
ATOM      3  O   UNL     1      13.572   8.046   2.738  0.00  0.00    -0.252 OA
ATOM      4  N   UNL     1      10.292   9.274   4.919  0.00  0.00    -0.311 N 
ATOM      5  N   UNL     1      13.200   8.080   5.022  0.00  0.00    -0.284 N 
ATOM      6  N   UNL     1      12.604   6.193   3.739  0.00  0.00    -0.269 N 
ATOM      7  C   UNL     1      12.461  10.330   5.781  0.00  0.00    +0.027 C 
ATOM      8  C   UNL     1      11.563   8.313   6.868  0.00  0.00    +0.054 C 
ATOM      9  C   UNL     1      12.045   9.742   7.122  0.00  0.00    +0.018 C 
ATOM     10  C   UNL     1      11.222  10.413   4.889  0.00  0.00    +0.130 C 
ATOM     11  C   UNL     1      13.581   9.490   5.140  0.00  0.00    +0.114 C 
ATOM     12  C   UNL     1      12.729   7.483   6.283  0.00  0.00    +0.119 C 
ATOM     13  C   UNL     1      10.363   8.279   5.916  0.00  0.00    +0.034 A 
ATOM     14  C   UNL     1       9.405   7.317   5.977  0.00  0.00    +0.002 A 
ATOM     15  C   UNL     1       9.270   9.305   3.954  0.00  0.00    +0.252 A 
ATOM     16  C   UNL     1      13.154   7.474   3.749  0.00  0.00    +0.306 C 
ATOM     17  C   UNL     1       8.337   7.315   4.995  0.00  0.00    +0.015 A 
ATOM     18  C   UNL     1       8.257   8.228   4.029  0.00  0.00    +0.071 A 
ATOM     31  H   UNL     1      12.683   5.625   4.574  0.00  0.00    +0.156 HD
ENDROOT
BRANCH   6  22
ATOM      1  F   UNL     1      12.671   2.984   0.174  0.00  0.00    -0.205 F 
ATOM     22  C   UNL     1      11.966   5.545   2.655  0.00  0.00    +0.037 A 
ATOM     26  C   UNL     1      12.648   4.566   1.937  0.00  0.00    +0.061 A 
ATOM     27  C   UNL     1      10.663   5.890   2.312  0.00  0.00    +0.023 A 
ATOM     28  C   UNL     1      12.019   3.928   0.867  0.00  0.00    +0.125 A 
ATOM     29  C   UNL     1      10.034   5.253   1.243  0.00  0.00    +0.005 A 
ATOM     30  C   UNL     1      10.713   4.270   0.521  0.00  0.00    +0.038 A 
ENDBRANCH   6  22
BRANCH  14  19
ATOM     19  C   UNL     1       9.438   6.248   7.000  0.00  0.00    -0.016 A 
ATOM     20  C   UNL     1       9.069   6.534   8.310  0.00  0.00    +0.008 A 
ATOM     21  C   UNL     1       9.836   4.963   6.644  0.00  0.00    +0.008 A 
ATOM     23  C   UNL     1       9.100   5.526   9.275  0.00  0.00    +0.001 A 
ATOM     24  C   UNL     1       9.866   3.955   7.607  0.00  0.00    +0.001 A 
ATOM     25  C   UNL     1       9.498   4.236   8.922  0.00  0.00    +0.000 A 
ENDBRANCH  14  19
TORSDOF 2
ENDMDL
MODEL 2
REMARK VINA RESULT:      -7.7     13.386     16.273
REMARK  Name = 7155430
REMARK  2 active torsions:
REMARK  status: ('A' for Active; 'I' for Inactive)
REMARK    1  A    between atoms: N_6  and  C_22
REMARK    2  A    between atoms: C_14  and  C_19
REMARK                            x       y       z     vdW  Elec       q    Type
REMARK                         _______ _______ _______ _____ _____    ______ ____
ROOT
ATOM      2  O   UNL     1      10.828   8.588  17.395  0.00  0.00    -0.268 OA
ATOM      3  O   UNL     1      11.668  11.873  20.943  0.00  0.00    -0.252 OA
ATOM      4  N   UNL     1      12.090   8.108  19.309  0.00  0.00    -0.311 N 
ATOM      5  N   UNL     1      12.591   9.939  21.817  0.00  0.00    -0.284 N 
ATOM      6  N   UNL     1      13.922  11.457  20.598  0.00  0.00    -0.269 N 
ATOM      7  C   UNL     1      11.013   8.026  21.633  0.00  0.00    +0.027 C 
ATOM      8  C   UNL     1      13.433   7.649  21.389  0.00  0.00    +0.054 C 
ATOM      9  C   UNL     1      12.144   7.062  21.964  0.00  0.00    +0.018 C 
ATOM     10  C   UNL     1      10.858   8.078  20.113  0.00  0.00    +0.130 C 
ATOM     11  C   UNL     1      11.288   9.417  22.235  0.00  0.00    +0.114 C 
ATOM     12  C   UNL     1      13.709   9.014  22.059  0.00  0.00    +0.119 C 
ATOM     13  C   UNL     1      13.352   7.816  19.867  0.00  0.00    +0.034 A 
ATOM     14  C   UNL     1      14.442   7.733  19.061  0.00  0.00    +0.002 A 
ATOM     15  C   UNL     1      11.908   8.342  17.935  0.00  0.00    +0.252 A 
ATOM     16  C   UNL     1      12.657  11.153  21.100  0.00  0.00    +0.306 C 
ATOM     17  C   UNL     1      14.293   7.972  17.638  0.00  0.00    +0.015 A 
ATOM     18  C   UNL     1      13.118   8.272  17.086  0.00  0.00    +0.071 A 
ATOM     31  H   UNL     1      14.736  11.106  21.088  0.00  0.00    +0.156 HD
ENDROOT
BRANCH   6  22
ATOM      1  F   UNL     1      14.103  12.086  15.846  0.00  0.00    -0.205 F 
ATOM     22  C   UNL     1      14.223  12.262  19.474  0.00  0.00    +0.037 A 
ATOM     26  C   UNL     1      14.011  11.766  18.191  0.00  0.00    +0.061 A 
ATOM     27  C   UNL     1      14.731  13.545  19.657  0.00  0.00    +0.023 A 
ATOM     28  C   UNL     1      14.308  12.559  17.082  0.00  0.00    +0.125 A 
ATOM     29  C   UNL     1      15.029  14.338  18.549  0.00  0.00    +0.005 A 
ATOM     30  C   UNL     1      14.816  13.845  17.261  0.00  0.00    +0.038 A 
ENDBRANCH   6  22
BRANCH  14  19
ATOM     19  C   UNL     1      15.789   7.435  19.598  0.00  0.00    -0.016 A 
ATOM     20  C   UNL     1      16.380   6.203  19.338  0.00  0.00    +0.008 A 
ATOM     21  C   UNL     1      16.455   8.390  20.360  0.00  0.00    +0.008 A 
ATOM     23  C   UNL     1      17.649   5.923  19.843  0.00  0.00    +0.001 A 
ATOM     24  C   UNL     1      17.724   8.111  20.866  0.00  0.00    +0.001 A 
ATOM     25  C   UNL     1      18.321   6.877  20.607  0.00  0.00    +0.000 A 
ENDBRANCH  14  19
TORSDOF 2
ENDMDL
MODEL 3
REMARK VINA RESULT:      -7.3     13.862     16.248
REMARK  Name = 7155430
REMARK  2 active torsions:
REMARK  status: ('A' for Active; 'I' for Inactive)
REMARK    1  A    between atoms: N_6  and  C_22
REMARK    2  A    between atoms: C_14  and  C_19
REMARK                            x       y       z     vdW  Elec       q    Type
REMARK                         _______ _______ _______ _____ _____    ______ ____
ROOT
ATOM      2  O   UNL     1      11.645   9.920  22.480  0.00  0.00    -0.268 OA
ATOM      3  O   UNL     1      13.638  12.639  18.914  0.00  0.00    -0.252 OA
ATOM      4  N   UNL     1      13.942   9.941  22.021  0.00  0.00    -0.311 N 
ATOM      5  N   UNL     1      15.496  11.742  19.962  0.00  0.00    -0.284 N 
ATOM      6  N   UNL     1      14.531  10.661  18.100  0.00  0.00    -0.269 N 
ATOM      7  C   UNL     1      15.366  12.032  22.428  0.00  0.00    +0.027 C 
ATOM      8  C   UNL     1      16.401  10.008  21.483  0.00  0.00    +0.054 C 
ATOM      9  C   UNL     1      16.509  11.042  22.605  0.00  0.00    +0.018 C 
ATOM     10  C   UNL     1      14.049  11.281  22.620  0.00  0.00    +0.130 C 
ATOM     11  C   UNL     1      15.447  12.719  21.052  0.00  0.00    +0.114 C 
ATOM     12  C   UNL     1      16.547  10.723  20.121  0.00  0.00    +0.119 C 
ATOM     13  C   UNL     1      15.071   9.247  21.539  0.00  0.00    +0.034 A 
ATOM     14  C   UNL     1      14.942   7.964  21.111  0.00  0.00    +0.002 A 
ATOM     15  C   UNL     1      12.661   9.365  22.059  0.00  0.00    +0.252 A 
ATOM     16  C   UNL     1      14.484  11.743  18.978  0.00  0.00    +0.306 C 
ATOM     17  C   UNL     1      13.633   7.337  21.133  0.00  0.00    +0.015 A 
ATOM     18  C   UNL     1      12.545   7.976  21.560  0.00  0.00    +0.071 A 
ATOM     31  H   UNL     1      15.426  10.226  17.913  0.00  0.00    +0.156 HD
ENDROOT
BRANCH   6  22
ATOM      1  F   UNL     1      10.329   8.350  18.000  0.00  0.00    -0.205 F 
ATOM     22  C   UNL     1      13.452  10.101  17.376  0.00  0.00    +0.037 A 
ATOM     26  C   UNL     1      12.404   9.490  18.060  0.00  0.00    +0.061 A 
ATOM     27  C   UNL     1      13.444  10.164  15.986  0.00  0.00    +0.023 A 
ATOM     28  C   UNL     1      11.340   8.938  17.346  0.00  0.00    +0.125 A 
ATOM     29  C   UNL     1      12.380   9.612  15.273  0.00  0.00    +0.005 A 
ATOM     30  C   UNL     1      11.327   9.000  15.953  0.00  0.00    +0.038 A 
ENDBRANCH   6  22
BRANCH  14  19
ATOM     19  C   UNL     1      16.094   7.195  20.592  0.00  0.00    -0.016 A 
ATOM     20  C   UNL     1      16.025   6.615  19.329  0.00  0.00    +0.008 A 
ATOM     21  C   UNL     1      17.240   7.058  21.369  0.00  0.00    +0.008 A 
ATOM     23  C   UNL     1      17.111   5.890  18.839  0.00  0.00    +0.001 A 
ATOM     24  C   UNL     1      18.327   6.334  20.880  0.00  0.00    +0.001 A 
ATOM     25  C   UNL     1      18.263   5.750  19.614  0.00  0.00    +0.000 A 
ENDBRANCH  14  19
TORSDOF 2
ENDMDL
MODEL 4
REMARK VINA RESULT:      -6.8     23.688     26.374
REMARK  Name = 7155430
REMARK  2 active torsions:
REMARK  status: ('A' for Active; 'I' for Inactive)
REMARK    1  A    between atoms: N_6  and  C_22
REMARK    2  A    between atoms: C_14  and  C_19
REMARK                            x       y       z     vdW  Elec       q    Type
REMARK                         _______ _______ _______ _____ _____    ______ ____
ROOT
ATOM      2  O   UNL     1      -1.748 -10.705  16.760  0.00  0.00    -0.268 OA
ATOM      3  O   UNL     1      -4.944 -14.403  16.325  0.00  0.00    -0.252 OA
ATOM      4  N   UNL     1      -3.571 -10.652  15.291  0.00  0.00    -0.311 N 
ATOM      5  N   UNL     1      -5.876 -12.769  14.976  0.00  0.00    -0.284 N 
ATOM      6  N   UNL     1      -4.430 -14.393  14.064  0.00  0.00    -0.269 N 
ATOM      7  C   UNL     1      -5.982 -10.582  16.155  0.00  0.00    +0.027 C 
ATOM      8  C   UNL     1      -5.549 -10.651  13.733  0.00  0.00    +0.054 C 
ATOM      9  C   UNL     1      -6.282  -9.885  14.835  0.00  0.00    +0.018 C 
ATOM     10  C   UNL     1      -4.483 -10.463  16.429  0.00  0.00    +0.130 C 
ATOM     11  C   UNL     1      -6.449 -12.049  16.116  0.00  0.00    +0.114 C 
ATOM     12  C   UNL     1      -6.086 -12.100  13.682  0.00  0.00    +0.119 C 
ATOM     13  C   UNL     1      -4.033 -10.659  13.958  0.00  0.00    +0.034 A 
ATOM     14  C   UNL     1      -3.139 -10.710  12.935  0.00  0.00    +0.002 A 
ATOM     15  C   UNL     1      -2.205 -10.720  15.617  0.00  0.00    +0.252 A 
ATOM     16  C   UNL     1      -5.066 -13.902  15.203  0.00  0.00    +0.306 C 
ATOM     17  C   UNL     1      -1.721 -10.784  13.234  0.00  0.00    +0.015 A 
ATOM     18  C   UNL     1      -1.258 -10.803  14.483  0.00  0.00    +0.071 A 
ATOM     31  H   UNL     1      -4.868 -14.250  13.163  0.00  0.00    +0.156 HD
ENDROOT
BRANCH   6  22
ATOM      1  F   UNL     1       0.311 -14.602  13.358  0.00  0.00    -0.205 F 
ATOM     22  C   UNL     1      -3.225 -15.134  14.012  0.00  0.00    +0.037 A 
ATOM     26  C   UNL     1      -2.030 -14.489  13.705  0.00  0.00    +0.061 A 
ATOM     27  C   UNL     1      -3.241 -16.502  14.267  0.00  0.00    +0.023 A 
ATOM     28  C   UNL     1      -0.842 -15.219  13.652  0.00  0.00    +0.125 A 
ATOM     29  C   UNL     1      -2.054 -17.231  14.214  0.00  0.00    +0.005 A 
ATOM     30  C   UNL     1      -0.853 -16.589  13.908  0.00  0.00    +0.038 A 
ENDBRANCH   6  22
BRANCH  14  19
ATOM     19  C   UNL     1      -3.573 -10.725  11.521  0.00  0.00    -0.016 A 
ATOM     20  C   UNL     1      -3.843  -9.526  10.868  0.00  0.00    +0.008 A 
ATOM     21  C   UNL     1      -3.708 -11.938  10.852  0.00  0.00    +0.008 A 
ATOM     23  C   UNL     1      -4.252  -9.540   9.535  0.00  0.00    +0.001 A 
ATOM     24  C   UNL     1      -4.116 -11.952   9.519  0.00  0.00    +0.001 A 
ATOM     25  C   UNL     1      -4.388 -10.753   8.860  0.00  0.00    +0.000 A 
ENDBRANCH  14  19
TORSDOF 2
ENDMDL
MODEL 5
REMARK VINA RESULT:      -6.7     22.273     25.553
REMARK  Name = 7155430
REMARK  2 active torsions:
REMARK  status: ('A' for Active; 'I' for Inactive)
REMARK    1  A    between atoms: N_6  and  C_22
REMARK    2  A    between atoms: C_14  and  C_19
REMARK                            x       y       z     vdW  Elec       q    Type
REMARK                         _______ _______ _______ _____ _____    ______ ____
ROOT
ATOM      2  O   UNL     1      21.687  -7.381  23.653  0.00  0.00    -0.268 OA
ATOM      3  O   UNL     1      19.721  -6.585  28.078  0.00  0.00    -0.252 OA
ATOM      4  N   UNL     1      20.854  -5.298  24.325  0.00  0.00    -0.311 N 
ATOM      5  N   UNL     1      19.757  -4.464  27.153  0.00  0.00    -0.284 N 
ATOM      6  N   UNL     1      17.843  -5.827  26.950  0.00  0.00    -0.269 N 
ATOM      7  C   UNL     1      21.986  -3.943  26.182  0.00  0.00    +0.027 C 
ATOM      8  C   UNL     1      19.947  -3.082  25.105  0.00  0.00    +0.054 C 
ATOM      9  C   UNL     1      21.393  -2.738  25.465  0.00  0.00    +0.018 C 
ATOM     10  C   UNL     1      22.023  -5.113  25.199  0.00  0.00    +0.130 C 
ATOM     11  C   UNL     1      21.179  -4.276  27.450  0.00  0.00    +0.114 C 
ATOM     12  C   UNL     1      19.153  -3.350  26.403  0.00  0.00    +0.119 C 
ATOM     13  C   UNL     1      19.868  -4.301  24.178  0.00  0.00    +0.034 A 
ATOM     14  C   UNL     1      18.876  -4.464  23.264  0.00  0.00    +0.002 A 
ATOM     15  C   UNL     1      20.845  -6.485  23.573  0.00  0.00    +0.252 A 
ATOM     16  C   UNL     1      19.142  -5.701  27.440  0.00  0.00    +0.306 C 
ATOM     17  C   UNL     1      18.833  -5.678  22.472  0.00  0.00    +0.015 A 
ATOM     18  C   UNL     1      19.737  -6.647  22.606  0.00  0.00    +0.071 A 
ATOM     31  H   UNL     1      17.283  -4.991  26.837  0.00  0.00    +0.156 HD
ENDROOT
BRANCH   6  22
ATOM      1  F   UNL     1      15.014  -9.498  28.187  0.00  0.00    -0.205 F 
ATOM     22  C   UNL     1      17.168  -7.026  26.619  0.00  0.00    +0.037 A 
ATOM     26  C   UNL     1      16.411  -7.682  27.586  0.00  0.00    +0.061 A 
ATOM     27  C   UNL     1      17.265  -7.543  25.331  0.00  0.00    +0.023 A 
ATOM     28  C   UNL     1      15.745  -8.865  27.261  0.00  0.00    +0.125 A 
ATOM     29  C   UNL     1      16.601  -8.725  25.005  0.00  0.00    +0.005 A 
ATOM     30  C   UNL     1      15.840  -9.385  25.971  0.00  0.00    +0.038 A 
ENDBRANCH   6  22
BRANCH  14  19
ATOM     19  C   UNL     1      17.815  -3.449  23.075  0.00  0.00    -0.016 A 
ATOM     20  C   UNL     1      18.133  -2.208  22.534  0.00  0.00    +0.008 A 
ATOM     21  C   UNL     1      16.504  -3.744  23.440  0.00  0.00    +0.008 A 
ATOM     23  C   UNL     1      17.134  -1.252  22.356  0.00  0.00    +0.001 A 
ATOM     24  C   UNL     1      15.504  -2.789  23.261  0.00  0.00    +0.001 A 
ATOM     25  C   UNL     1      15.819  -1.543  22.719  0.00  0.00    +0.000 A 
ENDBRANCH  14  19
TORSDOF 2
ENDMDL
MODEL 6
REMARK VINA RESULT:      -6.6     14.349     17.331
REMARK  Name = 7155430
REMARK  2 active torsions:
REMARK  status: ('A' for Active; 'I' for Inactive)
REMARK    1  A    between atoms: N_6  and  C_22
REMARK    2  A    between atoms: C_14  and  C_19
REMARK                            x       y       z     vdW  Elec       q    Type
REMARK                         _______ _______ _______ _____ _____    ______ ____
ROOT
ATOM      2  O   UNL     1      11.388   7.067  21.730  0.00  0.00    -0.268 OA
ATOM      3  O   UNL     1      14.901  10.054  23.407  0.00  0.00    -0.252 OA
ATOM      4  N   UNL     1      13.213   7.749  20.430  0.00  0.00    -0.311 N 
ATOM      5  N   UNL     1      15.699   9.462  21.317  0.00  0.00    -0.284 N 
ATOM      6  N   UNL     1      14.409  11.416  21.597  0.00  0.00    -0.269 N 
ATOM      7  C   UNL     1      15.600   6.999  20.982  0.00  0.00    +0.027 C 
ATOM      8  C   UNL     1      15.198   8.514  19.083  0.00  0.00    +0.054 C 
ATOM      9  C   UNL     1      15.850   7.192  19.492  0.00  0.00    +0.018 C 
ATOM     10  C   UNL     1      14.094   6.857  21.200  0.00  0.00    +0.130 C 
ATOM     11  C   UNL     1      16.195   8.167  21.791  0.00  0.00    +0.114 C 
ATOM     12  C   UNL     1      15.861   9.668  19.869  0.00  0.00    +0.119 C 
ATOM     13  C   UNL     1      13.686   8.503  19.337  0.00  0.00    +0.034 A 
ATOM     14  C   UNL     1      12.811   9.215  18.579  0.00  0.00    +0.002 A 
ATOM     15  C   UNL     1      11.856   7.717  20.794  0.00  0.00    +0.252 A 
ATOM     16  C   UNL     1      14.989  10.301  22.201  0.00  0.00    +0.306 C 
ATOM     17  C   UNL     1      11.402   9.207  18.927  0.00  0.00    +0.015 A 
ATOM     18  C   UNL     1      10.930   8.523  19.968  0.00  0.00    +0.071 A 
ATOM     31  H   UNL     1      14.842  11.798  20.765  0.00  0.00    +0.156 HD
ENDROOT
BRANCH   6  22
ATOM      1  F   UNL     1      12.457  14.893  24.264  0.00  0.00    -0.205 F 
ATOM     22  C   UNL     1      13.274  12.135  22.042  0.00  0.00    +0.037 A 
ATOM     26  C   UNL     1      13.430  13.179  22.951  0.00  0.00    +0.061 A 
ATOM     27  C   UNL     1      12.010  11.796  21.570  0.00  0.00    +0.023 A 
ATOM     28  C   UNL     1      12.312  13.888  23.390  0.00  0.00    +0.125 A 
ATOM     29  C   UNL     1      10.892  12.504  22.009  0.00  0.00    +0.005 A 
ATOM     30  C   UNL     1      11.043  13.551  22.919  0.00  0.00    +0.038 A 
ENDBRANCH   6  22
BRANCH  14  19
ATOM     19  C   UNL     1      13.258  10.026  17.425  0.00  0.00    -0.016 A 
ATOM     20  C   UNL     1      13.185   9.498  16.140  0.00  0.00    +0.008 A 
ATOM     21  C   UNL     1      13.747  11.312  17.633  0.00  0.00    +0.008 A 
ATOM     23  C   UNL     1      13.606  10.262  15.052  0.00  0.00    +0.001 A 
ATOM     24  C   UNL     1      14.168  12.077  16.545  0.00  0.00    +0.001 A 
ATOM     25  C   UNL     1      14.097  11.552  15.255  0.00  0.00    +0.000 A 
ENDBRANCH  14  19
TORSDOF 2
ENDMDL
MODEL 7
REMARK VINA RESULT:      -6.5     23.250     26.689
REMARK  Name = 7155430
REMARK  2 active torsions:
REMARK  status: ('A' for Active; 'I' for Inactive)
REMARK    1  A    between atoms: N_6  and  C_22
REMARK    2  A    between atoms: C_14  and  C_19
REMARK                            x       y       z     vdW  Elec       q    Type
REMARK                         _______ _______ _______ _____ _____    ______ ____
ROOT
ATOM      2  O   UNL     1      18.676  -7.680  27.624  0.00  0.00    -0.268 OA
ATOM      3  O   UNL     1      20.873  -3.865  29.791  0.00  0.00    -0.252 OA
ATOM      4  N   UNL     1      19.567  -5.873  26.431  0.00  0.00    -0.311 N 
ATOM      5  N   UNL     1      21.209  -3.430  27.543  0.00  0.00    -0.284 N 
ATOM      6  N   UNL     1      19.343  -2.531  28.671  0.00  0.00    -0.269 N 
ATOM      7  C   UNL     1      22.091  -5.433  26.362  0.00  0.00    +0.027 C 
ATOM      8  C   UNL     1      20.547  -3.905  25.203  0.00  0.00    +0.054 C 
ATOM      9  C   UNL     1      21.792  -4.774  25.022  0.00  0.00    +0.018 C 
ATOM     10  C   UNL     1      20.927  -6.362  26.707  0.00  0.00    +0.130 C 
ATOM     11  C   UNL     1      22.328  -4.371  27.452  0.00  0.00    +0.114 C 
ATOM     12  C   UNL     1      20.841  -2.814  26.258  0.00  0.00    +0.119 C 
ATOM     13  C   UNL     1      19.332  -4.737  25.630  0.00  0.00    +0.034 A 
ATOM     14  C   UNL     1      18.058  -4.397  25.299  0.00  0.00    +0.002 A 
ATOM     15  C   UNL     1      18.525  -6.673  26.932  0.00  0.00    +0.252 A 
ATOM     16  C   UNL     1      20.494  -3.314  28.754  0.00  0.00    +0.306 C 
ATOM     17  C   UNL     1      16.957  -5.198  25.800  0.00  0.00    +0.015 A 
ATOM     18  C   UNL     1      17.148  -6.262  26.578  0.00  0.00    +0.071 A 
ATOM     31  H   UNL     1      19.309  -1.788  27.983  0.00  0.00    +0.156 HD
ENDROOT
BRANCH   6  22
ATOM      1  F   UNL     1      15.418  -4.882  30.111  0.00  0.00    -0.205 F 
ATOM     22  C   UNL     1      18.191  -2.617  29.488  0.00  0.00    +0.037 A 
ATOM     26  C   UNL     1      17.358  -3.728  29.393  0.00  0.00    +0.061 A 
ATOM     27  C   UNL     1      17.897  -1.591  30.381  0.00  0.00    +0.023 A 
ATOM     28  C   UNL     1      16.221  -3.814  30.199  0.00  0.00    +0.125 A 
ATOM     29  C   UNL     1      16.761  -1.676  31.186  0.00  0.00    +0.005 A 
ATOM     30  C   UNL     1      15.923  -2.788  31.095  0.00  0.00    +0.038 A 
ENDBRANCH   6  22
BRANCH  14  19
ATOM     19  C   UNL     1      17.758  -3.212  24.466  0.00  0.00    -0.016 A 
ATOM     20  C   UNL     1      17.870  -3.294  23.082  0.00  0.00    +0.008 A 
ATOM     21  C   UNL     1      17.366  -2.022  25.072  0.00  0.00    +0.008 A 
ATOM     23  C   UNL     1      17.588  -2.176  22.296  0.00  0.00    +0.001 A 
ATOM     24  C   UNL     1      17.082  -0.905  24.288  0.00  0.00    +0.001 A 
ATOM     25  C   UNL     1      17.193  -0.982  22.899  0.00  0.00    +0.000 A 
ENDBRANCH  14  19
TORSDOF 2
ENDMDL
MODEL 8
REMARK VINA RESULT:      -6.3      2.369      5.185
REMARK  Name = 7155430
REMARK  2 active torsions:
REMARK  status: ('A' for Active; 'I' for Inactive)
REMARK    1  A    between atoms: N_6  and  C_22
REMARK    2  A    between atoms: C_14  and  C_19
REMARK                            x       y       z     vdW  Elec       q    Type
REMARK                         _______ _______ _______ _____ _____    ______ ____
ROOT
ATOM      2  O   UNL     1      13.673   6.225   7.531  0.00  0.00    -0.268 OA
ATOM      3  O   UNL     1      10.237   4.039   4.793  0.00  0.00    -0.252 OA
ATOM      4  N   UNL     1      11.868   7.379   6.584  0.00  0.00    -0.311 N 
ATOM      5  N   UNL     1       9.427   6.198   4.990  0.00  0.00    -0.284 N 
ATOM      6  N   UNL     1      10.766   5.584   3.149  0.00  0.00    -0.269 N 
ATOM      7  C   UNL     1       9.461   6.959   7.357  0.00  0.00    +0.027 C 
ATOM      8  C   UNL     1       9.905   8.564   5.545  0.00  0.00    +0.054 C 
ATOM      9  C   UNL     1       9.219   8.391   6.900  0.00  0.00    +0.018 C 
ATOM     10  C   UNL     1      10.963   6.775   7.574  0.00  0.00    +0.130 C 
ATOM     11  C   UNL     1       8.896   5.956   6.334  0.00  0.00    +0.114 C 
ATOM     12  C   UNL     1       9.272   7.587   4.529  0.00  0.00    +0.119 C 
ATOM     13  C   UNL     1      11.416   8.322   5.638  0.00  0.00    +0.034 A 
ATOM     14  C   UNL     1      12.311   8.946   4.828  0.00  0.00    +0.002 A 
ATOM     15  C   UNL     1      13.224   7.031   6.715  0.00  0.00    +0.252 A 
ATOM     16  C   UNL     1      10.157   5.182   4.337  0.00  0.00    +0.306 C 
ATOM     17  C   UNL     1      13.718   8.610   4.933  0.00  0.00    +0.015 A 
ATOM     18  C   UNL     1      14.171   7.706   5.800  0.00  0.00    +0.071 A 
ATOM     31  H   UNL     1      10.344   6.335   2.616  0.00  0.00    +0.156 HD
ENDROOT
BRANCH   6  22
ATOM      1  F   UNL     1      15.320   5.976   1.690  0.00  0.00    -0.205 F 
ATOM     22  C   UNL     1      11.919   5.023   2.548  0.00  0.00    +0.037 A 
ATOM     26  C   UNL     1      13.071   5.792   2.413  0.00  0.00    +0.061 A 
ATOM     27  C   UNL     1      11.893   3.708   2.096  0.00  0.00    +0.023 A 
ATOM     28  C   UNL     1      14.208   5.240   1.821  0.00  0.00    +0.125 A 
ATOM     29  C   UNL     1      13.028   3.156   1.503  0.00  0.00    +0.005 A 
ATOM     30  C   UNL     1      14.187   3.922   1.366  0.00  0.00    +0.038 A 
ENDBRANCH   6  22
BRANCH  14  19
ATOM     19  C   UNL     1      11.886   9.939   3.816  0.00  0.00    -0.016 A 
ATOM     20  C   UNL     1      11.730  11.272   4.179  0.00  0.00    +0.008 A 
ATOM     21  C   UNL     1      11.648   9.531   2.507  0.00  0.00    +0.008 A 
ATOM     23  C   UNL     1      11.330  12.208   3.225  0.00  0.00    +0.001 A 
ATOM     24  C   UNL     1      11.249  10.467   1.552  0.00  0.00    +0.001 A 
ATOM     25  C   UNL     1      11.090  11.805   1.911  0.00  0.00    +0.000 A 
ENDBRANCH  14  19
TORSDOF 2
ENDMDL
MODEL 9
REMARK VINA RESULT:      -6.3     24.795     28.009
REMARK  Name = 7155430
REMARK  2 active torsions:
REMARK  status: ('A' for Active; 'I' for Inactive)
REMARK    1  A    between atoms: N_6  and  C_22
REMARK    2  A    between atoms: C_14  and  C_19
REMARK                            x       y       z     vdW  Elec       q    Type
REMARK                         _______ _______ _______ _____ _____    ______ ____
ROOT
ATOM      2  O   UNL     1      -7.814 -14.584  17.285  0.00  0.00    -0.268 OA
ATOM      3  O   UNL     1      -8.415  -9.734  17.730  0.00  0.00    -0.252 OA
ATOM      4  N   UNL     1      -6.050 -13.055  17.094  0.00  0.00    -0.311 N 
ATOM      5  N   UNL     1      -6.117  -9.943  17.552  0.00  0.00    -0.284 N 
ATOM      6  N   UNL     1      -7.437  -9.564  15.635  0.00  0.00    -0.269 N 
ATOM      7  C   UNL     1      -5.249 -11.682  19.104  0.00  0.00    +0.027 C 
ATOM      8  C   UNL     1      -4.194 -11.365  16.903  0.00  0.00    +0.054 C 
ATOM      9  C   UNL     1      -3.913 -11.665  18.375  0.00  0.00    +0.018 C 
ATOM     10  C   UNL     1      -6.082 -12.838  18.549  0.00  0.00    +0.130 C 
ATOM     11  C   UNL     1      -5.968 -10.327  18.958  0.00  0.00    +0.114 C 
ATOM     12  C   UNL     1      -4.859  -9.974  16.789  0.00  0.00    +0.119 C 
ATOM     13  C   UNL     1      -5.093 -12.432  16.267  0.00  0.00    +0.034 A 
ATOM     14  C   UNL     1      -5.024 -12.760  14.951  0.00  0.00    +0.002 A 
ATOM     15  C   UNL     1      -6.968 -14.001  16.606  0.00  0.00    +0.252 A 
ATOM     16  C   UNL     1      -7.408  -9.745  17.017  0.00  0.00    +0.306 C 
ATOM     17  C   UNL     1      -5.957 -13.731  14.411  0.00  0.00    +0.015 A 
ATOM     18  C   UNL     1      -6.887 -14.318  15.163  0.00  0.00    +0.071 A 
ATOM     31  H   UNL     1      -6.627  -9.161  15.180  0.00  0.00    +0.156 HD
ENDROOT
BRANCH   6  22
ATOM      1  F   UNL     1     -11.628  -8.328  13.655  0.00  0.00    -0.205 F 
ATOM     22  C   UNL     1      -8.515  -9.842  14.760  0.00  0.00    +0.037 A 
ATOM     26  C   UNL     1      -9.559  -8.930  14.638  0.00  0.00    +0.061 A 
ATOM     27  C   UNL     1      -8.525 -11.026  14.028  0.00  0.00    +0.023 A 
ATOM     28  C   UNL     1     -10.622  -9.204  13.776  0.00  0.00    +0.125 A 
ATOM     29  C   UNL     1      -9.587 -11.300  13.167  0.00  0.00    +0.005 A 
ATOM     30  C   UNL     1     -10.635 -10.388  13.041  0.00  0.00    +0.038 A 
ENDBRANCH   6  22
BRANCH  14  19
ATOM     19  C   UNL     1      -4.041 -12.131  14.041  0.00  0.00    -0.016 A 
ATOM     20  C   UNL     1      -2.752 -12.646  13.952  0.00  0.00    +0.008 A 
ATOM     21  C   UNL     1      -4.413 -11.027  13.279  0.00  0.00    +0.008 A 
ATOM     23  C   UNL     1      -1.826 -12.053  13.094  0.00  0.00    +0.001 A 
ATOM     24  C   UNL     1      -3.488 -10.434  12.420  0.00  0.00    +0.001 A 
ATOM     25  C   UNL     1      -2.194 -10.947  12.328  0.00  0.00    +0.000 A 
ENDBRANCH  14  19
TORSDOF 2
ENDMDL
MODEL 10
REMARK VINA RESULT:      -6.3     23.096     26.529
REMARK  Name = 7155430
REMARK  2 active torsions:
REMARK  status: ('A' for Active; 'I' for Inactive)
REMARK    1  A    between atoms: N_6  and  C_22
REMARK    2  A    between atoms: C_14  and  C_19
REMARK                            x       y       z     vdW  Elec       q    Type
REMARK                         _______ _______ _______ _____ _____    ______ ____
ROOT
ATOM      2  O   UNL     1      19.288  -8.835  25.682  0.00  0.00    -0.268 OA
ATOM      3  O   UNL     1      20.012  -5.753  29.432  0.00  0.00    -0.252 OA
ATOM      4  N   UNL     1      19.854  -6.581  25.393  0.00  0.00    -0.311 N 
ATOM      5  N   UNL     1      20.585  -4.462  27.599  0.00  0.00    -0.284 N 
ATOM      6  N   UNL     1      18.389  -4.414  28.458  0.00  0.00    -0.269 N 
ATOM      7  C   UNL     1      22.147  -5.678  26.094  0.00  0.00    +0.027 C 
ATOM      8  C   UNL     1      20.466  -4.152  25.144  0.00  0.00    +0.054 C 
ATOM      9  C   UNL     1      21.909  -4.639  25.007  0.00  0.00    +0.018 C 
ATOM     10  C   UNL     1      21.230  -6.871  25.824  0.00  0.00    +0.130 C 
ATOM     11  C   UNL     1      21.913  -5.071  27.490  0.00  0.00    +0.114 C 
ATOM     12  C   UNL     1      20.284  -3.495  26.531  0.00  0.00    +0.119 C 
ATOM     13  C   UNL     1      19.461  -5.296  24.967  0.00  0.00    +0.034 A 
ATOM     14  C   UNL     1      18.215  -5.105  24.458  0.00  0.00    +0.002 A 
ATOM     15  C   UNL     1      18.993  -7.691  25.336  0.00  0.00    +0.252 A 
ATOM     16  C   UNL     1      19.676  -4.939  28.567  0.00  0.00    +0.306 C 
ATOM     17  C   UNL     1      17.299  -6.227  24.387  0.00  0.00    +0.015 A 
ATOM     18  C   UNL     1      17.634  -7.447  24.804  0.00  0.00    +0.071 A 
ATOM     31  H   UNL     1      18.274  -3.490  28.059  0.00  0.00    +0.156 HD
ENDROOT
BRANCH   6  22
ATOM      1  F   UNL     1      14.980  -7.754  27.974  0.00  0.00    -0.205 F 
ATOM     22  C   UNL     1      17.183  -5.013  28.892  0.00  0.00    +0.037 A 
ATOM     26  C   UNL     1      16.668  -6.108  28.204  0.00  0.00    +0.061 A 
ATOM     27  C   UNL     1      16.518  -4.504  30.004  0.00  0.00    +0.023 A 
ATOM     28  C   UNL     1      15.478  -6.699  28.632  0.00  0.00    +0.125 A 
ATOM     29  C   UNL     1      15.329  -5.093  30.431  0.00  0.00    +0.005 A 
ATOM     30  C   UNL     1      14.809  -6.192  29.745  0.00  0.00    +0.038 A 
ENDBRANCH   6  22
BRANCH  14  19
ATOM     19  C   UNL     1      17.754  -3.775  24.003  0.00  0.00    -0.016 A 
ATOM     20  C   UNL     1      16.961  -2.995  24.839  0.00  0.00    +0.008 A 
ATOM     21  C   UNL     1      18.116  -3.312  22.741  0.00  0.00    +0.008 A 
ATOM     23  C   UNL     1      16.526  -1.741  24.410  0.00  0.00    +0.001 A 
ATOM     24  C   UNL     1      17.682  -2.058  22.312  0.00  0.00    +0.001 A 
ATOM     25  C   UNL     1      16.888  -1.273  23.146  0.00  0.00    +0.000 A 
ENDBRANCH  14  19
TORSDOF 2
ENDMDL
