MODEL 1
REMARK VINA RESULT:      -5.9      0.000      0.000
REMARK  Name = 38030183
REMARK  8 active torsions:
REMARK  status: ('A' for Active; 'I' for Inactive)
REMARK    1  A    between atoms: O_1  and  C_12
REMARK    2  A    between atoms: C_4  and  C_8
REMARK    3  A    between atoms: C_6  and  C_11
REMARK    4  A    between atoms: C_7  and  C_12
REMARK    5  A    between atoms: C_8  and  C_13
REMARK    6  A    between atoms: C_8  and  C_14
REMARK    7  A    between atoms: C_9  and  C_16
REMARK    8  A    between atoms: C_11  and  C_15
REMARK                            x       y       z     vdW  Elec       q    Type
REMARK                         _______ _______ _______ _____ _____    ______ ____
ROOT
ATOM      4  C   UNL     1      12.307  11.351  21.915  0.00  0.00    +0.001 C 
ATOM      5  C   UNL     1      12.394  10.678  20.536  0.00  0.00    +0.012 C 
ATOM      6  C   UNL     1      12.346   9.142  20.633  0.00  0.00    +0.023 C 
ATOM      7  C   UNL     1      10.995  10.945  22.632  0.00  0.00    +0.040 C 
ATOM      9  C   UNL     1      11.234   8.669  21.548  0.00  0.00    -0.073 C 
ATOM     10  C   UNL     1      10.633   9.493  22.425  0.00  0.00    -0.022 C 
ATOM     16  C   UNL     1      10.796   7.240  21.400  0.00  0.00    +0.039 C 
ENDROOT
BRANCH   4   8
ATOM      8  C   UNL     1      12.423  12.870  21.758  0.00  0.00    -0.013 C 
ATOM     13  C   UNL     1      13.607  13.224  20.864  0.00  0.00    +0.007 C 
ATOM     14  C   UNL     1      11.128  13.448  21.194  0.00  0.00    +0.007 C 
ENDBRANCH   4   8
BRANCH   6  11
ATOM     11  C   UNL     1      13.699   8.574  21.078  0.00  0.00    +0.103 C 
BRANCH  11  15
ATOM      2  O   UNL     1      13.527   7.304  19.070  0.00  0.00    -0.276 OA
ATOM      3  N   UNL     1      15.531   7.203  20.215  0.00  0.00    -0.301 N 
ATOM     15  C   UNL     1      14.234   7.639  20.023  0.00  0.00    +0.216 C 
ATOM     17  C   UNL     1      16.190   6.292  19.291  0.00  0.00    +0.108 C 
ATOM     18  C   UNL     1      16.420   7.564  21.316  0.00  0.00    +0.108 C 
ATOM     19  C   UNL     1      17.657   6.341  19.689  0.00  0.00    +0.020 C 
ATOM     20  C   UNL     1      17.593   6.603  21.188  0.00  0.00    +0.020 C 
ENDBRANCH  11  15
ENDBRANCH   6  11
BRANCH   7  12
ATOM     12  C   UNL     1      11.072  11.244  24.134  0.00  0.00    +0.163 C 
BRANCH  12   1
ATOM      1  O   UNL     1      10.099  12.222  24.441  0.00  0.00    -0.394 OA
ATOM     21  H   UNL     1      10.349  13.036  23.972  0.00  0.00    +0.209 HD
ENDBRANCH  12   1
ENDBRANCH   7  12
TORSDOF 5
ENDMDL
MODEL 2
REMARK VINA RESULT:      -5.8     29.882     31.199
REMARK  Name = 38030183
REMARK  8 active torsions:
REMARK  status: ('A' for Active; 'I' for Inactive)
REMARK    1  A    between atoms: O_1  and  C_12
REMARK    2  A    between atoms: C_4  and  C_8
REMARK    3  A    between atoms: C_6  and  C_11
REMARK    4  A    between atoms: C_7  and  C_12
REMARK    5  A    between atoms: C_8  and  C_13
REMARK    6  A    between atoms: C_8  and  C_14
REMARK    7  A    between atoms: C_9  and  C_16
REMARK    8  A    between atoms: C_11  and  C_15
REMARK                            x       y       z     vdW  Elec       q    Type
REMARK                         _______ _______ _______ _____ _____    ______ ____
ROOT
ATOM      4  C   UNL     1     -14.518   2.027  30.879  0.00  0.00    +0.001 C 
ATOM      5  C   UNL     1     -15.787   2.892  30.819  0.00  0.00    +0.012 C 
ATOM      6  C   UNL     1     -16.511   2.771  29.465  0.00  0.00    +0.023 C 
ATOM      7  C   UNL     1     -14.869   0.537  30.643  0.00  0.00    +0.040 C 
ATOM      9  C   UNL     1     -16.656   1.325  29.031  0.00  0.00    -0.073 C 
ATOM     10  C   UNL     1     -15.923   0.339  29.578  0.00  0.00    -0.022 C 
ATOM     16  C   UNL     1     -17.695   1.033  27.986  0.00  0.00    +0.039 C 
ENDROOT
BRANCH   4   8
ATOM      8  C   UNL     1     -13.811   2.239  32.222  0.00  0.00    -0.013 C 
ATOM     13  C   UNL     1     -13.515   3.719  32.439  0.00  0.00    +0.007 C 
ATOM     14  C   UNL     1     -14.657   1.683  33.363  0.00  0.00    +0.007 C 
ENDBRANCH   4   8
BRANCH   6  11
ATOM     11  C   UNL     1     -15.805   3.598  28.385  0.00  0.00    +0.103 C 
BRANCH  11  15
ATOM      2  O   UNL     1     -17.602   5.151  28.199  0.00  0.00    -0.276 OA
ATOM      3  N   UNL     1     -16.799   4.227  26.240  0.00  0.00    -0.301 N 
ATOM     15  C   UNL     1     -16.819   4.402  27.611  0.00  0.00    +0.216 C 
ATOM     17  C   UNL     1     -17.718   4.924  25.353  0.00  0.00    +0.108 C 
ATOM     18  C   UNL     1     -15.898   3.361  25.484  0.00  0.00    +0.108 C 
ATOM     19  C   UNL     1     -17.147   4.702  23.962  0.00  0.00    +0.020 C 
ATOM     20  C   UNL     1     -16.486   3.335  24.080  0.00  0.00    +0.020 C 
ENDBRANCH  11  15
ENDBRANCH   6  11
BRANCH   7  12
ATOM     12  C   UNL     1     -13.619  -0.274  30.281  0.00  0.00    +0.163 C 
BRANCH  12   1
ATOM      1  O   UNL     1     -14.029  -1.435  29.587  0.00  0.00    -0.394 OA
ATOM     21  H   UNL     1     -14.982  -1.543  29.744  0.00  0.00    +0.209 HD
ENDBRANCH  12   1
ENDBRANCH   7  12
TORSDOF 5
ENDMDL
MODEL 3
REMARK VINA RESULT:      -5.7      2.797      5.153
REMARK  Name = 38030183
REMARK  8 active torsions:
REMARK  status: ('A' for Active; 'I' for Inactive)
REMARK    1  A    between atoms: O_1  and  C_12
REMARK    2  A    between atoms: C_4  and  C_8
REMARK    3  A    between atoms: C_6  and  C_11
REMARK    4  A    between atoms: C_7  and  C_12
REMARK    5  A    between atoms: C_8  and  C_13
REMARK    6  A    between atoms: C_8  and  C_14
REMARK    7  A    between atoms: C_9  and  C_16
REMARK    8  A    between atoms: C_11  and  C_15
REMARK                            x       y       z     vdW  Elec       q    Type
REMARK                         _______ _______ _______ _____ _____    ______ ____
ROOT
ATOM      4  C   UNL     1      13.326   7.900  20.452  0.00  0.00    +0.001 C 
ATOM      5  C   UNL     1      14.059   9.196  20.828  0.00  0.00    +0.012 C 
ATOM      6  C   UNL     1      13.085  10.341  21.165  0.00  0.00    +0.023 C 
ATOM      7  C   UNL     1      12.413   7.439  21.615  0.00  0.00    +0.040 C 
ATOM      9  C   UNL     1      11.988   9.887  22.107  0.00  0.00    -0.073 C 
ATOM     10  C   UNL     1      11.711   8.586  22.306  0.00  0.00    -0.022 C 
ATOM     16  C   UNL     1      11.246  10.961  22.851  0.00  0.00    +0.039 C 
ENDROOT
BRANCH   4   8
ATOM      8  C   UNL     1      14.344   6.822  20.067  0.00  0.00    -0.013 C 
ATOM     13  C   UNL     1      15.043   7.193  18.763  0.00  0.00    +0.007 C 
ATOM     14  C   UNL     1      15.360   6.624  21.187  0.00  0.00    +0.007 C 
ENDBRANCH   4   8
BRANCH   6  11
ATOM     11  C   UNL     1      12.494  10.956  19.892  0.00  0.00    +0.103 C 
BRANCH  11  15
ATOM      2  O   UNL     1      14.453  12.130  19.215  0.00  0.00    -0.276 OA
ATOM      3  N   UNL     1      13.568  10.605  17.723  0.00  0.00    -0.301 N 
ATOM     15  C   UNL     1      13.600  11.290  18.923  0.00  0.00    +0.216 C 
ATOM     17  C   UNL     1      14.559  10.818  16.679  0.00  0.00    +0.108 C 
ATOM     18  C   UNL     1      12.589   9.599  17.317  0.00  0.00    +0.108 C 
ATOM     19  C   UNL     1      14.349   9.663  15.712  0.00  0.00    +0.020 C 
ATOM     20  C   UNL     1      12.855   9.387  15.834  0.00  0.00    +0.020 C 
ENDBRANCH  11  15
ENDBRANCH   6  11
BRANCH   7  12
ATOM     12  C   UNL     1      11.374   6.420  21.132  0.00  0.00    +0.163 C 
BRANCH  12   1
ATOM      1  O   UNL     1      11.648   5.180  21.753  0.00  0.00    -0.394 OA
ATOM     21  H   UNL     1      10.832   4.892  22.194  0.00  0.00    +0.209 HD
ENDBRANCH  12   1
ENDBRANCH   7  12
TORSDOF 5
ENDMDL
MODEL 4
REMARK VINA RESULT:      -5.6      2.250      5.921
REMARK  Name = 38030183
REMARK  8 active torsions:
REMARK  status: ('A' for Active; 'I' for Inactive)
REMARK    1  A    between atoms: O_1  and  C_12
REMARK    2  A    between atoms: C_4  and  C_8
REMARK    3  A    between atoms: C_6  and  C_11
REMARK    4  A    between atoms: C_7  and  C_12
REMARK    5  A    between atoms: C_8  and  C_13
REMARK    6  A    between atoms: C_8  and  C_14
REMARK    7  A    between atoms: C_9  and  C_16
REMARK    8  A    between atoms: C_11  and  C_15
REMARK                            x       y       z     vdW  Elec       q    Type
REMARK                         _______ _______ _______ _____ _____    ______ ____
ROOT
ATOM      4  C   UNL     1      13.713   8.886  19.825  0.00  0.00    +0.001 C 
ATOM      5  C   UNL     1      13.585   8.809  21.353  0.00  0.00    +0.012 C 
ATOM      6  C   UNL     1      12.247   8.187  21.796  0.00  0.00    +0.023 C 
ATOM      7  C   UNL     1      13.600   7.472  19.201  0.00  0.00    +0.040 C 
ATOM      9  C   UNL     1      11.933   6.920  21.026  0.00  0.00    -0.073 C 
ATOM     10  C   UNL     1      12.557   6.611  19.875  0.00  0.00    -0.022 C 
ATOM     16  C   UNL     1      10.918   5.992  21.632  0.00  0.00    +0.039 C 
ENDROOT
BRANCH   4   8
ATOM      8  C   UNL     1      15.032   9.568  19.449  0.00  0.00    -0.013 C 
ATOM     13  C   UNL     1      14.912  11.080  19.609  0.00  0.00    +0.007 C 
ATOM     14  C   UNL     1      16.175   9.024  20.300  0.00  0.00    +0.007 C 
ENDBRANCH   4   8
BRANCH   6  11
ATOM     11  C   UNL     1      11.102   9.198  21.677  0.00  0.00    +0.103 C 
BRANCH  11  15
ATOM      2  O   UNL     1      10.917   9.735  23.990  0.00  0.00    -0.276 OA
ATOM      3  N   UNL     1      11.402  11.467  22.540  0.00  0.00    -0.301 N 
ATOM     15  C   UNL     1      11.132  10.147  22.848  0.00  0.00    +0.216 C 
ATOM     17  C   UNL     1      11.459  12.507  23.557  0.00  0.00    +0.108 C 
ATOM     18  C   UNL     1      11.668  12.017  21.214  0.00  0.00    +0.108 C 
ATOM     19  C   UNL     1      12.091  13.696  22.850  0.00  0.00    +0.020 C 
ATOM     20  C   UNL     1      11.619  13.525  21.412  0.00  0.00    +0.020 C 
ENDBRANCH  11  15
ENDBRANCH   6  11
BRANCH   7  12
ATOM     12  C   UNL     1      13.302   7.553  17.699  0.00  0.00    +0.163 C 
BRANCH  12   1
ATOM      1  O   UNL     1      12.043   6.954  17.464  0.00  0.00    -0.394 OA
ATOM     21  H   UNL     1      11.800   6.467  18.269  0.00  0.00    +0.209 HD
ENDBRANCH  12   1
ENDBRANCH   7  12
TORSDOF 5
ENDMDL
MODEL 5
REMARK VINA RESULT:      -5.5     29.310     31.111
REMARK  Name = 38030183
REMARK  8 active torsions:
REMARK  status: ('A' for Active; 'I' for Inactive)
REMARK    1  A    between atoms: O_1  and  C_12
REMARK    2  A    between atoms: C_4  and  C_8
REMARK    3  A    between atoms: C_6  and  C_11
REMARK    4  A    between atoms: C_7  and  C_12
REMARK    5  A    between atoms: C_8  and  C_13
REMARK    6  A    between atoms: C_8  and  C_14
REMARK    7  A    between atoms: C_9  and  C_16
REMARK    8  A    between atoms: C_11  and  C_15
REMARK                            x       y       z     vdW  Elec       q    Type
REMARK                         _______ _______ _______ _____ _____    ______ ____
ROOT
ATOM      4  C   UNL     1     -15.160   1.740  30.628  0.00  0.00    +0.001 C 
ATOM      5  C   UNL     1     -15.341   1.860  32.149  0.00  0.00    +0.012 C 
ATOM      6  C   UNL     1     -15.562   3.317  32.597  0.00  0.00    +0.023 C 
ATOM      7  C   UNL     1     -16.404   2.295  29.891  0.00  0.00    +0.040 C 
ATOM      9  C   UNL     1     -16.593   4.020  31.735  0.00  0.00    -0.073 C 
ATOM     10  C   UNL     1     -16.965   3.541  30.535  0.00  0.00    -0.022 C 
ATOM     16  C   UNL     1     -17.218   5.262  32.304  0.00  0.00    +0.039 C 
ENDROOT
BRANCH   4   8
ATOM      8  C   UNL     1     -14.881   0.281  30.254  0.00  0.00    -0.013 C 
ATOM     13  C   UNL     1     -13.410   0.096  29.895  0.00  0.00    +0.007 C 
ATOM     14  C   UNL     1     -15.280  -0.648  31.396  0.00  0.00    +0.007 C 
ENDBRANCH   4   8
BRANCH   6  11
ATOM     11  C   UNL     1     -14.243   4.096  32.617  0.00  0.00    +0.103 C 
BRANCH  11  15
ATOM      2  O   UNL     1     -14.273   4.196  34.997  0.00  0.00    -0.276 OA
ATOM      3  N   UNL     1     -13.732   6.136  33.866  0.00  0.00    -0.301 N 
ATOM     15  C   UNL     1     -14.085   4.802  33.940  0.00  0.00    +0.216 C 
ATOM     17  C   UNL     1     -13.548   6.960  35.052  0.00  0.00    +0.108 C 
ATOM     18  C   UNL     1     -13.492   6.910  32.650  0.00  0.00    +0.108 C 
ATOM     19  C   UNL     1     -12.865   8.218  34.540  0.00  0.00    +0.020 C 
ATOM     20  C   UNL     1     -13.418   8.353  33.127  0.00  0.00    +0.020 C 
ENDBRANCH  11  15
ENDBRANCH   6  11
BRANCH   7  12
ATOM     12  C   UNL     1     -16.092   2.578  28.417  0.00  0.00    +0.163 C 
BRANCH  12   1
ATOM      1  O   UNL     1     -14.916   3.360  28.355  0.00  0.00    -0.394 OA
ATOM     21  H   UNL     1     -14.652   3.558  29.269  0.00  0.00    +0.209 HD
ENDBRANCH  12   1
ENDBRANCH   7  12
TORSDOF 5
ENDMDL
MODEL 6
REMARK VINA RESULT:      -5.5     26.428     28.480
REMARK  Name = 38030183
REMARK  8 active torsions:
REMARK  status: ('A' for Active; 'I' for Inactive)
REMARK    1  A    between atoms: O_1  and  C_12
REMARK    2  A    between atoms: C_4  and  C_8
REMARK    3  A    between atoms: C_6  and  C_11
REMARK    4  A    between atoms: C_7  and  C_12
REMARK    5  A    between atoms: C_8  and  C_13
REMARK    6  A    between atoms: C_8  and  C_14
REMARK    7  A    between atoms: C_9  and  C_16
REMARK    8  A    between atoms: C_11  and  C_15
REMARK                            x       y       z     vdW  Elec       q    Type
REMARK                         _______ _______ _______ _____ _____    ______ ____
ROOT
ATOM      4  C   UNL     1      -7.144 -11.687  16.992  0.00  0.00    +0.001 C 
ATOM      5  C   UNL     1      -5.912 -12.374  16.383  0.00  0.00    +0.012 C 
ATOM      6  C   UNL     1      -4.609 -11.978  17.102  0.00  0.00    +0.023 C 
ATOM      7  C   UNL     1      -7.281 -12.053  18.491  0.00  0.00    +0.040 C 
ATOM      9  C   UNL     1      -4.751 -12.056  18.609  0.00  0.00    -0.073 C 
ATOM     10  C   UNL     1      -5.953 -12.102  19.211  0.00  0.00    -0.022 C 
ATOM     16  C   UNL     1      -3.480 -12.126  19.408  0.00  0.00    +0.039 C 
ENDROOT
BRANCH   4   8
ATOM      8  C   UNL     1      -8.396 -12.069  16.197  0.00  0.00    -0.013 C 
ATOM     13  C   UNL     1      -8.261 -11.623  14.745  0.00  0.00    +0.007 C 
ATOM     14  C   UNL     1      -8.640 -13.573  16.279  0.00  0.00    +0.007 C 
ENDBRANCH   4   8
BRANCH   6  11
ATOM     11  C   UNL     1      -4.139 -10.585  16.668  0.00  0.00    +0.103 C 
BRANCH  11  15
ATOM      2  O   UNL     1      -1.774 -10.795  16.468  0.00  0.00    -0.276 OA
ATOM      3  N   UNL     1      -2.993 -10.678  14.509  0.00  0.00    -0.301 N 
ATOM     15  C   UNL     1      -2.856 -10.699  15.884  0.00  0.00    +0.216 C 
ATOM     17  C   UNL     1      -1.851 -10.770  13.612  0.00  0.00    +0.108 C 
ATOM     18  C   UNL     1      -4.241 -10.570  13.757  0.00  0.00    +0.108 C 
ATOM     19  C   UNL     1      -2.461 -11.037  12.245  0.00  0.00    +0.020 C 
ATOM     20  C   UNL     1      -3.799 -10.314  12.324  0.00  0.00    +0.020 C 
ENDBRANCH  11  15
ENDBRANCH   6  11
BRANCH   7  12
ATOM     12  C   UNL     1      -8.219 -11.079  19.214  0.00  0.00    +0.163 C 
BRANCH  12   1
ATOM      1  O   UNL     1      -7.438 -10.253  20.054  0.00  0.00    -0.394 OA
ATOM     21  H   UNL     1      -7.898 -10.193  20.908  0.00  0.00    +0.209 HD
ENDBRANCH  12   1
ENDBRANCH   7  12
TORSDOF 5
ENDMDL
MODEL 7
REMARK VINA RESULT:      -5.5     23.584     25.877
REMARK  Name = 38030183
REMARK  8 active torsions:
REMARK  status: ('A' for Active; 'I' for Inactive)
REMARK    1  A    between atoms: O_1  and  C_12
REMARK    2  A    between atoms: C_4  and  C_8
REMARK    3  A    between atoms: C_6  and  C_11
REMARK    4  A    between atoms: C_7  and  C_12
REMARK    5  A    between atoms: C_8  and  C_13
REMARK    6  A    between atoms: C_8  and  C_14
REMARK    7  A    between atoms: C_9  and  C_16
REMARK    8  A    between atoms: C_11  and  C_15
REMARK                            x       y       z     vdW  Elec       q    Type
REMARK                         _______ _______ _______ _____ _____    ______ ____
ROOT
ATOM      4  C   UNL     1     -12.293   9.064  16.844  0.00  0.00    +0.001 C 
ATOM      5  C   UNL     1     -12.648  10.353  17.599  0.00  0.00    +0.012 C 
ATOM      6  C   UNL     1     -11.395  11.125  18.056  0.00  0.00    +0.023 C 
ATOM      7  C   UNL     1     -11.434   9.388  15.596  0.00  0.00    +0.040 C 
ATOM      9  C   UNL     1     -10.375  11.252  16.943  0.00  0.00    -0.073 C 
ATOM     10  C   UNL     1     -10.416  10.476  15.845  0.00  0.00    -0.022 C 
ATOM     16  C   UNL     1      -9.332  12.322  17.099  0.00  0.00    +0.039 C 
ENDROOT
BRANCH   4   8
ATOM      8  C   UNL     1     -13.574   8.311  16.472  0.00  0.00    -0.013 C 
ATOM     13  C   UNL     1     -14.465   8.140  17.698  0.00  0.00    +0.007 C 
ATOM     14  C   UNL     1     -14.319   9.045  15.361  0.00  0.00    +0.007 C 
ENDBRANCH   4   8
BRANCH   6  11
ATOM     11  C   UNL     1     -10.773  10.480  19.299  0.00  0.00    +0.103 C 
BRANCH  11  15
ATOM      2  O   UNL     1     -12.374  11.230  20.896  0.00  0.00    -0.276 OA
ATOM      3  N   UNL     1     -12.124   8.947  20.644  0.00  0.00    -0.301 N 
ATOM     15  C   UNL     1     -11.832  10.266  20.351  0.00  0.00    +0.216 C 
ATOM     17  C   UNL     1     -13.116   8.573  21.641  0.00  0.00    +0.108 C 
ATOM     18  C   UNL     1     -11.522   7.763  20.035  0.00  0.00    +0.108 C 
ATOM     19  C   UNL     1     -13.347   7.088  21.409  0.00  0.00    +0.020 C 
ATOM     20  C   UNL     1     -11.991   6.608  20.907  0.00  0.00    +0.020 C 
ENDBRANCH  11  15
ENDBRANCH   6  11
BRANCH   7  12
ATOM     12  C   UNL     1     -10.723   8.133  15.073  0.00  0.00    +0.163 C 
BRANCH  12   1
ATOM      1  O   UNL     1     -10.159   7.452  16.176  0.00  0.00    -0.394 OA
ATOM     21  H   UNL     1     -10.140   6.506  15.952  0.00  0.00    +0.209 HD
ENDBRANCH  12   1
ENDBRANCH   7  12
TORSDOF 5
ENDMDL
MODEL 8
REMARK VINA RESULT:      -5.3      3.638      4.961
REMARK  Name = 38030183
REMARK  8 active torsions:
REMARK  status: ('A' for Active; 'I' for Inactive)
REMARK    1  A    between atoms: O_1  and  C_12
REMARK    2  A    between atoms: C_4  and  C_8
REMARK    3  A    between atoms: C_6  and  C_11
REMARK    4  A    between atoms: C_7  and  C_12
REMARK    5  A    between atoms: C_8  and  C_13
REMARK    6  A    between atoms: C_8  and  C_14
REMARK    7  A    between atoms: C_9  and  C_16
REMARK    8  A    between atoms: C_11  and  C_15
REMARK                            x       y       z     vdW  Elec       q    Type
REMARK                         _______ _______ _______ _____ _____    ______ ____
ROOT
ATOM      4  C   UNL     1      13.115   9.053  20.544  0.00  0.00    +0.001 C 
ATOM      5  C   UNL     1      13.166  10.168  19.489  0.00  0.00    +0.012 C 
ATOM      6  C   UNL     1      12.801   9.656  18.082  0.00  0.00    +0.023 C 
ATOM      7  C   UNL     1      11.698   8.429  20.602  0.00  0.00    +0.040 C 
ATOM      9  C   UNL     1      11.551   8.800  18.102  0.00  0.00    -0.073 C 
ATOM     10  C   UNL     1      11.065   8.271  19.239  0.00  0.00    -0.022 C 
ATOM     16  C   UNL     1      10.844   8.602  16.790  0.00  0.00    +0.039 C 
ENDROOT
BRANCH   4   8
ATOM      8  C   UNL     1      13.548   9.608  21.905  0.00  0.00    -0.013 C 
ATOM     13  C   UNL     1      14.947   9.116  22.259  0.00  0.00    +0.007 C 
ATOM     14  C   UNL     1      13.497  11.133  21.899  0.00  0.00    +0.007 C 
ENDBRANCH   4   8
BRANCH   6  11
ATOM     11  C   UNL     1      13.973   8.899  17.448  0.00  0.00    +0.103 C 
BRANCH  11  15
ATOM      2  O   UNL     1      13.722   8.651  15.093  0.00  0.00    -0.276 OA
ATOM      3  N   UNL     1      14.830  10.534  15.843  0.00  0.00    -0.301 N 
ATOM     15  C   UNL     1      14.155   9.341  16.018  0.00  0.00    +0.216 C 
ATOM     17  C   UNL     1      15.093  11.093  14.525  0.00  0.00    +0.108 C 
ATOM     18  C   UNL     1      15.364  11.397  16.893  0.00  0.00    +0.108 C 
ATOM     19  C   UNL     1      15.543  12.519  14.799  0.00  0.00    +0.020 C 
ATOM     20  C   UNL     1      16.233  12.403  16.152  0.00  0.00    +0.020 C 
ENDBRANCH  11  15
ENDBRANCH   6  11
BRANCH   7  12
ATOM     12  C   UNL     1      11.721   7.072  21.316  0.00  0.00    +0.163 C 
BRANCH  12   1
ATOM      1  O   UNL     1      11.688   6.055  20.335  0.00  0.00    -0.394 OA
ATOM     21  H   UNL     1      11.852   5.212  20.788  0.00  0.00    +0.209 HD
ENDBRANCH  12   1
ENDBRANCH   7  12
TORSDOF 5
ENDMDL
MODEL 9
REMARK VINA RESULT:      -5.2     24.067     26.303
REMARK  Name = 38030183
REMARK  8 active torsions:
REMARK  status: ('A' for Active; 'I' for Inactive)
REMARK    1  A    between atoms: O_1  and  C_12
REMARK    2  A    between atoms: C_4  and  C_8
REMARK    3  A    between atoms: C_6  and  C_11
REMARK    4  A    between atoms: C_7  and  C_12
REMARK    5  A    between atoms: C_8  and  C_13
REMARK    6  A    between atoms: C_8  and  C_14
REMARK    7  A    between atoms: C_9  and  C_16
REMARK    8  A    between atoms: C_11  and  C_15
REMARK                            x       y       z     vdW  Elec       q    Type
REMARK                         _______ _______ _______ _____ _____    ______ ____
ROOT
ATOM      4  C   UNL     1     -12.625   8.427  20.109  0.00  0.00    +0.001 C 
ATOM      5  C   UNL     1     -11.710   7.777  19.060  0.00  0.00    +0.012 C 
ATOM      6  C   UNL     1     -11.290   8.769  17.958  0.00  0.00    +0.023 C 
ATOM      7  C   UNL     1     -11.912   9.629  20.777  0.00  0.00    +0.040 C 
ATOM      9  C   UNL     1     -10.824  10.089  18.538  0.00  0.00    -0.073 C 
ATOM     10  C   UNL     1     -11.100  10.451  19.803  0.00  0.00    -0.022 C 
ATOM     16  C   UNL     1      -9.993  10.966  17.643  0.00  0.00    +0.039 C 
ENDROOT
BRANCH   4   8
ATOM      8  C   UNL     1     -13.059   7.380  21.139  0.00  0.00    -0.013 C 
ATOM     13  C   UNL     1     -14.469   6.885  20.833  0.00  0.00    +0.007 C 
ATOM     14  C   UNL     1     -12.072   6.217  21.163  0.00  0.00    +0.007 C 
ENDBRANCH   4   8
BRANCH   6  11
ATOM     11  C   UNL     1     -12.421   8.983  16.947  0.00  0.00    +0.103 C 
BRANCH  11  15
ATOM      2  O   UNL     1     -10.802   8.585  15.247  0.00  0.00    -0.276 OA
ATOM      3  N   UNL     1     -12.991   8.019  14.772  0.00  0.00    -0.301 N 
ATOM     15  C   UNL     1     -11.985   8.512  15.583  0.00  0.00    +0.216 C 
ATOM     17  C   UNL     1     -12.735   7.532  13.425  0.00  0.00    +0.108 C 
ATOM     18  C   UNL     1     -14.407   7.903  15.110  0.00  0.00    +0.108 C 
ATOM     19  C   UNL     1     -14.010   6.802  13.035  0.00  0.00    +0.020 C 
ATOM     20  C   UNL     1     -15.086   7.573  13.789  0.00  0.00    +0.020 C 
ENDBRANCH  11  15
ENDBRANCH   6  11
BRANCH   7  12
ATOM     12  C   UNL     1     -12.916  10.537  21.498  0.00  0.00    +0.163 C 
BRANCH  12   1
ATOM      1  O   UNL     1     -12.216  11.650  22.015  0.00  0.00    -0.394 OA
ATOM     21  H   UNL     1     -11.306  11.360  22.196  0.00  0.00    +0.209 HD
ENDBRANCH  12   1
ENDBRANCH   7  12
TORSDOF 5
ENDMDL
MODEL 10
REMARK VINA RESULT:      -5.1      2.230      6.079
REMARK  Name = 38030183
REMARK  8 active torsions:
REMARK  status: ('A' for Active; 'I' for Inactive)
REMARK    1  A    between atoms: O_1  and  C_12
REMARK    2  A    between atoms: C_4  and  C_8
REMARK    3  A    between atoms: C_6  and  C_11
REMARK    4  A    between atoms: C_7  and  C_12
REMARK    5  A    between atoms: C_8  and  C_13
REMARK    6  A    between atoms: C_8  and  C_14
REMARK    7  A    between atoms: C_9  and  C_16
REMARK    8  A    between atoms: C_11  and  C_15
REMARK                            x       y       z     vdW  Elec       q    Type
REMARK                         _______ _______ _______ _____ _____    ______ ____
ROOT
ATOM      4  C   UNL     1      15.085   8.284  20.500  0.00  0.00    +0.001 C 
ATOM      5  C   UNL     1      14.531   8.315  21.933  0.00  0.00    +0.012 C 
ATOM      6  C   UNL     1      13.002   8.498  21.963  0.00  0.00    +0.023 C 
ATOM      7  C   UNL     1      14.438   7.130  19.696  0.00  0.00    +0.040 C 
ATOM      9  C   UNL     1      12.305   7.570  20.988  0.00  0.00    -0.073 C 
ATOM     10  C   UNL     1      12.965   6.958  19.989  0.00  0.00    -0.022 C 
ATOM     16  C   UNL     1      10.840   7.327  21.214  0.00  0.00    +0.039 C 
ENDROOT
BRANCH   4   8
ATOM      8  C   UNL     1      16.612   8.165  20.538  0.00  0.00    -0.013 C 
ATOM     13  C   UNL     1      17.209   9.249  21.429  0.00  0.00    +0.007 C 
ATOM     14  C   UNL     1      17.026   6.778  21.022  0.00  0.00    +0.007 C 
ENDBRANCH   4   8
BRANCH   6  11
ATOM     11  C   UNL     1      12.615   9.958  21.703  0.00  0.00    +0.103 C 
BRANCH  11  15
ATOM      2  O   UNL     1      10.684  10.193  23.077  0.00  0.00    -0.276 OA
ATOM      3  N   UNL     1      12.574  11.364  23.704  0.00  0.00    -0.301 N 
ATOM     15  C   UNL     1      11.861  10.507  22.887  0.00  0.00    +0.216 C 
ATOM     17  C   UNL     1      11.987  11.984  24.882  0.00  0.00    +0.108 C 
ATOM     18  C   UNL     1      13.966  11.772  23.537  0.00  0.00    +0.108 C 
ATOM     19  C   UNL     1      13.172  12.559  25.641  0.00  0.00    +0.020 C 
ATOM     20  C   UNL     1      14.148  12.915  24.526  0.00  0.00    +0.020 C 
ENDBRANCH  11  15
ENDBRANCH   6  11
BRANCH   7  12
ATOM     12  C   UNL     1      14.639   7.326  18.188  0.00  0.00    +0.163 C 
BRANCH  12   1
ATOM      1  O   UNL     1      14.291   8.658  17.865  0.00  0.00    -0.394 OA
ATOM     21  H   UNL     1      14.142   9.129  18.702  0.00  0.00    +0.209 HD
ENDBRANCH  12   1
ENDBRANCH   7  12
TORSDOF 5
ENDMDL
