MODEL 1
REMARK VINA RESULT:      -7.7      0.000      0.000
REMARK  Name = 7144180
REMARK  4 active torsions:
REMARK  status: ('A' for Active; 'I' for Inactive)
REMARK    1  A    between atoms: O_6  and  C_32
REMARK    2  A    between atoms: O_6  and  C_33
REMARK    3  A    between atoms: C_16  and  C_17
REMARK    4  A    between atoms: C_20  and  C_27
REMARK                            x       y       z     vdW  Elec       q    Type
REMARK                         _______ _______ _______ _____ _____    ______ ____
ROOT
ATOM      4  O   UNL     1      11.600  12.143  21.262  0.00  0.00    -0.275 OA
ATOM      5  O   UNL     1      11.286   9.055  17.007  0.00  0.00    -0.268 OA
ATOM      7  N   UNL     1      12.373  10.015  21.780  0.00  0.00    -0.300 N 
ATOM      8  N   UNL     1      12.259   8.407  19.036  0.00  0.00    -0.311 N 
ATOM      9  C   UNL     1      10.859   8.135  21.167  0.00  0.00    +0.027 C 
ATOM     10  C   UNL     1      13.289   7.764  21.238  0.00  0.00    +0.054 C 
ATOM     11  C   UNL     1      11.936   7.139  21.573  0.00  0.00    +0.018 C 
ATOM     12  C   UNL     1      11.027   9.460  21.927  0.00  0.00    +0.113 C 
ATOM     13  C   UNL     1      13.464   9.070  22.044  0.00  0.00    +0.117 C 
ATOM     14  C   UNL     1      10.927   8.331  19.652  0.00  0.00    +0.130 C 
ATOM     15  C   UNL     1      13.426   8.046  19.739  0.00  0.00    +0.034 A 
ATOM     17  C   UNL     1      12.534  11.368  21.480  0.00  0.00    +0.219 C 
ATOM     20  C   UNL     1      14.616   7.986  19.088  0.00  0.00    +0.002 A 
ATOM     23  C   UNL     1      12.275   8.746  17.672  0.00  0.00    +0.252 A 
ATOM     25  C   UNL     1      14.673   8.332  17.680  0.00  0.00    +0.015 A 
ATOM     26  C   UNL     1      13.592   8.707  16.996  0.00  0.00    +0.071 A 
ENDROOT
BRANCH  17  16
ATOM     16  C   UNL     1      13.942  11.879  21.417  0.00  0.00    +0.075 C 
ATOM     18  C   UNL     1      14.511  11.665  20.013  0.00  0.00    +0.013 C 
ATOM     19  C   UNL     1      13.979  13.355  21.817  0.00  0.00    +0.013 C 
ATOM     21  C   UNL     1      15.912  12.257  19.877  0.00  0.00    +0.001 C 
ATOM     22  C   UNL     1      15.381  13.943  21.676  0.00  0.00    +0.001 C 
ATOM     24  C   UNL     1      15.943  13.729  20.274  0.00  0.00    +0.000 C 
ENDBRANCH  17  16
BRANCH  20  27
ATOM     27  C   UNL     1      15.864   7.594  19.780  0.00  0.00    -0.016 A 
ATOM     28  C   UNL     1      16.572   8.538  20.517  0.00  0.00    +0.012 A 
ATOM     29  C   UNL     1      16.321   6.282  19.688  0.00  0.00    +0.012 A 
ATOM     30  C   UNL     1      17.749   8.167  21.168  0.00  0.00    +0.046 A 
ATOM     31  C   UNL     1      17.498   5.912  20.340  0.00  0.00    +0.046 A 
ATOM     32  C   UNL     1      18.211   6.854  21.080  0.00  0.00    +0.130 A 
BRANCH  32   6
ATOM      6  O   UNL     1      19.358   6.493  21.717  0.00  0.00    -0.406 OA
BRANCH   6  33
ATOM      1  F   UNL     1      21.582   6.110  21.752  0.00  0.00    -0.133 F 
ATOM      2  F   UNL     1      20.389   5.098  20.227  0.00  0.00    -0.133 F 
ATOM      3  F   UNL     1      20.766   7.272  20.092  0.00  0.00    -0.133 F 
ATOM     33  C   UNL     1      20.517   6.244  20.930  0.00  0.00    +0.575 C 
ENDBRANCH   6  33
ENDBRANCH  32   6
ENDBRANCH  20  27
TORSDOF 4
ENDMDL
MODEL 2
REMARK VINA RESULT:      -7.2     14.265     17.762
REMARK  Name = 7144180
REMARK  4 active torsions:
REMARK  status: ('A' for Active; 'I' for Inactive)
REMARK    1  A    between atoms: O_6  and  C_32
REMARK    2  A    between atoms: O_6  and  C_33
REMARK    3  A    between atoms: C_16  and  C_17
REMARK    4  A    between atoms: C_20  and  C_27
REMARK                            x       y       z     vdW  Elec       q    Type
REMARK                         _______ _______ _______ _____ _____    ______ ____
ROOT
ATOM      4  O   UNL     1      14.221   7.543   0.436  0.00  0.00    -0.275 OA
ATOM      5  O   UNL     1       9.427   9.726   0.473  0.00  0.00    -0.268 OA
ATOM      7  N   UNL     1      13.758   8.381   2.553  0.00  0.00    -0.300 N 
ATOM      8  N   UNL     1      10.772   9.469   2.372  0.00  0.00    -0.311 N 
ATOM      9  C   UNL     1      12.980  10.745   2.635  0.00  0.00    +0.027 C 
ATOM     10  C   UNL     1      12.259   9.169   4.378  0.00  0.00    +0.054 C 
ATOM     11  C   UNL     1      12.717  10.604   4.126  0.00  0.00    +0.018 C 
ATOM     12  C   UNL     1      14.068   9.761   2.177  0.00  0.00    +0.113 C 
ATOM     13  C   UNL     1      13.379   8.193   3.959  0.00  0.00    +0.117 C 
ATOM     14  C   UNL     1      11.663  10.532   1.887  0.00  0.00    +0.130 C 
ATOM     15  C   UNL     1      10.966   8.847   3.623  0.00  0.00    +0.034 A 
ATOM     17  C   UNL     1      13.901   7.359   1.613  0.00  0.00    +0.219 C 
ATOM     20  C   UNL     1      10.036   7.979   4.099  0.00  0.00    +0.002 A 
ATOM     23  C   UNL     1       9.653   9.202   1.564  0.00  0.00    +0.252 A 
ATOM     25  C   UNL     1       8.870   7.677   3.290  0.00  0.00    +0.015 A 
ATOM     26  C   UNL     1       8.673   8.225   2.091  0.00  0.00    +0.071 A 
ENDROOT
BRANCH  17  16
ATOM     16  C   UNL     1      13.635   5.963   2.093  0.00  0.00    +0.075 C 
ATOM     18  C   UNL     1      12.153   5.626   1.915  0.00  0.00    +0.013 C 
ATOM     19  C   UNL     1      14.528   4.975   1.341  0.00  0.00    +0.013 C 
ATOM     21  C   UNL     1      11.854   4.180   2.304  0.00  0.00    +0.001 C 
ATOM     22  C   UNL     1      14.223   3.531   1.730  0.00  0.00    +0.001 C 
ATOM     24  C   UNL     1      12.745   3.198   1.549  0.00  0.00    +0.000 C 
ENDBRANCH  17  16
BRANCH  20  27
ATOM     27  C   UNL     1      10.188   7.318   5.413  0.00  0.00    -0.016 A 
ATOM     28  C   UNL     1       9.815   7.990   6.573  0.00  0.00    +0.012 A 
ATOM     29  C   UNL     1      10.704   6.027   5.480  0.00  0.00    +0.012 A 
ATOM     30  C   UNL     1       9.959   7.365   7.812  0.00  0.00    +0.046 A 
ATOM     31  C   UNL     1      10.848   5.402   6.719  0.00  0.00    +0.046 A 
ATOM     32  C   UNL     1      10.475   6.071   7.885  0.00  0.00    +0.130 A 
BRANCH  32   6
ATOM      6  O   UNL     1      10.614   5.461   9.094  0.00  0.00    -0.406 OA
BRANCH   6  33
ATOM      1  F   UNL     1       9.850   4.222  10.818  0.00  0.00    -0.133 F 
ATOM      2  F   UNL     1       8.436   5.529   9.785  0.00  0.00    -0.133 F 
ATOM      3  F   UNL     1       9.188   3.698   8.802  0.00  0.00    -0.133 F 
ATOM     33  C   UNL     1       9.509   4.729   9.611  0.00  0.00    +0.575 C 
ENDBRANCH   6  33
ENDBRANCH  32   6
ENDBRANCH  20  27
TORSDOF 4
ENDMDL
MODEL 3
REMARK VINA RESULT:      -6.9     14.838     17.941
REMARK  Name = 7144180
REMARK  4 active torsions:
REMARK  status: ('A' for Active; 'I' for Inactive)
REMARK    1  A    between atoms: O_6  and  C_32
REMARK    2  A    between atoms: O_6  and  C_33
REMARK    3  A    between atoms: C_16  and  C_17
REMARK    4  A    between atoms: C_20  and  C_27
REMARK                            x       y       z     vdW  Elec       q    Type
REMARK                         _______ _______ _______ _____ _____    ______ ____
ROOT
ATOM      4  O   UNL     1      10.761  10.716   6.711  0.00  0.00    -0.275 OA
ATOM      5  O   UNL     1      10.898   5.892   8.821  0.00  0.00    -0.268 OA
ATOM      7  N   UNL     1      11.965   9.291   5.328  0.00  0.00    -0.300 N 
ATOM      8  N   UNL     1      11.751   6.430   6.707  0.00  0.00    -0.311 N 
ATOM      9  C   UNL     1      13.773   7.982   6.433  0.00  0.00    +0.027 C 
ATOM     10  C   UNL     1      12.652   7.065   4.447  0.00  0.00    +0.054 C 
ATOM     11  C   UNL     1      14.004   7.214   5.140  0.00  0.00    +0.018 C 
ATOM     12  C   UNL     1      13.177   9.369   6.145  0.00  0.00    +0.113 C 
ATOM     13  C   UNL     1      12.086   8.464   4.120  0.00  0.00    +0.117 C 
ATOM     14  C   UNL     1      12.868   7.146   7.339  0.00  0.00    +0.130 C 
ATOM     15  C   UNL     1      11.658   6.281   5.309  0.00  0.00    +0.034 A 
ATOM     17  C   UNL     1      10.838  10.029   5.690  0.00  0.00    +0.219 C 
ATOM     20  C   UNL     1      10.694   5.485   4.776  0.00  0.00    +0.002 A 
ATOM     23  C   UNL     1      10.855   5.807   7.593  0.00  0.00    +0.252 A 
ATOM     25  C   UNL     1       9.749   4.828   5.660  0.00  0.00    +0.015 A 
ATOM     26  C   UNL     1       9.793   4.975   6.983  0.00  0.00    +0.071 A 
ENDROOT
BRANCH  17  16
ATOM     16  C   UNL     1       9.660   9.954   4.764  0.00  0.00    +0.075 C 
ATOM     18  C   UNL     1       8.804   8.733   5.110  0.00  0.00    +0.013 C 
ATOM     19  C   UNL     1       8.849  11.248   4.847  0.00  0.00    +0.013 C 
ATOM     21  C   UNL     1       7.543   8.670   4.252  0.00  0.00    +0.001 C 
ATOM     22  C   UNL     1       7.587  11.178   3.991  0.00  0.00    +0.001 C 
ATOM     24  C   UNL     1       6.736   9.961   4.341  0.00  0.00    +0.000 C 
ENDBRANCH  17  16
BRANCH  20  27
ATOM     27  C   UNL     1      10.570   5.283   3.316  0.00  0.00    -0.016 A 
ATOM     28  C   UNL     1       9.910   6.232   2.540  0.00  0.00    +0.012 A 
ATOM     29  C   UNL     1      11.114   4.145   2.728  0.00  0.00    +0.012 A 
ATOM     30  C   UNL     1       9.793   6.039   1.163  0.00  0.00    +0.046 A 
ATOM     31  C   UNL     1      10.996   3.953   1.351  0.00  0.00    +0.046 A 
ATOM     32  C   UNL     1      10.336   4.901   0.569  0.00  0.00    +0.130 A 
BRANCH  32   6
ATOM      6  O   UNL     1      10.223   4.715  -0.775  0.00  0.00    -0.406 OA
BRANCH   6  33
ATOM      1  F   UNL     1      11.977   3.632  -1.691  0.00  0.00    -0.133 F 
ATOM      2  F   UNL     1      11.084   5.278  -2.816  0.00  0.00    -0.133 F 
ATOM      3  F   UNL     1      12.281   5.684  -1.003  0.00  0.00    -0.133 F 
ATOM     33  C   UNL     1      11.392   4.846  -1.575  0.00  0.00    +0.575 C 
ENDBRANCH   6  33
ENDBRANCH  32   6
ENDBRANCH  20  27
TORSDOF 4
ENDMDL
MODEL 4
REMARK VINA RESULT:      -6.9     14.657     17.422
REMARK  Name = 7144180
REMARK  4 active torsions:
REMARK  status: ('A' for Active; 'I' for Inactive)
REMARK    1  A    between atoms: O_6  and  C_32
REMARK    2  A    between atoms: O_6  and  C_33
REMARK    3  A    between atoms: C_16  and  C_17
REMARK    4  A    between atoms: C_20  and  C_27
REMARK                            x       y       z     vdW  Elec       q    Type
REMARK                         _______ _______ _______ _____ _____    ______ ____
ROOT
ATOM      4  O   UNL     1      11.757   9.755   7.715  0.00  0.00    -0.275 OA
ATOM      5  O   UNL     1       7.196   9.571   5.087  0.00  0.00    -0.268 OA
ATOM      7  N   UNL     1      11.352   7.582   7.000  0.00  0.00    -0.300 N 
ATOM      8  N   UNL     1       8.667   7.762   5.299  0.00  0.00    -0.311 N 
ATOM      9  C   UNL     1       9.112   6.654   7.569  0.00  0.00    +0.027 C 
ATOM     10  C   UNL     1      10.284   5.853   5.562  0.00  0.00    +0.054 C 
ATOM     11  C   UNL     1       9.418   5.415   6.741  0.00  0.00    +0.018 C 
ATOM     12  C   UNL     1      10.408   7.301   8.082  0.00  0.00    +0.113 C 
ATOM     13  C   UNL     1      11.603   6.457   6.090  0.00  0.00    +0.117 C 
ATOM     14  C   UNL     1       8.291   7.619   6.713  0.00  0.00    +0.130 C 
ATOM     15  C   UNL     1       9.557   6.866   4.672  0.00  0.00    +0.034 A 
ATOM     17  C   UNL     1      11.985   8.824   6.938  0.00  0.00    +0.219 C 
ATOM     20  C   UNL     1       9.760   6.943   3.331  0.00  0.00    +0.002 A 
ATOM     23  C   UNL     1       7.992   8.772   4.593  0.00  0.00    +0.252 A 
ATOM     25  C   UNL     1       9.083   7.975   2.569  0.00  0.00    +0.015 A 
ATOM     26  C   UNL     1       8.260   8.855   3.139  0.00  0.00    +0.071 A 
ENDROOT
BRANCH  17  16
ATOM     16  C   UNL     1      12.992   9.012   5.843  0.00  0.00    +0.075 C 
ATOM     18  C   UNL     1      12.304   9.561   4.592  0.00  0.00    +0.013 C 
ATOM     19  C   UNL     1      14.112   9.939   6.319  0.00  0.00    +0.013 C 
ATOM     21  C   UNL     1      13.309   9.855   3.481  0.00  0.00    +0.001 C 
ATOM     22  C   UNL     1      15.112  10.234   5.204  0.00  0.00    +0.001 C 
ATOM     24  C   UNL     1      14.422  10.783   3.959  0.00  0.00    +0.000 C 
ENDBRANCH  17  16
BRANCH  20  27
ATOM     27  C   UNL     1      10.669   6.012   2.626  0.00  0.00    -0.016 A 
ATOM     28  C   UNL     1      12.019   6.328   2.499  0.00  0.00    +0.012 A 
ATOM     29  C   UNL     1      10.168   4.828   2.095  0.00  0.00    +0.012 A 
ATOM     30  C   UNL     1      12.875   5.450   1.834  0.00  0.00    +0.046 A 
ATOM     31  C   UNL     1      11.025   3.950   1.430  0.00  0.00    +0.046 A 
ATOM     32  C   UNL     1      12.378   4.261   1.300  0.00  0.00    +0.130 A 
BRANCH  32   6
ATOM      6  O   UNL     1      13.214   3.404   0.652  0.00  0.00    -0.406 OA
BRANCH   6  33
ATOM      1  F   UNL     1      12.792   2.454  -1.351  0.00  0.00    -0.133 F 
ATOM      2  F   UNL     1      12.710   4.633  -1.210  0.00  0.00    -0.133 F 
ATOM      3  F   UNL     1      14.651   3.579  -1.118  0.00  0.00    -0.133 F 
ATOM     33  C   UNL     1      13.352   3.534  -0.758  0.00  0.00    +0.575 C 
ENDBRANCH   6  33
ENDBRANCH  32   6
ENDBRANCH  20  27
TORSDOF 4
ENDMDL
MODEL 5
REMARK VINA RESULT:      -6.6     27.140     30.112
REMARK  Name = 7144180
REMARK  4 active torsions:
REMARK  status: ('A' for Active; 'I' for Inactive)
REMARK    1  A    between atoms: O_6  and  C_32
REMARK    2  A    between atoms: O_6  and  C_33
REMARK    3  A    between atoms: C_16  and  C_17
REMARK    4  A    between atoms: C_20  and  C_27
REMARK                            x       y       z     vdW  Elec       q    Type
REMARK                         _______ _______ _______ _____ _____    ______ ____
ROOT
ATOM      4  O   UNL     1      -9.377 -13.756  17.620  0.00  0.00    -0.275 OA
ATOM      5  O   UNL     1      -5.958 -11.462  20.905  0.00  0.00    -0.268 OA
ATOM      7  N   UNL     1      -8.361 -11.956  16.561  0.00  0.00    -0.300 N 
ATOM      8  N   UNL     1      -6.231 -10.863  18.658  0.00  0.00    -0.311 N 
ATOM      9  C   UNL     1      -8.405  -9.801  17.808  0.00  0.00    +0.027 C 
ATOM     10  C   UNL     1      -6.568 -10.260  16.239  0.00  0.00    +0.054 C 
ATOM     11  C   UNL     1      -7.513  -9.173  16.747  0.00  0.00    +0.018 C 
ATOM     12  C   UNL     1      -9.215 -10.966  17.219  0.00  0.00    +0.113 C 
ATOM     13  C   UNL     1      -7.392 -11.402  15.607  0.00  0.00    +0.117 C 
ATOM     14  C   UNL     1      -7.527 -10.248  18.977  0.00  0.00    +0.130 C 
ATOM     15  C   UNL     1      -5.680 -10.806  17.361  0.00  0.00    +0.034 A 
ATOM     17  C   UNL     1      -8.556 -13.315  16.814  0.00  0.00    +0.219 C 
ATOM     20  C   UNL     1      -4.416 -11.253  17.144  0.00  0.00    +0.002 A 
ATOM     23  C   UNL     1      -5.531 -11.401  19.751  0.00  0.00    +0.252 A 
ATOM     25  C   UNL     1      -3.664 -11.818  18.248  0.00  0.00    +0.015 A 
ATOM     26  C   UNL     1      -4.169 -11.913  19.478  0.00  0.00    +0.071 A 
ENDROOT
BRANCH  17  16
ATOM     16  C   UNL     1      -7.691 -14.271  16.048  0.00  0.00    +0.075 C 
ATOM     18  C   UNL     1      -6.347 -14.440  16.759  0.00  0.00    +0.013 C 
ATOM     19  C   UNL     1      -8.412 -15.611  15.886  0.00  0.00    +0.013 C 
ATOM     21  C   UNL     1      -5.469 -15.479  16.063  0.00  0.00    +0.001 C 
ATOM     22  C   UNL     1      -7.529 -16.646  15.194  0.00  0.00    +0.001 C 
ATOM     24  C   UNL     1      -6.191 -16.814  15.908  0.00  0.00    +0.000 C 
ENDBRANCH  17  16
BRANCH  20  27
ATOM     27  C   UNL     1      -3.789 -11.196  15.805  0.00  0.00    -0.016 A 
ATOM     28  C   UNL     1      -4.285 -11.990  14.775  0.00  0.00    +0.012 A 
ATOM     29  C   UNL     1      -2.706 -10.350  15.585  0.00  0.00    +0.012 A 
ATOM     30  C   UNL     1      -3.693 -11.936  13.513  0.00  0.00    +0.046 A 
ATOM     31  C   UNL     1      -2.114 -10.296  14.323  0.00  0.00    +0.046 A 
ATOM     32  C   UNL     1      -2.607 -11.088  13.287  0.00  0.00    +0.130 A 
BRANCH  32   6
ATOM      6  O   UNL     1      -2.031 -11.036  12.055  0.00  0.00    -0.406 OA
BRANCH   6  33
ATOM      1  F   UNL     1      -2.958 -10.868  10.005  0.00  0.00    -0.133 F 
ATOM      2  F   UNL     1      -3.683  -9.530  11.572  0.00  0.00    -0.133 F 
ATOM      3  F   UNL     1      -1.678  -9.236  10.690  0.00  0.00    -0.133 F 
ATOM     33  C   UNL     1      -2.585 -10.151  11.089  0.00  0.00    +0.575 C 
ENDBRANCH   6  33
ENDBRANCH  32   6
ENDBRANCH  20  27
TORSDOF 4
ENDMDL
MODEL 6
REMARK VINA RESULT:      -6.6     28.191     30.209
REMARK  Name = 7144180
REMARK  4 active torsions:
REMARK  status: ('A' for Active; 'I' for Inactive)
REMARK    1  A    between atoms: O_6  and  C_32
REMARK    2  A    between atoms: O_6  and  C_33
REMARK    3  A    between atoms: C_16  and  C_17
REMARK    4  A    between atoms: C_20  and  C_27
REMARK                            x       y       z     vdW  Elec       q    Type
REMARK                         _______ _______ _______ _____ _____    ______ ____
ROOT
ATOM      4  O   UNL     1      -9.505 -10.069  18.817  0.00  0.00    -0.275 OA
ATOM      5  O   UNL     1      -7.752 -14.839  17.429  0.00  0.00    -0.268 OA
ATOM      7  N   UNL     1      -7.375  -9.887  17.908  0.00  0.00    -0.300 N 
ATOM      8  N   UNL     1      -6.618 -12.838  16.988  0.00  0.00    -0.311 N 
ATOM      9  C   UNL     1      -5.651 -11.400  18.878  0.00  0.00    +0.027 C 
ATOM     10  C   UNL     1      -5.442 -10.660  16.542  0.00  0.00    +0.054 C 
ATOM     11  C   UNL     1      -4.657 -10.939  17.822  0.00  0.00    +0.018 C 
ATOM     12  C   UNL     1      -6.711 -10.318  19.138  0.00  0.00    +0.113 C 
ATOM     13  C   UNL     1      -6.470  -9.539  16.805  0.00  0.00    +0.117 C 
ATOM     14  C   UNL     1      -6.278 -12.715  18.412  0.00  0.00    +0.130 C 
ATOM     15  C   UNL     1      -6.150 -11.917  16.028  0.00  0.00    +0.034 A 
ATOM     17  C   UNL     1      -8.765  -9.770  17.877  0.00  0.00    +0.219 C 
ATOM     20  C   UNL     1      -6.361 -12.152  14.707  0.00  0.00    +0.002 A 
ATOM     23  C   UNL     1      -7.334 -13.995  16.636  0.00  0.00    +0.252 A 
ATOM     25  C   UNL     1      -7.100 -13.334  14.306  0.00  0.00    +0.015 A 
ATOM     26  C   UNL     1      -7.580 -14.207  15.191  0.00  0.00    +0.071 A 
ENDROOT
BRANCH  17  16
ATOM     16  C   UNL     1      -9.368  -9.253  16.604  0.00  0.00    +0.075 C 
ATOM     18  C   UNL     1      -9.725 -10.424  15.686  0.00  0.00    +0.013 C 
ATOM     19  C   UNL     1     -10.594  -8.394  16.919  0.00  0.00    +0.013 C 
ATOM     21  C   UNL     1     -10.428  -9.949  14.416  0.00  0.00    +0.001 C 
ATOM     22  C   UNL     1     -11.295  -7.925  15.647  0.00  0.00    +0.001 C 
ATOM     24  C   UNL     1     -11.652  -9.095  14.735  0.00  0.00    +0.000 C 
ENDBRANCH  17  16
BRANCH  20  27
ATOM     27  C   UNL     1      -5.873 -11.223  13.664  0.00  0.00    -0.016 A 
ATOM     28  C   UNL     1      -6.766 -10.365  13.029  0.00  0.00    +0.012 A 
ATOM     29  C   UNL     1      -4.524 -11.216  13.324  0.00  0.00    +0.012 A 
ATOM     30  C   UNL     1      -6.305  -9.491  12.045  0.00  0.00    +0.046 A 
ATOM     31  C   UNL     1      -4.063 -10.341  12.339  0.00  0.00    +0.046 A 
ATOM     32  C   UNL     1      -4.953  -9.478  11.701  0.00  0.00    +0.130 A 
BRANCH  32   6
ATOM      6  O   UNL     1      -4.503  -8.624  10.741  0.00  0.00    -0.406 OA
BRANCH   6  33
ATOM      1  F   UNL     1      -3.917  -8.395   8.574  0.00  0.00    -0.133 F 
ATOM      2  F   UNL     1      -2.409  -9.127   9.975  0.00  0.00    -0.133 F 
ATOM      3  F   UNL     1      -4.102 -10.417   9.381  0.00  0.00    -0.133 F 
ATOM     33  C   UNL     1      -3.725  -9.156   9.676  0.00  0.00    +0.575 C 
ENDBRANCH   6  33
ENDBRANCH  32   6
ENDBRANCH  20  27
TORSDOF 4
ENDMDL
MODEL 7
REMARK VINA RESULT:      -6.5     13.836     17.029
REMARK  Name = 7144180
REMARK  4 active torsions:
REMARK  status: ('A' for Active; 'I' for Inactive)
REMARK    1  A    between atoms: O_6  and  C_32
REMARK    2  A    between atoms: O_6  and  C_33
REMARK    3  A    between atoms: C_16  and  C_17
REMARK    4  A    between atoms: C_20  and  C_27
REMARK                            x       y       z     vdW  Elec       q    Type
REMARK                         _______ _______ _______ _____ _____    ______ ____
ROOT
ATOM      4  O   UNL     1      14.145  10.664   2.268  0.00  0.00    -0.275 OA
ATOM      5  O   UNL     1      12.368   6.319  -0.122  0.00  0.00    -0.268 OA
ATOM      7  N   UNL     1      12.001  10.178   3.019  0.00  0.00    -0.300 N 
ATOM      8  N   UNL     1      11.228   7.443   1.587  0.00  0.00    -0.311 N 
ATOM      9  C   UNL     1      10.292   9.806   1.246  0.00  0.00    +0.027 C 
ATOM     10  C   UNL     1      10.046   8.691   3.423  0.00  0.00    +0.054 C 
ATOM     11  C   UNL     1       9.281   9.402   2.309  0.00  0.00    +0.018 C 
ATOM     12  C   UNL     1      11.356  10.745   1.834  0.00  0.00    +0.113 C 
ATOM     13  C   UNL     1      11.079   9.661   4.037  0.00  0.00    +0.117 C 
ATOM     14  C   UNL     1      10.910   8.537   0.658  0.00  0.00    +0.130 C 
ATOM     15  C   UNL     1      10.745   7.428   2.912  0.00  0.00    +0.034 A 
ATOM     17  C   UNL     1      13.390  10.224   3.138  0.00  0.00    +0.219 C 
ATOM     20  C   UNL     1      10.935   6.329   3.688  0.00  0.00    +0.002 A 
ATOM     23  C   UNL     1      11.937   6.365   1.031  0.00  0.00    +0.252 A 
ATOM     25  C   UNL     1      11.666   5.198   3.149  0.00  0.00    +0.015 A 
ATOM     26  C   UNL     1      12.160   5.195   1.911  0.00  0.00    +0.071 A 
ENDROOT
BRANCH  17  16
ATOM     16  C   UNL     1      13.973   9.688   4.413  0.00  0.00    +0.075 C 
ATOM     18  C   UNL     1      14.233   8.187   4.275  0.00  0.00    +0.013 C 
ATOM     19  C   UNL     1      15.254  10.449   4.760  0.00  0.00    +0.013 C 
ATOM     21  C   UNL     1      14.913   7.617   5.517  0.00  0.00    +0.001 C 
ATOM     22  C   UNL     1      15.932   9.873   6.000  0.00  0.00    +0.001 C 
ATOM     24  C   UNL     1      16.192   8.377   5.858  0.00  0.00    +0.000 C 
ENDBRANCH  17  16
BRANCH  20  27
ATOM     27  C   UNL     1      10.431   6.260   5.077  0.00  0.00    -0.016 A 
ATOM     28  C   UNL     1       9.074   6.058   5.311  0.00  0.00    +0.012 A 
ATOM     29  C   UNL     1      11.318   6.399   6.140  0.00  0.00    +0.012 A 
ATOM     30  C   UNL     1       8.600   5.994   6.622  0.00  0.00    +0.046 A 
ATOM     31  C   UNL     1      10.843   6.335   7.451  0.00  0.00    +0.046 A 
ATOM     32  C   UNL     1       9.485   6.131   7.691  0.00  0.00    +0.130 A 
BRANCH  32   6
ATOM      6  O   UNL     1       9.022   6.067   8.970  0.00  0.00    -0.406 OA
BRANCH   6  33
ATOM      1  F   UNL     1      10.316   4.955  10.446  0.00  0.00    -0.133 F 
ATOM      2  F   UNL     1       8.158   4.626  10.520  0.00  0.00    -0.133 F 
ATOM      3  F   UNL     1       9.356   3.809   8.853  0.00  0.00    -0.133 F 
ATOM     33  C   UNL     1       9.199   4.854   9.691  0.00  0.00    +0.575 C 
ENDBRANCH   6  33
ENDBRANCH  32   6
ENDBRANCH  20  27
TORSDOF 4
ENDMDL
MODEL 8
REMARK VINA RESULT:      -6.5      3.114      4.448
REMARK  Name = 7144180
REMARK  4 active torsions:
REMARK  status: ('A' for Active; 'I' for Inactive)
REMARK    1  A    between atoms: O_6  and  C_32
REMARK    2  A    between atoms: O_6  and  C_33
REMARK    3  A    between atoms: C_16  and  C_17
REMARK    4  A    between atoms: C_20  and  C_27
REMARK                            x       y       z     vdW  Elec       q    Type
REMARK                         _______ _______ _______ _____ _____    ______ ____
ROOT
ATOM      4  O   UNL     1      10.580   8.705  21.718  0.00  0.00    -0.275 OA
ATOM      5  O   UNL     1      12.565   9.304  16.876  0.00  0.00    -0.268 OA
ATOM      7  N   UNL     1      12.885   8.426  21.776  0.00  0.00    -0.300 N 
ATOM      8  N   UNL     1      13.861   9.012  18.804  0.00  0.00    -0.311 N 
ATOM      9  C   UNL     1      13.823   6.814  20.125  0.00  0.00    +0.027 C 
ATOM     10  C   UNL     1      15.203   8.693  20.907  0.00  0.00    +0.054 C 
ATOM     11  C   UNL     1      15.231   7.210  20.543  0.00  0.00    +0.018 C 
ATOM     12  C   UNL     1      12.826   7.054  21.270  0.00  0.00    +0.113 C 
ATOM     13  C   UNL     1      14.234   8.912  22.089  0.00  0.00    +0.117 C 
ATOM     14  C   UNL     1      13.451   7.602  18.868  0.00  0.00    +0.130 C 
ATOM     15  C   UNL     1      14.787   9.560  19.715  0.00  0.00    +0.034 A 
ATOM     17  C   UNL     1      11.703   9.136  21.989  0.00  0.00    +0.219 C 
ATOM     20  C   UNL     1      15.253  10.822  19.528  0.00  0.00    +0.002 A 
ATOM     23  C   UNL     1      13.362   9.737  17.708  0.00  0.00    +0.252 A 
ATOM     25  C   UNL     1      14.758  11.602  18.410  0.00  0.00    +0.015 A 
ATOM     26  C   UNL     1      13.860  11.123  17.550  0.00  0.00    +0.071 A 
ENDROOT
BRANCH  17  16
ATOM     16  C   UNL     1      11.840  10.509  22.578  0.00  0.00    +0.075 C 
ATOM     18  C   UNL     1      11.778  11.559  21.467  0.00  0.00    +0.013 C 
ATOM     19  C   UNL     1      10.751  10.737  23.626  0.00  0.00    +0.013 C 
ATOM     21  C   UNL     1      11.820  12.977  22.031  0.00  0.00    +0.001 C 
ATOM     22  C   UNL     1      10.795  12.157  24.184  0.00  0.00    +0.001 C 
ATOM     24  C   UNL     1      10.730  13.202  23.074  0.00  0.00    +0.000 C 
ENDBRANCH  17  16
BRANCH  20  27
ATOM     27  C   UNL     1      16.239  11.432  20.447  0.00  0.00    -0.016 A 
ATOM     28  C   UNL     1      15.800  12.168  21.544  0.00  0.00    +0.012 A 
ATOM     29  C   UNL     1      17.600  11.265  20.207  0.00  0.00    +0.012 A 
ATOM     30  C   UNL     1      16.732  12.743  22.409  0.00  0.00    +0.046 A 
ATOM     31  C   UNL     1      18.531  11.841  21.073  0.00  0.00    +0.046 A 
ATOM     32  C   UNL     1      18.097  12.579  22.173  0.00  0.00    +0.130 A 
BRANCH  32   6
ATOM      6  O   UNL     1      19.004  13.139  23.019  0.00  0.00    -0.406 OA
BRANCH   6  33
ATOM      1  F   UNL     1      20.513  12.881  24.677  0.00  0.00    -0.133 F 
ATOM      2  F   UNL     1      18.393  12.729  25.184  0.00  0.00    -0.133 F 
ATOM      3  F   UNL     1      19.384  11.125  24.031  0.00  0.00    -0.133 F 
ATOM     33  C   UNL     1      19.309  12.457  24.229  0.00  0.00    +0.575 C 
ENDBRANCH   6  33
ENDBRANCH  32   6
ENDBRANCH  20  27
TORSDOF 4
ENDMDL
MODEL 9
REMARK VINA RESULT:      -6.4     13.480     16.625
REMARK  Name = 7144180
REMARK  4 active torsions:
REMARK  status: ('A' for Active; 'I' for Inactive)
REMARK    1  A    between atoms: O_6  and  C_32
REMARK    2  A    between atoms: O_6  and  C_33
REMARK    3  A    between atoms: C_16  and  C_17
REMARK    4  A    between atoms: C_20  and  C_27
REMARK                            x       y       z     vdW  Elec       q    Type
REMARK                         _______ _______ _______ _____ _____    ______ ____
ROOT
ATOM      4  O   UNL     1      15.316  -3.807  33.229  0.00  0.00    -0.275 OA
ATOM      5  O   UNL     1      20.538  -4.488  33.152  0.00  0.00    -0.268 OA
ATOM      7  N   UNL     1      16.271  -2.356  31.687  0.00  0.00    -0.300 N 
ATOM      8  N   UNL     1      19.372  -3.079  31.690  0.00  0.00    -0.311 N 
ATOM      9  C   UNL     1      18.166  -0.977  32.529  0.00  0.00    +0.027 C 
ATOM     10  C   UNL     1      18.068  -1.579  30.148  0.00  0.00    +0.054 C 
ATOM     11  C   UNL     1      18.407  -0.453  31.122  0.00  0.00    +0.018 C 
ATOM     12  C   UNL     1      16.701  -1.402  32.710  0.00  0.00    +0.113 C 
ATOM     13  C   UNL     1      16.581  -1.964  30.307  0.00  0.00    +0.117 C 
ATOM     14  C   UNL     1      19.134  -2.132  32.789  0.00  0.00    +0.130 C 
ATOM     15  C   UNL     1      18.958  -2.806  30.370  0.00  0.00    +0.034 A 
ATOM     17  C   UNL     1      15.563  -3.499  32.061  0.00  0.00    +0.219 C 
ATOM     20  C   UNL     1      19.330  -3.634  29.360  0.00  0.00    +0.002 A 
ATOM     23  C   UNL     1      20.139  -4.209  32.020  0.00  0.00    +0.252 A 
ATOM     25  C   UNL     1      20.119  -4.813  29.664  0.00  0.00    +0.015 A 
ATOM     26  C   UNL     1      20.499  -5.114  30.905  0.00  0.00    +0.071 A 
ENDROOT
BRANCH  17  16
ATOM     16  C   UNL     1      15.095  -4.392  30.950  0.00  0.00    +0.075 C 
ATOM     18  C   UNL     1      16.232  -5.318  30.514  0.00  0.00    +0.013 C 
ATOM     19  C   UNL     1      13.868  -5.186  31.403  0.00  0.00    +0.013 C 
ATOM     21  C   UNL     1      15.771  -6.310  29.448  0.00  0.00    +0.001 C 
ATOM     22  C   UNL     1      13.414  -6.178  30.335  0.00  0.00    +0.001 C 
ATOM     24  C   UNL     1      14.550  -7.101  29.905  0.00  0.00    +0.000 C 
ENDBRANCH  17  16
BRANCH  20  27
ATOM     27  C   UNL     1      18.936  -3.378  27.957  0.00  0.00    -0.016 A 
ATOM     28  C   UNL     1      17.890  -4.100  27.390  0.00  0.00    +0.012 A 
ATOM     29  C   UNL     1      19.615  -2.417  27.215  0.00  0.00    +0.012 A 
ATOM     30  C   UNL     1      17.520  -3.857  26.067  0.00  0.00    +0.046 A 
ATOM     31  C   UNL     1      19.244  -2.175  25.891  0.00  0.00    +0.046 A 
ATOM     32  C   UNL     1      18.196  -2.895  25.318  0.00  0.00    +0.130 A 
BRANCH  32   6
ATOM      6  O   UNL     1      17.834  -2.658  24.027  0.00  0.00    -0.406 OA
BRANCH   6  33
ATOM      1  F   UNL     1      15.624  -2.560  23.581  0.00  0.00    -0.133 F 
ATOM      2  F   UNL     1      16.486  -1.003  24.848  0.00  0.00    -0.133 F 
ATOM      3  F   UNL     1      16.922  -1.050  22.682  0.00  0.00    -0.133 F 
ATOM     33  C   UNL     1      16.724  -1.801  23.785  0.00  0.00    +0.575 C 
ENDBRANCH   6  33
ENDBRANCH  32   6
ENDBRANCH  20  27
TORSDOF 4
ENDMDL
MODEL 10
REMARK VINA RESULT:      -6.4     12.768     15.977
REMARK  Name = 7144180
REMARK  4 active torsions:
REMARK  status: ('A' for Active; 'I' for Inactive)
REMARK    1  A    between atoms: O_6  and  C_32
REMARK    2  A    between atoms: O_6  and  C_33
REMARK    3  A    between atoms: C_16  and  C_17
REMARK    4  A    between atoms: C_20  and  C_27
REMARK                            x       y       z     vdW  Elec       q    Type
REMARK                         _______ _______ _______ _____ _____    ______ ____
ROOT
ATOM      4  O   UNL     1      20.912  -1.183  24.958  0.00  0.00    -0.275 OA
ATOM      5  O   UNL     1      19.543  -4.855  21.438  0.00  0.00    -0.268 OA
ATOM      7  N   UNL     1      18.713  -1.836  25.322  0.00  0.00    -0.300 N 
ATOM      8  N   UNL     1      18.186  -4.163  23.216  0.00  0.00    -0.311 N 
ATOM      9  C   UNL     1      17.225  -1.789  23.326  0.00  0.00    +0.027 C 
ATOM     10  C   UNL     1      16.769  -3.381  25.142  0.00  0.00    +0.054 C 
ATOM     11  C   UNL     1      16.114  -2.432  24.142  0.00  0.00    +0.018 C 
ATOM     12  C   UNL     1      18.189  -1.009  24.234  0.00  0.00    +0.113 C 
ATOM     13  C   UNL     1      17.698  -2.579  26.079  0.00  0.00    +0.117 C 
ATOM     14  C   UNL     1      17.942  -2.884  22.536  0.00  0.00    +0.130 C 
ATOM     15  C   UNL     1      17.558  -4.489  24.436  0.00  0.00    +0.034 A 
ATOM     17  C   UNL     1      20.078  -1.816  25.609  0.00  0.00    +0.219 C 
ATOM     20  C   UNL     1      17.692  -5.737  24.953  0.00  0.00    +0.002 A 
ATOM     23  C   UNL     1      18.985  -5.080  22.512  0.00  0.00    +0.252 A 
ATOM     25  C   UNL     1      18.512  -6.710  24.256  0.00  0.00    +0.015 A 
ATOM     26  C   UNL     1      19.142  -6.423  23.117  0.00  0.00    +0.071 A 
ENDROOT
BRANCH  17  16
ATOM     16  C   UNL     1      20.530  -2.633  26.784  0.00  0.00    +0.075 C 
ATOM     18  C   UNL     1      20.875  -4.052  26.328  0.00  0.00    +0.013 C 
ATOM     19  C   UNL     1      21.722  -1.957  27.461  0.00  0.00    +0.013 C 
ATOM     21  C   UNL     1      21.429  -4.893  27.476  0.00  0.00    +0.001 C 
ATOM     22  C   UNL     1      22.275  -2.802  28.605  0.00  0.00    +0.001 C 
ATOM     24  C   UNL     1      22.620  -4.215  28.146  0.00  0.00    +0.000 C 
ENDBRANCH  17  16
BRANCH  20  27
ATOM     27  C   UNL     1      17.037  -6.130  26.221  0.00  0.00    -0.016 A 
ATOM     28  C   UNL     1      17.714  -5.971  27.426  0.00  0.00    +0.012 A 
ATOM     29  C   UNL     1      15.749  -6.655  26.198  0.00  0.00    +0.012 A 
ATOM     30  C   UNL     1      17.095  -6.343  28.621  0.00  0.00    +0.046 A 
ATOM     31  C   UNL     1      15.131  -7.026  27.393  0.00  0.00    +0.046 A 
ATOM     32  C   UNL     1      15.804  -6.869  28.604  0.00  0.00    +0.130 A 
BRANCH  32   6
ATOM      6  O   UNL     1      15.201  -7.230  29.770  0.00  0.00    -0.406 OA
BRANCH   6  33
ATOM      1  F   UNL     1      14.205  -6.570  31.683  0.00  0.00    -0.133 F 
ATOM      2  F   UNL     1      14.665  -5.046  30.186  0.00  0.00    -0.133 F 
ATOM      3  F   UNL     1      13.036  -6.499  29.839  0.00  0.00    -0.133 F 
ATOM     33  C   UNL     1      14.270  -6.327  30.355  0.00  0.00    +0.575 C 
ENDBRANCH   6  33
ENDBRANCH  32   6
ENDBRANCH  20  27
TORSDOF 4
ENDMDL
