MODEL 1
REMARK VINA RESULT:      -7.8      0.000      0.000
REMARK  Name = 51136816
REMARK  7 active torsions:
REMARK  status: ('A' for Active; 'I' for Inactive)
REMARK    1  A    between atoms: N_3  and  C_13
REMARK    2  A    between atoms: C_9  and  C_14
REMARK    3  A    between atoms: C_13  and  C_15
REMARK    4  A    between atoms: C_15  and  C_16
REMARK    5  A    between atoms: C_16  and  C_22
REMARK    6  A    between atoms: C_21  and  C_24
REMARK    7  A    between atoms: C_26  and  C_31
REMARK                            x       y       z     vdW  Elec       q    Type
REMARK                         _______ _______ _______ _____ _____    ______ ____
ROOT
ATOM      1  O   UNL     1      14.862   6.230  20.761  0.00  0.00    -0.336 OA
ATOM      4  N   UNL     1      16.101   7.740  19.664  0.00  0.00    -0.190 NA
ATOM      7  N   UNL     1      16.113   6.239  21.391  0.00  0.00    -0.056 NA
ATOM     14  C   UNL     1      14.940   7.141  19.755  0.00  0.00    +0.245 A 
ATOM     21  C   UNL     1      16.788   7.154  20.688  0.00  0.00    +0.202 A 
ENDROOT
BRANCH  21  24
ATOM      2  O   UNL     1      24.329   1.818  21.276  0.00  0.00    -0.276 OA
ATOM      5  N   UNL     1      21.445   5.968  21.073  0.00  0.00    -0.312 N 
ATOM      6  N   UNL     1      23.477   3.925  20.793  0.00  0.00    -0.299 N 
ATOM      8  N   UNL     1      20.797   8.187  21.553  0.00  0.00    -0.240 NA
ATOM     17  C   UNL     1      21.151   4.560  21.358  0.00  0.00    +0.125 C 
ATOM     18  C   UNL     1      22.819   6.329  20.717  0.00  0.00    +0.125 C 
ATOM     19  C   UNL     1      22.415   3.822  21.790  0.00  0.00    +0.126 C 
ATOM     20  C   UNL     1      23.521   5.166  20.016  0.00  0.00    +0.126 C 
ATOM     23  C   UNL     1      20.450   6.937  21.176  0.00  0.00    +0.122 A 
ATOM     24  C   UNL     1      18.149   7.505  20.982  0.00  0.00    +0.027 A 
ATOM     25  C   UNL     1      19.153   6.548  20.882  0.00  0.00    +0.055 A 
ATOM     26  C   UNL     1      24.366   2.863  20.623  0.00  0.00    +0.213 C 
ATOM     29  C   UNL     1      18.467   8.803  21.367  0.00  0.00    +0.031 A 
ATOM     30  C   UNL     1      19.795   9.090  21.639  0.00  0.00    +0.113 A 
ATOM     31  C   UNL     1      25.428   3.047  19.565  0.00  0.00    +0.109 C 
ENDBRANCH  21  24
BRANCH  14   9
ATOM      3  N   UNL     1      12.714   8.230  19.537  0.00  0.00    -0.291 NA
ATOM      9  C   UNL     1      13.697   7.323  18.912  0.00  0.00    +0.146 C 
ATOM     10  C   UNL     1      13.997   7.958  17.541  0.00  0.00    +0.030 C 
ATOM     11  C   UNL     1      11.981   8.865  18.442  0.00  0.00    +0.085 C 
ATOM     12  C   UNL     1      13.093   9.180  17.462  0.00  0.00    +0.017 C 
BRANCH   3  13
ATOM     13  C   UNL     1      11.824   7.554  20.474  0.00  0.00    +0.085 C 
BRANCH  13  15
ATOM     15  C   UNL     1      12.030   8.097  21.887  0.00  0.00    +0.020 C 
BRANCH  15  16
ATOM     16  C   UNL     1      10.780   8.828  22.384  0.00  0.00    +0.036 C 
BRANCH  16  22
ATOM     22  C   UNL     1      11.032  10.302  22.571  0.00  0.00    -0.047 A 
ATOM     27  C   UNL     1      10.886  10.880  23.833  0.00  0.00    +0.003 A 
ATOM     28  C   UNL     1      11.413  11.088  21.484  0.00  0.00    +0.003 A 
ATOM     32  C   UNL     1      11.120  12.244  24.005  0.00  0.00    +0.000 A 
ATOM     33  C   UNL     1      11.646  12.452  21.657  0.00  0.00    +0.000 A 
ATOM     34  C   UNL     1      11.500  13.030  22.918  0.00  0.00    +0.000 A 
ENDBRANCH  16  22
ENDBRANCH  15  16
ENDBRANCH  13  15
ENDBRANCH   3  13
ENDBRANCH  14   9
TORSDOF 6
ENDMDL
MODEL 2
REMARK VINA RESULT:      -7.8     27.115     30.472
REMARK  Name = 51136816
REMARK  7 active torsions:
REMARK  status: ('A' for Active; 'I' for Inactive)
REMARK    1  A    between atoms: N_3  and  C_13
REMARK    2  A    between atoms: C_9  and  C_14
REMARK    3  A    between atoms: C_13  and  C_15
REMARK    4  A    between atoms: C_15  and  C_16
REMARK    5  A    between atoms: C_16  and  C_22
REMARK    6  A    between atoms: C_21  and  C_24
REMARK    7  A    between atoms: C_26  and  C_31
REMARK                            x       y       z     vdW  Elec       q    Type
REMARK                         _______ _______ _______ _____ _____    ______ ____
ROOT
ATOM      1  O   UNL     1      -2.527  -9.931  10.608  0.00  0.00    -0.336 OA
ATOM      4  N   UNL     1      -4.159 -10.137  12.129  0.00  0.00    -0.190 NA
ATOM      7  N   UNL     1      -1.890 -10.154  11.835  0.00  0.00    -0.056 NA
ATOM     14  C   UNL     1      -3.860  -9.935  10.870  0.00  0.00    +0.245 A 
ATOM     21  C   UNL     1      -2.918 -10.265  12.682  0.00  0.00    +0.202 A 
ENDROOT
BRANCH  21  24
ATOM      2  O   UNL     1      -9.172 -10.784  19.488  0.00  0.00    -0.276 OA
ATOM      5  N   UNL     1      -4.737 -11.075  17.073  0.00  0.00    -0.312 N 
ATOM      6  N   UNL     1      -7.094 -11.471  18.706  0.00  0.00    -0.299 N 
ATOM      8  N   UNL     1      -2.392 -10.969  16.820  0.00  0.00    -0.240 NA
ATOM     17  C   UNL     1      -5.993 -10.381  16.774  0.00  0.00    +0.125 C 
ATOM     18  C   UNL     1      -4.680 -11.918  18.270  0.00  0.00    +0.125 C 
ATOM     19  C   UNL     1      -6.824 -10.199  18.041  0.00  0.00    +0.126 C 
ATOM     20  C   UNL     1      -6.057 -12.499  18.589  0.00  0.00    +0.126 C 
ATOM     23  C   UNL     1      -3.620 -10.905  16.259  0.00  0.00    +0.122 A 
ATOM     24  C   UNL     1      -2.739 -10.504  14.087  0.00  0.00    +0.027 A 
ATOM     25  C   UNL     1      -3.845 -10.677  14.912  0.00  0.00    +0.055 A 
ATOM     26  C   UNL     1      -8.298 -11.648  19.389  0.00  0.00    +0.213 C 
ATOM     29  C   UNL     1      -1.459 -10.563  14.627  0.00  0.00    +0.031 A 
ATOM     30  C   UNL     1      -1.341 -10.796  15.988  0.00  0.00    +0.113 A 
ATOM     31  C   UNL     1      -8.503 -12.995  20.040  0.00  0.00    +0.109 C 
ENDBRANCH  21  24
BRANCH  14   9
ATOM      3  N   UNL     1      -5.679 -10.859   9.445  0.00  0.00    -0.291 NA
ATOM      9  C   UNL     1      -4.781  -9.713   9.689  0.00  0.00    +0.146 C 
ATOM     10  C   UNL     1      -5.725  -8.513   9.889  0.00  0.00    +0.030 C 
ATOM     11  C   UNL     1      -6.895 -10.312   8.843  0.00  0.00    +0.085 C 
ATOM     12  C   UNL     1      -7.126  -9.070   9.680  0.00  0.00    +0.017 C 
BRANCH   3  13
ATOM     13  C   UNL     1      -5.075 -11.895   8.616  0.00  0.00    +0.085 C 
BRANCH  13  15
ATOM     15  C   UNL     1      -4.365 -12.927   9.491  0.00  0.00    +0.020 C 
BRANCH  15  16
ATOM     16  C   UNL     1      -5.225 -13.313  10.696  0.00  0.00    +0.036 C 
BRANCH  16  22
ATOM     22  C   UNL     1      -4.381 -13.641  11.902  0.00  0.00    -0.047 A 
ATOM     27  C   UNL     1      -2.992 -13.708  11.785  0.00  0.00    +0.003 A 
ATOM     28  C   UNL     1      -4.989 -13.875  13.135  0.00  0.00    +0.003 A 
ATOM     32  C   UNL     1      -2.213 -14.010  12.900  0.00  0.00    +0.000 A 
ATOM     33  C   UNL     1      -4.209 -14.179  14.251  0.00  0.00    +0.000 A 
ATOM     34  C   UNL     1      -2.821 -14.245  14.134  0.00  0.00    +0.000 A 
ENDBRANCH  16  22
ENDBRANCH  15  16
ENDBRANCH  13  15
ENDBRANCH   3  13
ENDBRANCH  14   9
TORSDOF 6
ENDMDL
MODEL 3
REMARK VINA RESULT:      -7.7      2.021      4.084
REMARK  Name = 51136816
REMARK  7 active torsions:
REMARK  status: ('A' for Active; 'I' for Inactive)
REMARK    1  A    between atoms: N_3  and  C_13
REMARK    2  A    between atoms: C_9  and  C_14
REMARK    3  A    between atoms: C_13  and  C_15
REMARK    4  A    between atoms: C_15  and  C_16
REMARK    5  A    between atoms: C_16  and  C_22
REMARK    6  A    between atoms: C_21  and  C_24
REMARK    7  A    between atoms: C_26  and  C_31
REMARK                            x       y       z     vdW  Elec       q    Type
REMARK                         _______ _______ _______ _____ _____    ______ ____
ROOT
ATOM      1  O   UNL     1      16.231  10.303  22.065  0.00  0.00    -0.336 OA
ATOM      4  N   UNL     1      15.297   8.718  20.787  0.00  0.00    -0.190 NA
ATOM      7  N   UNL     1      17.257   9.402  21.750  0.00  0.00    -0.056 NA
ATOM     14  C   UNL     1      15.112   9.826  21.460  0.00  0.00    +0.245 A 
ATOM     21  C   UNL     1      16.628   8.496  20.994  0.00  0.00    +0.202 A 
ENDROOT
BRANCH  21  24
ATOM      2  O   UNL     1      25.272   5.442  22.276  0.00  0.00    -0.276 OA
ATOM      5  N   UNL     1      20.450   5.567  20.756  0.00  0.00    -0.312 N 
ATOM      6  N   UNL     1      23.073   4.885  21.773  0.00  0.00    -0.299 N 
ATOM      8  N   UNL     1      18.608   5.145  19.339  0.00  0.00    -0.240 NA
ATOM     17  C   UNL     1      21.380   6.604  21.211  0.00  0.00    +0.125 C 
ATOM     18  C   UNL     1      20.910   4.176  20.754  0.00  0.00    +0.125 C 
ATOM     19  C   UNL     1      22.826   6.136  21.061  0.00  0.00    +0.126 C 
ATOM     20  C   UNL     1      21.950   3.948  21.851  0.00  0.00    +0.126 C 
ATOM     23  C   UNL     1      19.177   5.904  20.303  0.00  0.00    +0.122 A 
ATOM     24  C   UNL     1      17.300   7.359  20.432  0.00  0.00    +0.027 A 
ATOM     25  C   UNL     1      18.571   7.010  20.876  0.00  0.00    +0.055 A 
ATOM     26  C   UNL     1      24.326   4.654  22.340  0.00  0.00    +0.213 C 
ATOM     29  C   UNL     1      16.682   6.602  19.443  0.00  0.00    +0.031 A 
ATOM     30  C   UNL     1      17.373   5.514  18.933  0.00  0.00    +0.113 A 
ATOM     31  C   UNL     1      24.496   3.341  23.067  0.00  0.00    +0.109 C 
ENDBRANCH  21  24
BRANCH  14   9
ATOM      3  N   UNL     1      12.949  10.053  22.669  0.00  0.00    -0.291 NA
ATOM      9  C   UNL     1      13.846  10.633  21.649  0.00  0.00    +0.146 C 
ATOM     10  C   UNL     1      14.123  12.065  22.143  0.00  0.00    +0.030 C 
ATOM     11  C   UNL     1      12.209  11.171  23.253  0.00  0.00    +0.085 C 
ATOM     12  C   UNL     1      13.294  12.217  23.410  0.00  0.00    +0.017 C 
BRANCH   3  13
ATOM     13  C   UNL     1      12.062   9.026  22.135  0.00  0.00    +0.085 C 
BRANCH  13  15
ATOM     15  C   UNL     1      11.253   9.580  20.964  0.00  0.00    +0.020 C 
BRANCH  15  16
ATOM     16  C   UNL     1      11.114   8.541  19.850  0.00  0.00    +0.036 C 
BRANCH  16  22
ATOM     22  C   UNL     1      12.217   8.664  18.830  0.00  0.00    -0.047 A 
ATOM     27  C   UNL     1      12.651   9.925  18.420  0.00  0.00    +0.003 A 
ATOM     28  C   UNL     1      12.805   7.517  18.297  0.00  0.00    +0.003 A 
ATOM     32  C   UNL     1      13.671  10.039  17.477  0.00  0.00    +0.000 A 
ATOM     33  C   UNL     1      13.825   7.631  17.352  0.00  0.00    +0.000 A 
ATOM     34  C   UNL     1      14.259   8.892  16.943  0.00  0.00    +0.000 A 
ENDBRANCH  16  22
ENDBRANCH  15  16
ENDBRANCH  13  15
ENDBRANCH   3  13
ENDBRANCH  14   9
TORSDOF 6
ENDMDL
MODEL 4
REMARK VINA RESULT:      -7.7     32.198     34.689
REMARK  Name = 51136816
REMARK  7 active torsions:
REMARK  status: ('A' for Active; 'I' for Inactive)
REMARK    1  A    between atoms: N_3  and  C_13
REMARK    2  A    between atoms: C_9  and  C_14
REMARK    3  A    between atoms: C_13  and  C_15
REMARK    4  A    between atoms: C_15  and  C_16
REMARK    5  A    between atoms: C_16  and  C_22
REMARK    6  A    between atoms: C_21  and  C_24
REMARK    7  A    between atoms: C_26  and  C_31
REMARK                            x       y       z     vdW  Elec       q    Type
REMARK                         _______ _______ _______ _____ _____    ______ ____
ROOT
ATOM      1  O   UNL     1     -17.805   4.991  32.120  0.00  0.00    -0.336 OA
ATOM      4  N   UNL     1     -16.039   4.992  30.743  0.00  0.00    -0.190 NA
ATOM      7  N   UNL     1     -18.146   4.156  31.049  0.00  0.00    -0.056 NA
ATOM     14  C   UNL     1     -16.550   5.443  31.861  0.00  0.00    +0.245 A 
ATOM     21  C   UNL     1     -17.055   4.207  30.280  0.00  0.00    +0.202 A 
ENDROOT
BRANCH  21  24
ATOM      2  O   UNL     1     -16.465   7.337  21.588  0.00  0.00    -0.276 OA
ATOM      5  N   UNL     1     -16.421   4.133  25.501  0.00  0.00    -0.312 N 
ATOM      6  N   UNL     1     -15.926   5.638  23.078  0.00  0.00    -0.299 N 
ATOM      8  N   UNL     1     -16.737   2.085  26.634  0.00  0.00    -0.240 NA
ATOM     17  C   UNL     1     -16.962   5.484  25.322  0.00  0.00    +0.125 C 
ATOM     18  C   UNL     1     -15.685   3.529  24.386  0.00  0.00    +0.125 C 
ATOM     19  C   UNL     1     -17.161   5.794  23.841  0.00  0.00    +0.126 C 
ATOM     20  C   UNL     1     -14.999   4.604  23.545  0.00  0.00    +0.126 C 
ATOM     23  C   UNL     1     -16.635   3.432  26.685  0.00  0.00    +0.122 A 
ATOM     24  C   UNL     1     -16.947   3.487  29.042  0.00  0.00    +0.027 A 
ATOM     25  C   UNL     1     -16.732   4.173  27.852  0.00  0.00    +0.055 A 
ATOM     26  C   UNL     1     -15.686   6.466  21.981  0.00  0.00    +0.213 C 
ATOM     29  C   UNL     1     -17.057   2.101  29.030  0.00  0.00    +0.031 A 
ATOM     30  C   UNL     1     -16.946   1.453  27.810  0.00  0.00    +0.113 A 
ATOM     31  C   UNL     1     -14.381   6.247  21.253  0.00  0.00    +0.109 C 
ENDBRANCH  21  24
BRANCH  14   9
ATOM      3  N   UNL     1     -14.636   5.905  33.382  0.00  0.00    -0.291 NA
ATOM      9  C   UNL     1     -15.944   6.377  32.885  0.00  0.00    +0.146 C 
ATOM     10  C   UNL     1     -15.661   7.780  32.317  0.00  0.00    +0.030 C 
ATOM     11  C   UNL     1     -13.875   7.100  33.746  0.00  0.00    +0.085 C 
ATOM     12  C   UNL     1     -14.186   8.032  32.593  0.00  0.00    +0.017 C 
BRANCH   3  13
ATOM     13  C   UNL     1     -14.749   4.967  34.492  0.00  0.00    +0.085 C 
BRANCH  13  15
ATOM     15  C   UNL     1     -14.608   3.531  33.990  0.00  0.00    +0.020 C 
BRANCH  15  16
ATOM     16  C   UNL     1     -13.716   3.467  32.748  0.00  0.00    +0.036 C 
BRANCH  16  22
ATOM     22  C   UNL     1     -13.981   2.227  31.933  0.00  0.00    -0.047 A 
ATOM     27  C   UNL     1     -13.487   2.128  30.631  0.00  0.00    +0.003 A 
ATOM     28  C   UNL     1     -14.719   1.177  32.480  0.00  0.00    +0.003 A 
ATOM     32  C   UNL     1     -13.733   0.981  29.878  0.00  0.00    +0.000 A 
ATOM     33  C   UNL     1     -14.965   0.030  31.726  0.00  0.00    +0.000 A 
ATOM     34  C   UNL     1     -14.471  -0.069  30.425  0.00  0.00    +0.000 A 
ENDBRANCH  16  22
ENDBRANCH  15  16
ENDBRANCH  13  15
ENDBRANCH   3  13
ENDBRANCH  14   9
TORSDOF 6
ENDMDL
MODEL 5
REMARK VINA RESULT:      -7.6      3.454      5.823
REMARK  Name = 51136816
REMARK  7 active torsions:
REMARK  status: ('A' for Active; 'I' for Inactive)
REMARK    1  A    between atoms: N_3  and  C_13
REMARK    2  A    between atoms: C_9  and  C_14
REMARK    3  A    between atoms: C_13  and  C_15
REMARK    4  A    between atoms: C_15  and  C_16
REMARK    5  A    between atoms: C_16  and  C_22
REMARK    6  A    between atoms: C_21  and  C_24
REMARK    7  A    between atoms: C_26  and  C_31
REMARK                            x       y       z     vdW  Elec       q    Type
REMARK                         _______ _______ _______ _____ _____    ______ ____
ROOT
ATOM      1  O   UNL     1      12.759   9.860  15.031  0.00  0.00    -0.336 OA
ATOM      4  N   UNL     1      14.281  10.113  16.654  0.00  0.00    -0.190 NA
ATOM      7  N   UNL     1      12.532   8.822  15.943  0.00  0.00    -0.056 NA
ATOM     14  C   UNL     1      13.805  10.573  15.524  0.00  0.00    +0.245 A 
ATOM     21  C   UNL     1      13.469   9.039  16.871  0.00  0.00    +0.202 A 
ENDROOT
BRANCH  21  24
ATOM      2  O   UNL     1      21.005   4.887  20.285  0.00  0.00    -0.276 OA
ATOM      5  N   UNL     1      16.252   6.582  19.948  0.00  0.00    -0.312 N 
ATOM      6  N   UNL     1      18.928   5.820  20.747  0.00  0.00    -0.299 N 
ATOM      8  N   UNL     1      13.914   6.569  20.277  0.00  0.00    -0.240 NA
ATOM     17  C   UNL     1      17.310   6.370  18.955  0.00  0.00    +0.125 C 
ATOM     18  C   UNL     1      16.563   6.321  21.356  0.00  0.00    +0.125 C 
ATOM     19  C   UNL     1      18.351   5.384  19.478  0.00  0.00    +0.126 C 
ATOM     20  C   UNL     1      18.043   6.572  21.639  0.00  0.00    +0.126 C 
ATOM     23  C   UNL     1      14.978   6.984  19.554  0.00  0.00    +0.122 A 
ATOM     24  C   UNL     1      13.620   8.200  18.027  0.00  0.00    +0.027 A 
ATOM     25  C   UNL     1      14.886   7.792  18.433  0.00  0.00    +0.055 A 
ATOM     26  C   UNL     1      20.259   5.520  21.036  0.00  0.00    +0.213 C 
ATOM     29  C   UNL     1      12.500   7.794  18.745  0.00  0.00    +0.031 A 
ATOM     30  C   UNL     1      12.700   6.985  19.853  0.00  0.00    +0.113 A 
ATOM     31  C   UNL     1      20.781   6.014  22.364  0.00  0.00    +0.109 C 
ENDBRANCH  21  24
BRANCH  14   9
ATOM      3  N   UNL     1      15.046  12.730  15.500  0.00  0.00    -0.291 NA
ATOM      9  C   UNL     1      14.252  11.768  14.710  0.00  0.00    +0.146 C 
ATOM     10  C   UNL     1      15.168  11.379  13.535  0.00  0.00    +0.030 C 
ATOM     11  C   UNL     1      15.960  13.382  14.562  0.00  0.00    +0.085 C 
ATOM     12  C   UNL     1      16.426  12.215  13.717  0.00  0.00    +0.017 C 
BRANCH   3  13
ATOM     13  C   UNL     1      14.226  13.692  16.227  0.00  0.00    +0.085 C 
BRANCH  13  15
ATOM     15  C   UNL     1      14.572  13.667  17.714  0.00  0.00    +0.020 C 
BRANCH  15  16
ATOM     16  C   UNL     1      13.406  13.123  18.543  0.00  0.00    +0.036 C 
BRANCH  16  22
ATOM     22  C   UNL     1      13.859  12.068  19.519  0.00  0.00    -0.047 A 
ATOM     27  C   UNL     1      15.216  11.763  19.637  0.00  0.00    +0.003 A 
ATOM     28  C   UNL     1      12.923  11.397  20.305  0.00  0.00    +0.003 A 
ATOM     32  C   UNL     1      15.635  10.787  20.541  0.00  0.00    +0.000 A 
ATOM     33  C   UNL     1      13.342  10.420  21.209  0.00  0.00    +0.000 A 
ATOM     34  C   UNL     1      14.698  10.116  21.327  0.00  0.00    +0.000 A 
ENDBRANCH  16  22
ENDBRANCH  15  16
ENDBRANCH  13  15
ENDBRANCH   3  13
ENDBRANCH  14   9
TORSDOF 6
ENDMDL
MODEL 6
REMARK VINA RESULT:      -7.5     27.990     30.898
REMARK  Name = 51136816
REMARK  7 active torsions:
REMARK  status: ('A' for Active; 'I' for Inactive)
REMARK    1  A    between atoms: N_3  and  C_13
REMARK    2  A    between atoms: C_9  and  C_14
REMARK    3  A    between atoms: C_13  and  C_15
REMARK    4  A    between atoms: C_15  and  C_16
REMARK    5  A    between atoms: C_16  and  C_22
REMARK    6  A    between atoms: C_21  and  C_24
REMARK    7  A    between atoms: C_26  and  C_31
REMARK                            x       y       z     vdW  Elec       q    Type
REMARK                         _______ _______ _______ _____ _____    ______ ____
ROOT
ATOM      1  O   UNL     1      -5.629 -13.493   9.319  0.00  0.00    -0.336 OA
ATOM      4  N   UNL     1      -3.856 -12.131   9.185  0.00  0.00    -0.190 NA
ATOM      7  N   UNL     1      -5.363 -13.070  10.628  0.00  0.00    -0.056 NA
ATOM     14  C   UNL     1      -4.696 -12.894   8.533  0.00  0.00    +0.245 A 
ATOM     21  C   UNL     1      -4.304 -12.271  10.467  0.00  0.00    +0.202 A 
ENDROOT
BRANCH  21  24
ATOM      2  O   UNL     1      -7.594 -10.136  18.852  0.00  0.00    -0.276 OA
ATOM      5  N   UNL     1      -4.323 -10.758  15.044  0.00  0.00    -0.312 N 
ATOM      6  N   UNL     1      -5.721 -10.653  17.577  0.00  0.00    -0.299 N 
ATOM      8  N   UNL     1      -2.437 -10.287  13.703  0.00  0.00    -0.240 NA
ATOM     17  C   UNL     1      -5.786 -10.678  15.101  0.00  0.00    +0.125 C 
ATOM     18  C   UNL     1      -3.577 -10.704  16.304  0.00  0.00    +0.125 C 
ATOM     19  C   UNL     1      -6.239  -9.987  16.385  0.00  0.00    +0.126 C 
ATOM     20  C   UNL     1      -4.406 -11.285  17.450  0.00  0.00    +0.126 C 
ATOM     23  C   UNL     1      -3.663 -10.844  13.821  0.00  0.00    +0.122 A 
ATOM     24  C   UNL     1      -3.670 -11.597  11.565  0.00  0.00    +0.027 A 
ATOM     25  C   UNL     1      -4.316 -11.504  12.793  0.00  0.00    +0.055 A 
ATOM     26  C   UNL     1      -6.486 -10.667  18.743  0.00  0.00    +0.213 C 
ATOM     29  C   UNL     1      -2.408 -11.036  11.405  0.00  0.00    +0.031 A 
ATOM     30  C   UNL     1      -1.840 -10.397  12.496  0.00  0.00    +0.113 A 
ATOM     31  C   UNL     1      -5.883 -11.385  19.927  0.00  0.00    +0.109 C 
ENDBRANCH  21  24
BRANCH  14   9
ATOM      3  N   UNL     1      -5.226 -12.034   6.259  0.00  0.00    -0.291 NA
ATOM      9  C   UNL     1      -4.770 -13.194   7.052  0.00  0.00    +0.146 C 
ATOM     10  C   UNL     1      -3.402 -13.563   6.450  0.00  0.00    +0.030 C 
ATOM     11  C   UNL     1      -4.611 -12.167   4.939  0.00  0.00    +0.085 C 
ATOM     12  C   UNL     1      -3.202 -12.597   5.292  0.00  0.00    +0.017 C 
BRANCH   3  13
ATOM     13  C   UNL     1      -6.677 -11.927   6.181  0.00  0.00    +0.085 C 
BRANCH  13  15
ATOM     15  C   UNL     1      -7.165 -10.723   6.985  0.00  0.00    +0.020 C 
BRANCH  15  16
ATOM     16  C   UNL     1      -6.011  -9.770   7.305  0.00  0.00    +0.036 C 
BRANCH  16  22
ATOM     22  C   UNL     1      -5.987  -9.391   8.764  0.00  0.00    -0.047 A 
ATOM     27  C   UNL     1      -4.923  -8.646   9.274  0.00  0.00    +0.003 A 
ATOM     28  C   UNL     1      -7.029  -9.784   9.603  0.00  0.00    +0.003 A 
ATOM     32  C   UNL     1      -4.902  -8.295  10.623  0.00  0.00    +0.000 A 
ATOM     33  C   UNL     1      -7.007  -9.433  10.953  0.00  0.00    +0.000 A 
ATOM     34  C   UNL     1      -5.944  -8.688  11.463  0.00  0.00    +0.000 A 
ENDBRANCH  16  22
ENDBRANCH  15  16
ENDBRANCH  13  15
ENDBRANCH   3  13
ENDBRANCH  14   9
TORSDOF 6
ENDMDL
MODEL 7
REMARK VINA RESULT:      -7.5     27.826     31.184
REMARK  Name = 51136816
REMARK  7 active torsions:
REMARK  status: ('A' for Active; 'I' for Inactive)
REMARK    1  A    between atoms: N_3  and  C_13
REMARK    2  A    between atoms: C_9  and  C_14
REMARK    3  A    between atoms: C_13  and  C_15
REMARK    4  A    between atoms: C_15  and  C_16
REMARK    5  A    between atoms: C_16  and  C_22
REMARK    6  A    between atoms: C_21  and  C_24
REMARK    7  A    between atoms: C_26  and  C_31
REMARK                            x       y       z     vdW  Elec       q    Type
REMARK                         _______ _______ _______ _____ _____    ______ ____
ROOT
ATOM      1  O   UNL     1      -1.481 -10.793  14.754  0.00  0.00    -0.336 OA
ATOM      4  N   UNL     1      -3.665 -11.277  14.640  0.00  0.00    -0.190 NA
ATOM      7  N   UNL     1      -1.966 -10.715  16.065  0.00  0.00    -0.056 NA
ATOM     14  C   UNL     1      -2.545 -11.129  13.978  0.00  0.00    +0.245 A 
ATOM     21  C   UNL     1      -3.260 -11.013  15.917  0.00  0.00    +0.202 A 
ENDROOT
BRANCH  21  24
ATOM      2  O   UNL     1     -11.841  -7.626  16.686  0.00  0.00    -0.276 OA
ATOM      5  N   UNL     1      -7.624 -10.190  17.793  0.00  0.00    -0.312 N 
ATOM      6  N   UNL     1     -10.331  -9.255  17.366  0.00  0.00    -0.299 N 
ATOM      8  N   UNL     1      -5.957 -11.135  19.173  0.00  0.00    -0.240 NA
ATOM     17  C   UNL     1      -7.911  -9.093  16.864  0.00  0.00    +0.125 C 
ATOM     18  C   UNL     1      -8.736 -10.753  18.563  0.00  0.00    +0.125 C 
ATOM     19  C   UNL     1      -9.183  -8.356  17.275  0.00  0.00    +0.126 C 
ATOM     20  C   UNL     1     -10.049 -10.629  17.790  0.00  0.00    +0.126 C 
ATOM     23  C   UNL     1      -6.323 -10.656  17.963  0.00  0.00    +0.122 A 
ATOM     24  C   UNL     1      -4.176 -11.054  17.022  0.00  0.00    +0.027 A 
ATOM     25  C   UNL     1      -5.479 -10.594  16.867  0.00  0.00    +0.055 A 
ATOM     26  C   UNL     1     -11.602  -8.782  17.043  0.00  0.00    +0.213 C 
ATOM     29  C   UNL     1      -3.762 -11.555  18.252  0.00  0.00    +0.031 A 
ATOM     30  C   UNL     1      -4.684 -11.573  19.286  0.00  0.00    +0.113 A 
ATOM     31  C   UNL     1     -12.732  -9.777  17.154  0.00  0.00    +0.109 C 
ENDBRANCH  21  24
BRANCH  14   9
ATOM      3  N   UNL     1      -3.291 -12.115  11.819  0.00  0.00    -0.291 NA
ATOM      9  C   UNL     1      -2.278 -11.280  12.496  0.00  0.00    +0.146 C 
ATOM     10  C   UNL     1      -2.316  -9.936  11.746  0.00  0.00    +0.030 C 
ATOM     11  C   UNL     1      -3.369 -11.634  10.440  0.00  0.00    +0.085 C 
ATOM     12  C   UNL     1      -3.332 -10.131  10.630  0.00  0.00    +0.017 C 
BRANCH   3  13
ATOM     13  C   UNL     1      -2.997 -13.541  11.887  0.00  0.00    +0.085 C 
BRANCH  13  15
ATOM     15  C   UNL     1      -4.182 -14.298  12.484  0.00  0.00    +0.020 C 
BRANCH  15  16
ATOM     16  C   UNL     1      -3.896 -14.722  13.926  0.00  0.00    +0.036 C 
BRANCH  16  22
ATOM     22  C   UNL     1      -5.049 -14.399  14.843  0.00  0.00    -0.047 A 
ATOM     27  C   UNL     1      -4.944 -14.654  16.211  0.00  0.00    +0.003 A 
ATOM     28  C   UNL     1      -6.218 -13.845  14.323  0.00  0.00    +0.003 A 
ATOM     32  C   UNL     1      -6.010 -14.354  17.058  0.00  0.00    +0.000 A 
ATOM     33  C   UNL     1      -7.285 -13.546  15.171  0.00  0.00    +0.000 A 
ATOM     34  C   UNL     1      -7.181 -13.800  16.539  0.00  0.00    +0.000 A 
ENDBRANCH  16  22
ENDBRANCH  15  16
ENDBRANCH  13  15
ENDBRANCH   3  13
ENDBRANCH  14   9
TORSDOF 6
ENDMDL
MODEL 8
REMARK VINA RESULT:      -7.4     28.194     31.184
REMARK  Name = 51136816
REMARK  7 active torsions:
REMARK  status: ('A' for Active; 'I' for Inactive)
REMARK    1  A    between atoms: N_3  and  C_13
REMARK    2  A    between atoms: C_9  and  C_14
REMARK    3  A    between atoms: C_13  and  C_15
REMARK    4  A    between atoms: C_15  and  C_16
REMARK    5  A    between atoms: C_16  and  C_22
REMARK    6  A    between atoms: C_21  and  C_24
REMARK    7  A    between atoms: C_26  and  C_31
REMARK                            x       y       z     vdW  Elec       q    Type
REMARK                         _______ _______ _______ _____ _____    ______ ____
ROOT
ATOM      1  O   UNL     1      -2.060 -10.487  12.964  0.00  0.00    -0.336 OA
ATOM      4  N   UNL     1      -4.257 -10.736  13.323  0.00  0.00    -0.190 NA
ATOM      7  N   UNL     1      -2.225 -10.526  14.354  0.00  0.00    -0.056 NA
ATOM     14  C   UNL     1      -3.303 -10.616  12.433  0.00  0.00    +0.245 A 
ATOM     21  C   UNL     1      -3.547 -10.674  14.487  0.00  0.00    +0.202 A 
ENDROOT
BRANCH  21  24
ATOM      2  O   UNL     1     -12.029  -8.045  17.102  0.00  0.00    -0.276 OA
ATOM      5  N   UNL     1      -7.451 -10.188  17.274  0.00  0.00    -0.312 N 
ATOM      6  N   UNL     1     -10.261  -9.512  17.447  0.00  0.00    -0.299 N 
ATOM      8  N   UNL     1      -5.441 -10.939  18.260  0.00  0.00    -0.240 NA
ATOM     17  C   UNL     1      -8.036  -9.150  16.421  0.00  0.00    +0.125 C 
ATOM     18  C   UNL     1      -8.309 -10.825  18.276  0.00  0.00    +0.125 C 
ATOM     19  C   UNL     1      -9.250  -8.517  17.095  0.00  0.00    +0.126 C 
ATOM     20  C   UNL     1      -9.765 -10.842  17.811  0.00  0.00    +0.126 C 
ATOM     23  C   UNL     1      -6.107 -10.531  17.157  0.00  0.00    +0.122 A 
ATOM     24  C   UNL     1      -4.190 -10.764  15.768  0.00  0.00    +0.027 A 
ATOM     25  C   UNL     1      -5.532 -10.427  15.900  0.00  0.00    +0.055 A 
ATOM     26  C   UNL     1     -11.611  -9.164  17.408  0.00  0.00    +0.213 C 
ATOM     29  C   UNL     1      -3.472 -11.189  16.880  0.00  0.00    +0.031 A 
ATOM     30  C   UNL     1      -4.139 -11.258  18.093  0.00  0.00    +0.113 A 
ATOM     31  C   UNL     1     -12.591 -10.252  17.776  0.00  0.00    +0.109 C 
ENDBRANCH  21  24
BRANCH  14   9
ATOM      3  N   UNL     1      -4.784 -10.748  10.437  0.00  0.00    -0.291 NA
ATOM      9  C   UNL     1      -3.396 -10.605  10.923  0.00  0.00    +0.146 C 
ATOM     10  C   UNL     1      -2.901  -9.284  10.306  0.00  0.00    +0.030 C 
ATOM     11  C   UNL     1      -4.848 -10.047   9.155  0.00  0.00    +0.085 C 
ATOM     12  C   UNL     1      -4.054  -8.789   9.445  0.00  0.00    +0.017 C 
BRANCH   3  13
ATOM     13  C   UNL     1      -5.214 -12.136  10.326  0.00  0.00    +0.085 C 
BRANCH  13  15
ATOM     15  C   UNL     1      -4.052 -13.016   9.870  0.00  0.00    +0.020 C 
BRANCH  15  16
ATOM     16  C   UNL     1      -4.118 -14.398  10.524  0.00  0.00    +0.036 C 
BRANCH  16  22
ATOM     22  C   UNL     1      -3.762 -14.341  11.988  0.00  0.00    -0.047 A 
ATOM     27  C   UNL     1      -2.434 -14.162  12.377  0.00  0.00    +0.003 A 
ATOM     28  C   UNL     1      -4.761 -14.466  12.953  0.00  0.00    +0.003 A 
ATOM     32  C   UNL     1      -2.106 -14.108  13.731  0.00  0.00    +0.000 A 
ATOM     33  C   UNL     1      -4.432 -14.413  14.308  0.00  0.00    +0.000 A 
ATOM     34  C   UNL     1      -3.105 -14.233  14.697  0.00  0.00    +0.000 A 
ENDBRANCH  16  22
ENDBRANCH  15  16
ENDBRANCH  13  15
ENDBRANCH   3  13
ENDBRANCH  14   9
TORSDOF 6
ENDMDL
MODEL 9
REMARK VINA RESULT:      -7.4     29.668     32.276
REMARK  Name = 51136816
REMARK  7 active torsions:
REMARK  status: ('A' for Active; 'I' for Inactive)
REMARK    1  A    between atoms: N_3  and  C_13
REMARK    2  A    between atoms: C_9  and  C_14
REMARK    3  A    between atoms: C_13  and  C_15
REMARK    4  A    between atoms: C_15  and  C_16
REMARK    5  A    between atoms: C_16  and  C_22
REMARK    6  A    between atoms: C_21  and  C_24
REMARK    7  A    between atoms: C_26  and  C_31
REMARK                            x       y       z     vdW  Elec       q    Type
REMARK                         _______ _______ _______ _____ _____    ______ ____
ROOT
ATOM      1  O   UNL     1     -12.905  10.098  31.589  0.00  0.00    -0.336 OA
ATOM      4  N   UNL     1     -11.783   8.827  33.053  0.00  0.00    -0.190 NA
ATOM      7  N   UNL     1     -13.723   8.992  31.851  0.00  0.00    -0.056 NA
ATOM     14  C   UNL     1     -11.783   9.922  32.335  0.00  0.00    +0.245 A 
ATOM     21  C   UNL     1     -12.993   8.289  32.723  0.00  0.00    +0.202 A 
ENDROOT
BRANCH  21  24
ATOM      2  O   UNL     1     -15.783   0.524  28.527  0.00  0.00    -0.276 OA
ATOM      5  N   UNL     1     -14.360   3.695  32.200  0.00  0.00    -0.312 N 
ATOM      6  N   UNL     1     -14.795   1.465  30.407  0.00  0.00    -0.299 N 
ATOM      8  N   UNL     1     -14.319   4.625  34.371  0.00  0.00    -0.240 NA
ATOM     17  C   UNL     1     -14.839   3.904  30.831  0.00  0.00    +0.125 C 
ATOM     18  C   UNL     1     -14.180   2.318  32.668  0.00  0.00    +0.125 C 
ATOM     19  C   UNL     1     -15.602   2.680  30.333  0.00  0.00    +0.126 C 
ATOM     20  C   UNL     1     -13.827   1.393  31.504  0.00  0.00    +0.126 C 
ATOM     23  C   UNL     1     -14.119   4.778  33.042  0.00  0.00    +0.122 A 
ATOM     24  C   UNL     1     -13.443   7.045  33.283  0.00  0.00    +0.027 A 
ATOM     25  C   UNL     1     -13.686   5.955  32.454  0.00  0.00    +0.055 A 
ATOM     26  C   UNL     1     -14.969   0.464  29.451  0.00  0.00    +0.213 C 
ATOM     29  C   UNL     1     -13.637   6.927  34.655  0.00  0.00    +0.031 A 
ATOM     30  C   UNL     1     -14.072   5.706  35.144  0.00  0.00    +0.113 A 
ATOM     31  C   UNL     1     -14.090  -0.755  29.593  0.00  0.00    +0.109 C 
ENDBRANCH  21  24
BRANCH  14   9
ATOM      3  N   UNL     1     -11.174  12.294  32.780  0.00  0.00    -0.291 NA
ATOM      9  C   UNL     1     -10.726  11.000  32.228  0.00  0.00    +0.146 C 
ATOM     10  C   UNL     1      -9.448  10.660  33.018  0.00  0.00    +0.030 C 
ATOM     11  C   UNL     1      -9.974  12.975  33.265  0.00  0.00    +0.085 C 
ATOM     12  C   UNL     1      -9.226  11.846  33.945  0.00  0.00    +0.017 C 
BRANCH   3  13
ATOM     13  C   UNL     1     -11.914  13.102  31.819  0.00  0.00    +0.085 C 
BRANCH  13  15
ATOM     15  C   UNL     1     -11.208  13.095  30.465  0.00  0.00    +0.020 C 
BRANCH  15  16
ATOM     16  C   UNL     1     -12.219  13.141  29.316  0.00  0.00    +0.036 C 
BRANCH  16  22
ATOM     22  C   UNL     1     -11.850  12.187  28.209  0.00  0.00    -0.047 A 
ATOM     27  C   UNL     1     -11.073  11.061  28.488  0.00  0.00    +0.003 A 
ATOM     28  C   UNL     1     -12.286  12.428  26.907  0.00  0.00    +0.003 A 
ATOM     32  C   UNL     1     -10.733  10.178  27.464  0.00  0.00    +0.000 A 
ATOM     33  C   UNL     1     -11.945  11.545  25.882  0.00  0.00    +0.000 A 
ATOM     34  C   UNL     1     -11.169  10.420  26.161  0.00  0.00    +0.000 A 
ENDBRANCH  16  22
ENDBRANCH  15  16
ENDBRANCH  13  15
ENDBRANCH   3  13
ENDBRANCH  14   9
TORSDOF 6
ENDMDL
MODEL 10
REMARK VINA RESULT:      -7.4     28.150     30.618
REMARK  Name = 51136816
REMARK  7 active torsions:
REMARK  status: ('A' for Active; 'I' for Inactive)
REMARK    1  A    between atoms: N_3  and  C_13
REMARK    2  A    between atoms: C_9  and  C_14
REMARK    3  A    between atoms: C_13  and  C_15
REMARK    4  A    between atoms: C_15  and  C_16
REMARK    5  A    between atoms: C_16  and  C_22
REMARK    6  A    between atoms: C_21  and  C_24
REMARK    7  A    between atoms: C_26  and  C_31
REMARK                            x       y       z     vdW  Elec       q    Type
REMARK                         _______ _______ _______ _____ _____    ______ ____
ROOT
ATOM      1  O   UNL     1      -3.711 -11.217  17.675  0.00  0.00    -0.336 OA
ATOM      4  N   UNL     1      -5.041 -10.391  16.073  0.00  0.00    -0.190 NA
ATOM      7  N   UNL     1      -2.984 -11.306  16.482  0.00  0.00    -0.056 NA
ATOM     14  C   UNL     1      -4.910 -10.669  17.346  0.00  0.00    +0.245 A 
ATOM     21  C   UNL     1      -3.834 -10.800  15.583  0.00  0.00    +0.202 A 
ENDROOT
BRANCH  21  24
ATOM      2  O   UNL     1      -9.286  -9.066   8.306  0.00  0.00    -0.276 OA
ATOM      5  N   UNL     1      -5.093  -9.786  11.041  0.00  0.00    -0.312 N 
ATOM      6  N   UNL     1      -7.158  -8.890   9.220  0.00  0.00    -0.299 N 
ATOM      8  N   UNL     1      -2.876 -10.471  11.476  0.00  0.00    -0.240 NA
ATOM     17  C   UNL     1      -6.502 -10.121  11.267  0.00  0.00    +0.125 C 
ATOM     18  C   UNL     1      -4.743  -9.049   9.824  0.00  0.00    +0.125 C 
ATOM     19  C   UNL     1      -7.268 -10.152   9.947  0.00  0.00    +0.126 C 
ATOM     20  C   UNL     1      -5.901  -8.155   9.380  0.00  0.00    +0.126 C 
ATOM     23  C   UNL     1      -4.113 -10.191  11.943  0.00  0.00    +0.122 A 
ATOM     24  C   UNL     1      -3.508 -10.688  14.189  0.00  0.00    +0.027 A 
ATOM     25  C   UNL     1      -4.477 -10.283  13.277  0.00  0.00    +0.055 A 
ATOM     26  C   UNL     1      -8.227  -8.449   8.441  0.00  0.00    +0.213 C 
ATOM     29  C   UNL     1      -2.224 -10.985  13.747  0.00  0.00    +0.031 A 
ATOM     30  C   UNL     1      -1.962 -10.862  12.391  0.00  0.00    +0.113 A 
ATOM     31  C   UNL     1      -8.036  -7.130   7.731  0.00  0.00    +0.109 C 
ENDBRANCH  21  24
BRANCH  14   9
ATOM      3  N   UNL     1      -7.298 -10.559  18.036  0.00  0.00    -0.291 NA
ATOM      9  C   UNL     1      -5.893 -10.464  18.478  0.00  0.00    +0.146 C 
ATOM     10  C   UNL     1      -5.759 -11.530  19.582  0.00  0.00    +0.030 C 
ATOM     11  C   UNL     1      -8.062 -11.047  19.184  0.00  0.00    +0.085 C 
ATOM     12  C   UNL     1      -7.150 -12.127  19.730  0.00  0.00    +0.017 C 
BRANCH   3  13
ATOM     13  C   UNL     1      -7.825  -9.301  17.521  0.00  0.00    +0.085 C 
BRANCH  13  15
ATOM     15  C   UNL     1      -8.549  -9.531  16.196  0.00  0.00    +0.020 C 
BRANCH  15  16
ATOM     16  C   UNL     1     -10.065  -9.581  16.398  0.00  0.00    +0.036 C 
BRANCH  16  22
ATOM     22  C   UNL     1     -10.734  -8.318  15.919  0.00  0.00    -0.047 A 
ATOM     27  C   UNL     1     -11.327  -8.278  14.656  0.00  0.00    +0.003 A 
ATOM     28  C   UNL     1     -10.762  -7.190  16.739  0.00  0.00    +0.003 A 
ATOM     32  C   UNL     1     -11.947  -7.110  14.214  0.00  0.00    +0.000 A 
ATOM     33  C   UNL     1     -11.381  -6.021  16.295  0.00  0.00    +0.000 A 
ATOM     34  C   UNL     1     -11.974  -5.981  15.034  0.00  0.00    +0.000 A 
ENDBRANCH  16  22
ENDBRANCH  15  16
ENDBRANCH  13  15
ENDBRANCH   3  13
ENDBRANCH  14   9
TORSDOF 6
ENDMDL
