MODEL 1
REMARK VINA RESULT:      -7.0      0.000      0.000
REMARK  Name = 45784326
REMARK  5 active torsions:
REMARK  status: ('A' for Active; 'I' for Inactive)
REMARK    1  A    between atoms: N_1  and  C_10
REMARK    2  A    between atoms: C_5  and  C_9
REMARK    3  A    between atoms: C_10  and  C_11
REMARK    4  A    between atoms: C_20  and  C_24
REMARK    5  A    between atoms: C_21  and  C_23
REMARK                            x       y       z     vdW  Elec       q    Type
REMARK                         _______ _______ _______ _____ _____    ______ ____
ROOT
ATOM      1  N   UNL     1      -2.067 -10.958  13.795  0.00  0.00    -0.297 NA
ATOM      5  C   UNL     1      -3.210 -10.212  15.700  0.00  0.00    +0.070 C 
ATOM      6  C   UNL     1      -1.798 -10.677  16.097  0.00  0.00    +0.028 C 
ATOM      7  C   UNL     1      -3.432 -10.794  14.298  0.00  0.00    +0.096 C 
ATOM      8  C   UNL     1      -1.314 -11.513  14.919  0.00  0.00    +0.085 C 
ENDROOT
BRANCH   5   9
ATOM      2  N   UNL     1      -5.517  -9.967  16.662  0.00  0.00    -0.342 N 
ATOM      3  N   UNL     1      -4.234 -11.515  17.608  0.00  0.00    -0.232 NA
ATOM      9  C   UNL     1      -4.301 -10.592  16.676  0.00  0.00    +0.113 A 
ATOM     12  C   UNL     1      -6.285 -10.524  17.651  0.00  0.00    +0.067 A 
ATOM     13  C   UNL     1      -5.462 -11.487  18.228  0.00  0.00    +0.089 A 
ATOM     16  C   UNL     1      -7.589 -10.275  18.079  0.00  0.00    +0.046 A 
ATOM     17  C   UNL     1      -5.953 -12.258  19.295  0.00  0.00    +0.031 A 
ATOM     20  C   UNL     1      -8.062 -11.051  19.143  0.00  0.00    +0.054 A 
ATOM     22  C   UNL     1      -7.260 -12.025  19.742  0.00  0.00    +0.021 A 
ATOM     25  H   UNL     1      -5.801  -9.226  16.035  0.00  0.00    +0.167 HD
BRANCH  20  24
ATOM      4  N   UNL     1     -10.471 -10.671  20.016  0.00  0.00    -0.191 NA
ATOM     24  C   UNL     1      -9.392 -10.841  19.624  0.00  0.00    +0.099 C 
ENDBRANCH  20  24
ENDBRANCH   5   9
BRANCH   1  10
ATOM     10  C   UNL     1      -2.008 -11.808  12.615  0.00  0.00    +0.119 C 
BRANCH  10  11
ATOM     11  C   UNL     1      -2.771 -11.218  11.458  0.00  0.00    -0.033 A 
ATOM     14  C   UNL     1      -3.676 -12.003  10.747  0.00  0.00    +0.005 A 
ATOM     15  C   UNL     1      -2.570  -9.885  11.099  0.00  0.00    +0.005 A 
ATOM     18  C   UNL     1      -4.381 -11.457   9.674  0.00  0.00    +0.003 A 
ATOM     19  C   UNL     1      -3.274  -9.338  10.026  0.00  0.00    +0.003 A 
ATOM     21  C   UNL     1      -4.180 -10.124   9.314  0.00  0.00    -0.050 A 
ATOM     23  C   UNL     1      -4.932  -9.541   8.166  0.00  0.00    +0.044 C 
ENDBRANCH  10  11
ENDBRANCH   1  10
TORSDOF 4
ENDMDL
MODEL 2
REMARK VINA RESULT:      -6.9     25.415     28.396
REMARK  Name = 45784326
REMARK  5 active torsions:
REMARK  status: ('A' for Active; 'I' for Inactive)
REMARK    1  A    between atoms: N_1  and  C_10
REMARK    2  A    between atoms: C_5  and  C_9
REMARK    3  A    between atoms: C_10  and  C_11
REMARK    4  A    between atoms: C_20  and  C_24
REMARK    5  A    between atoms: C_21  and  C_23
REMARK                            x       y       z     vdW  Elec       q    Type
REMARK                         _______ _______ _______ _____ _____    ______ ____
ROOT
ATOM      1  N   UNL     1      16.143   8.899   5.115  0.00  0.00    -0.297 NA
ATOM      5  C   UNL     1      14.042   7.865   4.997  0.00  0.00    +0.070 C 
ATOM      6  C   UNL     1      13.993   9.215   4.259  0.00  0.00    +0.028 C 
ATOM      7  C   UNL     1      15.321   7.930   5.842  0.00  0.00    +0.096 C 
ATOM      8  C   UNL     1      15.222   9.973   4.746  0.00  0.00    +0.085 C 
ENDROOT
BRANCH   5   9
ATOM      2  N   UNL     1      12.803   6.512   6.710  0.00  0.00    -0.342 N 
ATOM      3  N   UNL     1      11.657   8.171   5.775  0.00  0.00    -0.232 NA
ATOM      9  C   UNL     1      12.811   7.543   5.813  0.00  0.00    +0.113 A 
ATOM     12  C   UNL     1      11.561   6.471   7.289  0.00  0.00    +0.067 A 
ATOM     13  C   UNL     1      10.864   7.515   6.689  0.00  0.00    +0.089 A 
ATOM     16  C   UNL     1      11.003   5.635   8.256  0.00  0.00    +0.046 A 
ATOM     17  C   UNL     1       9.531   7.755   7.064  0.00  0.00    +0.031 A 
ATOM     20  C   UNL     1       9.676   5.887   8.618  0.00  0.00    +0.054 A 
ATOM     22  C   UNL     1       8.951   6.928   8.033  0.00  0.00    +0.021 A 
ATOM     25  H   UNL     1      13.573   5.888   6.912  0.00  0.00    +0.167 HD
BRANCH  20  24
ATOM      4  N   UNL     1       8.543   4.393  10.406  0.00  0.00    -0.191 NA
ATOM     24  C   UNL     1       9.051   5.063   9.605  0.00  0.00    +0.099 C 
ENDBRANCH  20  24
ENDBRANCH   5   9
BRANCH   1  10
ATOM     10  C   UNL     1      17.266   9.379   5.907  0.00  0.00    +0.119 C 
BRANCH  10  11
ATOM     11  C   UNL     1      18.546   8.668   5.556  0.00  0.00    -0.033 A 
ATOM     14  C   UNL     1      18.729   8.157   4.272  0.00  0.00    +0.005 A 
ATOM     15  C   UNL     1      19.547   8.520   6.516  0.00  0.00    +0.005 A 
ATOM     18  C   UNL     1      19.913   7.496   3.947  0.00  0.00    +0.003 A 
ATOM     19  C   UNL     1      20.731   7.859   6.192  0.00  0.00    +0.003 A 
ATOM     21  C   UNL     1      20.915   7.347   4.907  0.00  0.00    -0.050 A 
ATOM     23  C   UNL     1      22.181   6.639   4.560  0.00  0.00    +0.044 C 
ENDBRANCH  10  11
ENDBRANCH   1  10
TORSDOF 4
ENDMDL
MODEL 3
REMARK VINA RESULT:      -6.8     19.656     20.963
REMARK  Name = 45784326
REMARK  5 active torsions:
REMARK  status: ('A' for Active; 'I' for Inactive)
REMARK    1  A    between atoms: N_1  and  C_10
REMARK    2  A    between atoms: C_5  and  C_9
REMARK    3  A    between atoms: C_10  and  C_11
REMARK    4  A    between atoms: C_20  and  C_24
REMARK    5  A    between atoms: C_21  and  C_23
REMARK                            x       y       z     vdW  Elec       q    Type
REMARK                         _______ _______ _______ _____ _____    ______ ____
ROOT
ATOM      1  N   UNL     1     -15.301   6.097  21.959  0.00  0.00    -0.297 NA
ATOM      5  C   UNL     1     -15.936   4.094  22.999  0.00  0.00    +0.070 C 
ATOM      6  C   UNL     1     -17.190   4.843  22.516  0.00  0.00    +0.028 C 
ATOM      7  C   UNL     1     -14.817   5.144  22.959  0.00  0.00    +0.096 C 
ATOM      8  C   UNL     1     -16.722   6.270  22.258  0.00  0.00    +0.085 C 
ENDROOT
BRANCH   5   9
ATOM      2  N   UNL     1     -15.762   4.096  25.504  0.00  0.00    -0.342 N 
ATOM      3  N   UNL     1     -16.488   2.206  24.586  0.00  0.00    -0.232 NA
ATOM      9  C   UNL     1     -16.074   3.431  24.350  0.00  0.00    +0.113 A 
ATOM     12  C   UNL     1     -15.989   3.243  26.553  0.00  0.00    +0.067 A 
ATOM     13  C   UNL     1     -16.441   2.070  25.954  0.00  0.00    +0.089 A 
ATOM     16  C   UNL     1     -15.841   3.390  27.931  0.00  0.00    +0.046 A 
ATOM     17  C   UNL     1     -16.771   0.970  26.764  0.00  0.00    +0.031 A 
ATOM     20  C   UNL     1     -16.174   2.286  28.723  0.00  0.00    +0.054 A 
ATOM     22  C   UNL     1     -16.631   1.096  28.151  0.00  0.00    +0.021 A 
ATOM     25  H   UNL     1     -15.423   5.046  25.574  0.00  0.00    +0.167 HD
BRANCH  20  24
ATOM      4  N   UNL     1     -15.938   2.455  31.297  0.00  0.00    -0.191 NA
ATOM     24  C   UNL     1     -16.043   2.379  30.144  0.00  0.00    +0.099 C 
ENDBRANCH  20  24
ENDBRANCH   5   9
BRANCH   1  10
ATOM     10  C   UNL     1     -14.571   7.356  21.992  0.00  0.00    +0.119 C 
BRANCH  10  11
ATOM     11  C   UNL     1     -13.604   7.475  20.844  0.00  0.00    -0.033 A 
ATOM     14  C   UNL     1     -14.065   7.840  19.581  0.00  0.00    +0.005 A 
ATOM     15  C   UNL     1     -12.247   7.217  21.046  0.00  0.00    +0.005 A 
ATOM     18  C   UNL     1     -13.170   7.948  18.516  0.00  0.00    +0.003 A 
ATOM     19  C   UNL     1     -11.352   7.325  19.982  0.00  0.00    +0.003 A 
ATOM     21  C   UNL     1     -11.813   7.691  18.717  0.00  0.00    -0.050 A 
ATOM     23  C   UNL     1     -10.856   7.805  17.579  0.00  0.00    +0.044 C 
ENDBRANCH  10  11
ENDBRANCH   1  10
TORSDOF 4
ENDMDL
MODEL 4
REMARK VINA RESULT:      -6.7     22.443     25.665
REMARK  Name = 45784326
REMARK  5 active torsions:
REMARK  status: ('A' for Active; 'I' for Inactive)
REMARK    1  A    between atoms: N_1  and  C_10
REMARK    2  A    between atoms: C_5  and  C_9
REMARK    3  A    between atoms: C_10  and  C_11
REMARK    4  A    between atoms: C_20  and  C_24
REMARK    5  A    between atoms: C_21  and  C_23
REMARK                            x       y       z     vdW  Elec       q    Type
REMARK                         _______ _______ _______ _____ _____    ______ ____
ROOT
ATOM      1  N   UNL     1      11.585   4.832   0.771  0.00  0.00    -0.297 NA
ATOM      5  C   UNL     1      10.169   5.851   2.336  0.00  0.00    +0.070 C 
ATOM      6  C   UNL     1      11.139   6.898   1.762  0.00  0.00    +0.028 C 
ATOM      7  C   UNL     1      10.782   4.499   1.949  0.00  0.00    +0.096 C 
ATOM      8  C   UNL     1      12.253   6.087   1.112  0.00  0.00    +0.085 C 
ENDROOT
BRANCH   5   9
ATOM      2  N   UNL     1      10.304   5.006   4.696  0.00  0.00    -0.342 N 
ATOM      3  N   UNL     1       9.299   6.970   4.429  0.00  0.00    -0.232 NA
ATOM      9  C   UNL     1       9.905   5.976   3.820  0.00  0.00    +0.113 A 
ATOM     12  C   UNL     1       9.930   5.400   5.955  0.00  0.00    +0.067 A 
ATOM     13  C   UNL     1       9.304   6.629   5.762  0.00  0.00    +0.089 A 
ATOM     16  C   UNL     1      10.078   4.806   7.208  0.00  0.00    +0.046 A 
ATOM     17  C   UNL     1       8.792   7.319   6.873  0.00  0.00    +0.031 A 
ATOM     20  C   UNL     1       9.562   5.506   8.303  0.00  0.00    +0.054 A 
ATOM     22  C   UNL     1       8.930   6.741   8.141  0.00  0.00    +0.021 A 
ATOM     25  H   UNL     1      10.788   4.150   4.462  0.00  0.00    +0.167 HD
BRANCH  20  24
ATOM      4  N   UNL     1       9.787   4.492  10.676  0.00  0.00    -0.191 NA
ATOM     24  C   UNL     1       9.686   4.947   9.613  0.00  0.00    +0.099 C 
ENDBRANCH  20  24
ENDBRANCH   5   9
BRANCH   1  10
ATOM     10  C   UNL     1      12.529   3.778   0.427  0.00  0.00    +0.119 C 
BRANCH  10  11
ATOM     11  C   UNL     1      12.610   3.560  -1.061  0.00  0.00    -0.033 A 
ATOM     14  C   UNL     1      13.598   4.201  -1.806  0.00  0.00    +0.005 A 
ATOM     15  C   UNL     1      11.694   2.718  -1.693  0.00  0.00    +0.005 A 
ATOM     18  C   UNL     1      13.672   4.002  -3.184  0.00  0.00    +0.003 A 
ATOM     19  C   UNL     1      11.767   2.518  -3.071  0.00  0.00    +0.003 A 
ATOM     21  C   UNL     1      12.756   3.160  -3.818  0.00  0.00    -0.050 A 
ATOM     23  C   UNL     1      12.834   2.948  -5.291  0.00  0.00    +0.044 C 
ENDBRANCH  10  11
ENDBRANCH   1  10
TORSDOF 4
ENDMDL
MODEL 5
REMARK VINA RESULT:      -6.7     22.662     26.804
REMARK  Name = 45784326
REMARK  5 active torsions:
REMARK  status: ('A' for Active; 'I' for Inactive)
REMARK    1  A    between atoms: N_1  and  C_10
REMARK    2  A    between atoms: C_5  and  C_9
REMARK    3  A    between atoms: C_10  and  C_11
REMARK    4  A    between atoms: C_20  and  C_24
REMARK    5  A    between atoms: C_21  and  C_23
REMARK                            x       y       z     vdW  Elec       q    Type
REMARK                         _______ _______ _______ _____ _____    ______ ____
ROOT
ATOM      1  N   UNL     1      10.885   5.576   4.118  0.00  0.00    -0.297 NA
ATOM      5  C   UNL     1      11.966   4.496   2.341  0.00  0.00    +0.070 C 
ATOM      6  C   UNL     1      12.663   5.837   2.628  0.00  0.00    +0.028 C 
ATOM      7  C   UNL     1      10.617   4.596   3.064  0.00  0.00    +0.096 C 
ATOM      8  C   UNL     1      11.666   6.627   3.467  0.00  0.00    +0.085 C 
ENDROOT
BRANCH   5   9
ATOM      2  N   UNL     1      10.790   4.643   0.128  0.00  0.00    -0.342 N 
ATOM      3  N   UNL     1      12.630   3.397   0.164  0.00  0.00    -0.232 NA
ATOM      9  C   UNL     1      11.827   4.156   0.874  0.00  0.00    +0.113 A 
ATOM     12  C   UNL     1      10.934   4.166  -1.149  0.00  0.00    +0.067 A 
ATOM     13  C   UNL     1      12.089   3.391  -1.102  0.00  0.00    +0.089 A 
ATOM     16  C   UNL     1      10.176   4.339  -2.307  0.00  0.00    +0.046 A 
ATOM     17  C   UNL     1      12.529   2.744  -2.269  0.00  0.00    +0.031 A 
ATOM     20  C   UNL     1      10.628   3.688  -3.460  0.00  0.00    +0.054 A 
ATOM     22  C   UNL     1      11.784   2.904  -3.443  0.00  0.00    +0.021 A 
ATOM     25  H   UNL     1      10.048   5.246   0.456  0.00  0.00    +0.167 HD
BRANCH  20  24
ATOM      4  N   UNL     1       9.295   3.946  -5.666  0.00  0.00    -0.191 NA
ATOM     24  C   UNL     1       9.892   3.830  -4.678  0.00  0.00    +0.099 C 
ENDBRANCH  20  24
ENDBRANCH   5   9
BRANCH   1  10
ATOM     10  C   UNL     1       9.664   6.088   4.723  0.00  0.00    +0.119 C 
BRANCH  10  11
ATOM     11  C   UNL     1       9.563   5.721   6.181  0.00  0.00    -0.033 A 
ATOM     14  C   UNL     1       9.892   4.433   6.599  0.00  0.00    +0.005 A 
ATOM     15  C   UNL     1       9.139   6.671   7.111  0.00  0.00    +0.005 A 
ATOM     18  C   UNL     1       9.796   4.093   7.948  0.00  0.00    +0.003 A 
ATOM     19  C   UNL     1       9.043   6.331   8.460  0.00  0.00    +0.003 A 
ATOM     21  C   UNL     1       9.372   5.042   8.879  0.00  0.00    -0.050 A 
ATOM     23  C   UNL     1       9.268   4.677  10.321  0.00  0.00    +0.044 C 
ENDBRANCH  10  11
ENDBRANCH   1  10
TORSDOF 4
ENDMDL
MODEL 6
REMARK VINA RESULT:      -6.7     19.660     20.642
REMARK  Name = 45784326
REMARK  5 active torsions:
REMARK  status: ('A' for Active; 'I' for Inactive)
REMARK    1  A    between atoms: N_1  and  C_10
REMARK    2  A    between atoms: C_5  and  C_9
REMARK    3  A    between atoms: C_10  and  C_11
REMARK    4  A    between atoms: C_20  and  C_24
REMARK    5  A    between atoms: C_21  and  C_23
REMARK                            x       y       z     vdW  Elec       q    Type
REMARK                         _______ _______ _______ _____ _____    ______ ____
ROOT
ATOM      1  N   UNL     1     -13.315   6.654  21.168  0.00  0.00    -0.297 NA
ATOM      5  C   UNL     1     -15.174   5.422  21.891  0.00  0.00    +0.070 C 
ATOM      6  C   UNL     1     -15.421   6.920  22.140  0.00  0.00    +0.028 C 
ATOM      7  C   UNL     1     -13.664   5.314  21.641  0.00  0.00    +0.096 C 
ATOM      8  C   UNL     1     -14.045   7.567  22.047  0.00  0.00    +0.085 C 
ENDROOT
BRANCH   5   9
ATOM      2  N   UNL     1     -15.351   4.751  24.304  0.00  0.00    -0.342 N 
ATOM      3  N   UNL     1     -16.390   3.426  22.853  0.00  0.00    -0.232 NA
ATOM      9  C   UNL     1     -15.657   4.507  22.993  0.00  0.00    +0.113 A 
ATOM     12  C   UNL     1     -15.924   3.760  25.058  0.00  0.00    +0.067 A 
ATOM     13  C   UNL     1     -16.567   2.946  24.130  0.00  0.00    +0.089 A 
ATOM     16  C   UNL     1     -15.935   3.512  26.431  0.00  0.00    +0.046 A 
ATOM     17  C   UNL     1     -17.267   1.814  24.580  0.00  0.00    +0.031 A 
ATOM     20  C   UNL     1     -16.637   2.382  26.862  0.00  0.00    +0.054 A 
ATOM     22  C   UNL     1     -17.292   1.546  25.954  0.00  0.00    +0.021 A 
ATOM     25  H   UNL     1     -14.800   5.521  24.656  0.00  0.00    +0.167 HD
BRANCH  20  24
ATOM      4  N   UNL     1     -16.722   1.830  29.391  0.00  0.00    -0.191 NA
ATOM     24  C   UNL     1     -16.684   2.078  28.258  0.00  0.00    +0.099 C 
ENDBRANCH  20  24
ENDBRANCH   5   9
BRANCH   1  10
ATOM     10  C   UNL     1     -11.880   6.894  21.188  0.00  0.00    +0.119 C 
BRANCH  10  11
ATOM     11  C   UNL     1     -11.434   7.731  20.018  0.00  0.00    -0.033 A 
ATOM     14  C   UNL     1     -11.340   7.162  18.749  0.00  0.00    +0.005 A 
ATOM     15  C   UNL     1     -11.113   9.076  20.205  0.00  0.00    +0.005 A 
ATOM     18  C   UNL     1     -10.925   7.936  17.666  0.00  0.00    +0.003 A 
ATOM     19  C   UNL     1     -10.698   9.851  19.122  0.00  0.00    +0.003 A 
ATOM     21  C   UNL     1     -10.603   9.281  17.853  0.00  0.00    -0.050 A 
ATOM     23  C   UNL     1     -10.158  10.108  16.695  0.00  0.00    +0.044 C 
ENDBRANCH  10  11
ENDBRANCH   1  10
TORSDOF 4
ENDMDL
MODEL 7
REMARK VINA RESULT:      -6.4     27.517     30.436
REMARK  Name = 45784326
REMARK  5 active torsions:
REMARK  status: ('A' for Active; 'I' for Inactive)
REMARK    1  A    between atoms: N_1  and  C_10
REMARK    2  A    between atoms: C_5  and  C_9
REMARK    3  A    between atoms: C_10  and  C_11
REMARK    4  A    between atoms: C_20  and  C_24
REMARK    5  A    between atoms: C_21  and  C_23
REMARK                            x       y       z     vdW  Elec       q    Type
REMARK                         _______ _______ _______ _____ _____    ______ ____
ROOT
ATOM      1  N   UNL     1      17.611   7.770  20.719  0.00  0.00    -0.297 NA
ATOM      5  C   UNL     1      19.500   6.449  20.291  0.00  0.00    +0.070 C 
ATOM      6  C   UNL     1      18.247   5.753  19.731  0.00  0.00    +0.028 C 
ATOM      7  C   UNL     1      18.955   7.522  21.243  0.00  0.00    +0.096 C 
ATOM      8  C   UNL     1      17.074   6.445  20.413  0.00  0.00    +0.085 C 
ENDROOT
BRANCH   5   9
ATOM      2  N   UNL     1      21.148   4.557  20.238  0.00  0.00    -0.342 N 
ATOM      3  N   UNL     1      20.853   5.527  22.216  0.00  0.00    -0.232 NA
ATOM      9  C   UNL     1      20.498   5.525  20.951  0.00  0.00    +0.113 A 
ATOM     12  C   UNL     1      21.979   3.890  21.101  0.00  0.00    +0.067 A 
ATOM     13  C   UNL     1      21.777   4.513  22.329  0.00  0.00    +0.089 A 
ATOM     16  C   UNL     1      22.862   2.826  20.920  0.00  0.00    +0.046 A 
ATOM     17  C   UNL     1      22.490   4.062  23.453  0.00  0.00    +0.031 A 
ATOM     20  C   UNL     1      23.564   2.389  22.048  0.00  0.00    +0.054 A 
ATOM     22  C   UNL     1      23.382   2.996  23.294  0.00  0.00    +0.021 A 
ATOM     25  H   UNL     1      21.039   4.364  19.252  0.00  0.00    +0.167 HD
BRANCH  20  24
ATOM      4  N   UNL     1      25.231   0.420  21.822  0.00  0.00    -0.191 NA
ATOM     24  C   UNL     1      24.485   1.302  21.923  0.00  0.00    +0.099 C 
ENDBRANCH  20  24
ENDBRANCH   5   9
BRANCH   1  10
ATOM     10  C   UNL     1      16.775   8.503  21.659  0.00  0.00    +0.119 C 
BRANCH  10  11
ATOM     11  C   UNL     1      15.338   8.553  21.212  0.00  0.00    -0.033 A 
ATOM     14  C   UNL     1      14.338   8.022  22.024  0.00  0.00    +0.005 A 
ATOM     15  C   UNL     1      15.009   9.128  19.984  0.00  0.00    +0.005 A 
ATOM     18  C   UNL     1      13.007   8.065  21.610  0.00  0.00    +0.003 A 
ATOM     19  C   UNL     1      13.678   9.171  19.569  0.00  0.00    +0.003 A 
ATOM     21  C   UNL     1      12.676   8.640  20.382  0.00  0.00    -0.050 A 
ATOM     23  C   UNL     1      11.254   8.685  19.939  0.00  0.00    +0.044 C 
ENDBRANCH  10  11
ENDBRANCH   1  10
TORSDOF 4
ENDMDL
MODEL 8
REMARK VINA RESULT:      -6.3      2.727      4.113
REMARK  Name = 45784326
REMARK  5 active torsions:
REMARK  status: ('A' for Active; 'I' for Inactive)
REMARK    1  A    between atoms: N_1  and  C_10
REMARK    2  A    between atoms: C_5  and  C_9
REMARK    3  A    between atoms: C_10  and  C_11
REMARK    4  A    between atoms: C_20  and  C_24
REMARK    5  A    between atoms: C_21  and  C_23
REMARK                            x       y       z     vdW  Elec       q    Type
REMARK                         _______ _______ _______ _____ _____    ______ ____
ROOT
ATOM      1  N   UNL     1      -4.233 -11.707  16.334  0.00  0.00    -0.297 NA
ATOM      5  C   UNL     1      -5.756 -10.282  17.403  0.00  0.00    +0.070 C 
ATOM      6  C   UNL     1      -5.452 -11.485  18.313  0.00  0.00    +0.028 C 
ATOM      7  C   UNL     1      -5.252 -10.704  16.017  0.00  0.00    +0.096 C 
ATOM      8  C   UNL     1      -4.823 -12.524  17.393  0.00  0.00    +0.085 C 
ENDROOT
BRANCH   5   9
ATOM      2  N   UNL     1      -7.644  -8.865  16.548  0.00  0.00    -0.342 N 
ATOM      3  N   UNL     1      -8.170 -10.309  18.153  0.00  0.00    -0.232 NA
ATOM      9  C   UNL     1      -7.203  -9.842  17.396  0.00  0.00    +0.113 A 
ATOM     12  C   UNL     1      -8.985  -8.690  16.773  0.00  0.00    +0.067 A 
ATOM     13  C   UNL     1      -9.289  -9.602  17.779  0.00  0.00    +0.089 A 
ATOM     16  C   UNL     1      -9.929  -7.837  16.202  0.00  0.00    +0.046 A 
ATOM     17  C   UNL     1     -10.609  -9.683  18.255  0.00  0.00    +0.031 A 
ATOM     20  C   UNL     1     -11.238  -7.931  16.687  0.00  0.00    +0.054 A 
ATOM     22  C   UNL     1     -11.574  -8.837  17.696  0.00  0.00    +0.021 A 
ATOM     25  H   UNL     1      -7.084  -8.360  15.875  0.00  0.00    +0.167 HD
BRANCH  20  24
ATOM      4  N   UNL     1     -13.071  -6.394  15.693  0.00  0.00    -0.191 NA
ATOM     24  C   UNL     1     -12.250  -7.082  16.138  0.00  0.00    +0.099 C 
ENDBRANCH  20  24
ENDBRANCH   5   9
BRANCH   1  10
ATOM     10  C   UNL     1      -3.851 -12.496  15.172  0.00  0.00    +0.119 C 
BRANCH  10  11
ATOM     11  C   UNL     1      -3.136 -11.666  14.139  0.00  0.00    -0.033 A 
ATOM     14  C   UNL     1      -3.484 -11.776  12.794  0.00  0.00    +0.005 A 
ATOM     15  C   UNL     1      -2.125 -10.787  14.528  0.00  0.00    +0.005 A 
ATOM     18  C   UNL     1      -2.821 -11.009  11.836  0.00  0.00    +0.003 A 
ATOM     19  C   UNL     1      -1.461 -10.019  13.571  0.00  0.00    +0.003 A 
ATOM     21  C   UNL     1      -1.809 -10.130  12.225  0.00  0.00    -0.050 A 
ATOM     23  C   UNL     1      -1.100  -9.311  11.201  0.00  0.00    +0.044 C 
ENDBRANCH  10  11
ENDBRANCH   1  10
TORSDOF 4
ENDMDL
MODEL 9
REMARK VINA RESULT:      -6.3      6.477      8.770
REMARK  Name = 45784326
REMARK  5 active torsions:
REMARK  status: ('A' for Active; 'I' for Inactive)
REMARK    1  A    between atoms: N_1  and  C_10
REMARK    2  A    between atoms: C_5  and  C_9
REMARK    3  A    between atoms: C_10  and  C_11
REMARK    4  A    between atoms: C_20  and  C_24
REMARK    5  A    between atoms: C_21  and  C_23
REMARK                            x       y       z     vdW  Elec       q    Type
REMARK                         _______ _______ _______ _____ _____    ______ ____
ROOT
ATOM      1  N   UNL     1     -11.914  -7.280  14.554  0.00  0.00    -0.297 NA
ATOM      5  C   UNL     1     -10.745  -8.210  16.360  0.00  0.00    +0.070 C 
ATOM      6  C   UNL     1     -10.843  -6.685  16.541  0.00  0.00    +0.028 C 
ATOM      7  C   UNL     1     -11.100  -8.450  14.887  0.00  0.00    +0.096 C 
ATOM      8  C   UNL     1     -11.217  -6.149  15.165  0.00  0.00    +0.085 C 
ENDROOT
BRANCH   5   9
ATOM      2  N   UNL     1      -8.345  -8.786  15.901  0.00  0.00    -0.342 N 
ATOM      3  N   UNL     1      -9.123  -9.399  17.891  0.00  0.00    -0.232 NA
ATOM      9  C   UNL     1      -9.415  -8.811  16.753  0.00  0.00    +0.113 A 
ATOM     12  C   UNL     1      -7.294  -9.399  16.532  0.00  0.00    +0.067 A 
ATOM     13  C   UNL     1      -7.804  -9.774  17.771  0.00  0.00    +0.089 A 
ATOM     16  C   UNL     1      -5.980  -9.652  16.137  0.00  0.00    +0.046 A 
ATOM     17  C   UNL     1      -6.969 -10.440  18.684  0.00  0.00    +0.031 A 
ATOM     20  C   UNL     1      -5.162 -10.316  17.056  0.00  0.00    +0.054 A 
ATOM     22  C   UNL     1      -5.646 -10.704  18.308  0.00  0.00    +0.021 A 
ATOM     25  H   UNL     1      -8.329  -8.387  14.972  0.00  0.00    +0.167 HD
BRANCH  20  24
ATOM      4  N   UNL     1      -2.704 -10.833  16.425  0.00  0.00    -0.191 NA
ATOM     24  C   UNL     1      -3.806 -10.602  16.707  0.00  0.00    +0.099 C 
ENDBRANCH  20  24
ENDBRANCH   5   9
BRANCH   1  10
ATOM     10  C   UNL     1     -12.086  -7.115  13.118  0.00  0.00    +0.119 C 
BRANCH  10  11
ATOM     11  C   UNL     1     -12.908  -5.897  12.787  0.00  0.00    -0.033 A 
ATOM     14  C   UNL     1     -14.229  -5.809  13.223  0.00  0.00    +0.005 A 
ATOM     15  C   UNL     1     -12.347  -4.859  12.042  0.00  0.00    +0.005 A 
ATOM     18  C   UNL     1     -14.991  -4.682  12.915  0.00  0.00    +0.003 A 
ATOM     19  C   UNL     1     -13.109  -3.732  11.733  0.00  0.00    +0.003 A 
ATOM     21  C   UNL     1     -14.431  -3.643  12.170  0.00  0.00    -0.050 A 
ATOM     23  C   UNL     1     -15.247  -2.439  11.840  0.00  0.00    +0.044 C 
ENDBRANCH  10  11
ENDBRANCH   1  10
TORSDOF 4
ENDMDL
MODEL 10
REMARK VINA RESULT:      -6.2      4.878      7.335
REMARK  Name = 45784326
REMARK  5 active torsions:
REMARK  status: ('A' for Active; 'I' for Inactive)
REMARK    1  A    between atoms: N_1  and  C_10
REMARK    2  A    between atoms: C_5  and  C_9
REMARK    3  A    between atoms: C_10  and  C_11
REMARK    4  A    between atoms: C_20  and  C_24
REMARK    5  A    between atoms: C_21  and  C_23
REMARK                            x       y       z     vdW  Elec       q    Type
REMARK                         _______ _______ _______ _____ _____    ______ ____
ROOT
ATOM      1  N   UNL     1      -7.407 -10.666  16.893  0.00  0.00    -0.297 NA
ATOM      5  C   UNL     1      -8.926  -8.916  17.251  0.00  0.00    +0.070 C 
ATOM      6  C   UNL     1      -9.316 -10.123  18.123  0.00  0.00    +0.028 C 
ATOM      7  C   UNL     1      -7.947  -9.485  16.216  0.00  0.00    +0.096 C 
ATOM      8  C   UNL     1      -8.564 -11.303  17.520  0.00  0.00    +0.085 C 
ENDROOT
BRANCH   5   9
ATOM      2  N   UNL     1      -9.894  -7.108  15.804  0.00  0.00    -0.342 N 
ATOM      3  N   UNL     1     -11.365  -8.468  16.766  0.00  0.00    -0.232 NA
ATOM      9  C   UNL     1     -10.090  -8.185  16.622  0.00  0.00    +0.113 A 
ATOM     12  C   UNL     1     -11.125  -6.666  15.392  0.00  0.00    +0.067 A 
ATOM     13  C   UNL     1     -12.027  -7.530  16.006  0.00  0.00    +0.089 A 
ATOM     16  C   UNL     1     -11.516  -5.615  14.562  0.00  0.00    +0.046 A 
ATOM     17  C   UNL     1     -13.404  -7.351  15.790  0.00  0.00    +0.031 A 
ATOM     20  C   UNL     1     -12.890  -5.451  14.357  0.00  0.00    +0.054 A 
ATOM     22  C   UNL     1     -13.819  -6.303  14.960  0.00  0.00    +0.021 A 
ATOM     25  H   UNL     1      -9.003  -6.706  15.546  0.00  0.00    +0.167 HD
BRANCH  20  24
ATOM      4  N   UNL     1     -13.725  -3.532  12.831  0.00  0.00    -0.191 NA
ATOM     24  C   UNL     1     -13.350  -4.392  13.515  0.00  0.00    +0.099 C 
ENDBRANCH  20  24
ENDBRANCH   5   9
BRANCH   1  10
ATOM     10  C   UNL     1      -6.710 -11.559  15.979  0.00  0.00    +0.119 C 
BRANCH  10  11
ATOM     11  C   UNL     1      -5.240 -11.242  15.895  0.00  0.00    -0.033 A 
ATOM     14  C   UNL     1      -4.629 -11.097  14.651  0.00  0.00    +0.005 A 
ATOM     15  C   UNL     1      -4.491 -11.095  17.063  0.00  0.00    +0.005 A 
ATOM     18  C   UNL     1      -3.267 -10.806  14.573  0.00  0.00    +0.003 A 
ATOM     19  C   UNL     1      -3.129 -10.803  16.986  0.00  0.00    +0.003 A 
ATOM     21  C   UNL     1      -2.517 -10.658  15.741  0.00  0.00    -0.050 A 
ATOM     23  C   UNL     1      -1.061 -10.348  15.657  0.00  0.00    +0.044 C 
ENDBRANCH  10  11
ENDBRANCH   1  10
TORSDOF 4
ENDMDL
