MODEL 1
REMARK VINA RESULT:      -6.4      0.000      0.000
REMARK  Name = 56775375
REMARK  3 active torsions:
REMARK  status: ('A' for Active; 'I' for Inactive)
REMARK    1  A    between atoms: N_5  and  C_12
REMARK    2  A    between atoms: N_6  and  C_19
REMARK    3  A    between atoms: C_19  and  C_20
REMARK                            x       y       z     vdW  Elec       q    Type
REMARK                         _______ _______ _______ _____ _____    ______ ____
ROOT
ATOM      1  O   UNL     1      13.076   7.693  21.677  0.00  0.00    -0.364 OA
ATOM      3  O   UNL     1      14.655   7.429  18.538  0.00  0.00    -0.273 OA
ATOM      5  N   UNL     1      11.183  10.378  21.930  0.00  0.00    -0.295 NA
ATOM      6  N   UNL     1      12.777   8.675  19.121  0.00  0.00    -0.284 N 
ATOM      8  C   UNL     1      11.803   9.051  20.143  0.00  0.00    +0.121 C 
ATOM      9  C   UNL     1      11.759   8.134  21.360  0.00  0.00    +0.154 C 
ATOM     10  C   UNL     1      12.081  10.412  20.777  0.00  0.00    +0.110 C 
ATOM     11  C   UNL     1      11.276   9.029  22.506  0.00  0.00    +0.118 C 
ATOM     15  C   UNL     1      13.760   7.712  19.335  0.00  0.00    +0.242 C 
ATOM     16  C   UNL     1      13.621   6.932  20.625  0.00  0.00    +0.256 C 
ENDROOT
BRANCH   5  12
ATOM      2  O   UNL     1      10.495  13.422  24.739  0.00  0.00    -0.380 OA
ATOM     12  C   UNL     1      11.470  11.431  22.901  0.00  0.00    +0.061 C 
ATOM     13  C   UNL     1      10.917  11.073  24.284  0.00  0.00    +0.047 C 
ATOM     14  C   UNL     1      10.879  12.763  22.431  0.00  0.00    +0.047 C 
ATOM     17  C   UNL     1      11.106  12.238  25.249  0.00  0.00    +0.161 C 
ATOM     18  C   UNL     1      11.070  13.835  23.499  0.00  0.00    +0.161 C 
ENDBRANCH   5  12
BRANCH   6  19
ATOM     19  C   UNL     1      12.751   9.425  17.873  0.00  0.00    +0.203 C 
BRANCH  19  20
ATOM      4  O   UNL     1      11.271   7.679  17.083  0.00  0.00    -0.274 OA
ATOM      7  N   UNL     1      11.527   9.577  15.811  0.00  0.00    -0.328 N 
ATOM     20  C   UNL     1      11.766   8.790  16.918  0.00  0.00    +0.228 C 
ATOM     21  H   UNL     1      10.898   9.269  15.078  0.00  0.00    +0.145 HD
ATOM     22  H   UNL     1      11.960  10.487  15.689  0.00  0.00    +0.145 HD
ENDBRANCH  19  20
ENDBRANCH   6  19
TORSDOF 3
ENDMDL
MODEL 2
REMARK VINA RESULT:      -6.4      3.389      6.455
REMARK  Name = 56775375
REMARK  3 active torsions:
REMARK  status: ('A' for Active; 'I' for Inactive)
REMARK    1  A    between atoms: N_5  and  C_12
REMARK    2  A    between atoms: N_6  and  C_19
REMARK    3  A    between atoms: C_19  and  C_20
REMARK                            x       y       z     vdW  Elec       q    Type
REMARK                         _______ _______ _______ _____ _____    ______ ____
ROOT
ATOM      1  O   UNL     1      13.773   8.368  22.121  0.00  0.00    -0.364 OA
ATOM      3  O   UNL     1      10.798   7.530  20.430  0.00  0.00    -0.273 OA
ATOM      5  N   UNL     1      16.471   7.771  20.326  0.00  0.00    -0.295 NA
ATOM      6  N   UNL     1      12.909   7.940  19.541  0.00  0.00    -0.284 N 
ATOM      8  C   UNL     1      14.299   8.328  19.767  0.00  0.00    +0.121 C 
ATOM      9  C   UNL     1      14.574   8.983  21.117  0.00  0.00    +0.154 C 
ATOM     10  C   UNL     1      15.266   7.147  19.781  0.00  0.00    +0.110 C 
ATOM     11  C   UNL     1      16.039   8.653  21.419  0.00  0.00    +0.118 C 
ATOM     15  C   UNL     1      11.954   7.934  20.554  0.00  0.00    +0.242 C 
ATOM     16  C   UNL     1      12.403   8.556  21.859  0.00  0.00    +0.256 C 
ENDROOT
BRANCH   5  12
ATOM      2  O   UNL     1      20.176   5.813  20.593  0.00  0.00    -0.380 OA
ATOM     12  C   UNL     1      17.473   6.794  20.746  0.00  0.00    +0.061 C 
ATOM     13  C   UNL     1      18.636   7.475  21.473  0.00  0.00    +0.047 C 
ATOM     14  C   UNL     1      17.996   6.015  19.536  0.00  0.00    +0.047 C 
ATOM     17  C   UNL     1      19.732   6.461  21.784  0.00  0.00    +0.161 C 
ATOM     18  C   UNL     1      19.128   5.083  19.954  0.00  0.00    +0.161 C 
ENDBRANCH   5  12
BRANCH   6  19
ATOM     19  C   UNL     1      12.565   7.456  18.211  0.00  0.00    +0.203 C 
BRANCH  19  20
ATOM      4  O   UNL     1      12.432   9.569  17.036  0.00  0.00    -0.274 OA
ATOM      7  N   UNL     1      10.526   8.304  17.265  0.00  0.00    -0.328 N 
ATOM     20  C   UNL     1      11.872   8.551  17.433  0.00  0.00    +0.228 C 
ATOM     21  H   UNL     1       9.932   8.963  16.774  0.00  0.00    +0.145 HD
ATOM     22  H   UNL     1      10.081   7.462  17.616  0.00  0.00    +0.145 HD
ENDBRANCH  19  20
ENDBRANCH   6  19
TORSDOF 3
ENDMDL
MODEL 3
REMARK VINA RESULT:      -6.2      1.942      3.127
REMARK  Name = 56775375
REMARK  3 active torsions:
REMARK  status: ('A' for Active; 'I' for Inactive)
REMARK    1  A    between atoms: N_5  and  C_12
REMARK    2  A    between atoms: N_6  and  C_19
REMARK    3  A    between atoms: C_19  and  C_20
REMARK                            x       y       z     vdW  Elec       q    Type
REMARK                         _______ _______ _______ _____ _____    ______ ____
ROOT
ATOM      1  O   UNL     1      12.816  10.580  19.346  0.00  0.00    -0.364 OA
ATOM      3  O   UNL     1      11.868   7.247  18.705  0.00  0.00    -0.273 OA
ATOM      5  N   UNL     1      13.311  11.170  22.550  0.00  0.00    -0.295 NA
ATOM      6  N   UNL     1      12.939   8.119  20.578  0.00  0.00    -0.284 N 
ATOM      8  C   UNL     1      13.533   9.276  21.245  0.00  0.00    +0.121 C 
ATOM      9  C   UNL     1      13.836  10.460  20.334  0.00  0.00    +0.154 C 
ATOM     10  C   UNL     1      12.622   9.905  22.296  0.00  0.00    +0.110 C 
ATOM     11  C   UNL     1      13.751  11.687  21.247  0.00  0.00    +0.118 C 
ATOM     15  C   UNL     1      12.457   8.168  19.274  0.00  0.00    +0.242 C 
ATOM     16  C   UNL     1      12.777   9.441  18.520  0.00  0.00    +0.256 C 
ENDROOT
BRANCH   5  12
ATOM      2  O   UNL     1       9.928  12.829  24.402  0.00  0.00    -0.380 OA
ATOM     12  C   UNL     1      12.489  12.123  23.292  0.00  0.00    +0.061 C 
ATOM     13  C   UNL     1      11.954  11.500  24.585  0.00  0.00    +0.047 C 
ATOM     14  C   UNL     1      11.325  12.610  22.425  0.00  0.00    +0.047 C 
ATOM     17  C   UNL     1      10.992  12.459  25.278  0.00  0.00    +0.161 C 
ATOM     18  C   UNL     1      10.398  13.508  23.237  0.00  0.00    +0.161 C 
ENDBRANCH   5  12
BRANCH   6  19
ATOM     19  C   UNL     1      12.775   6.909  21.372  0.00  0.00    +0.203 C 
BRANCH  19  20
ATOM      4  O   UNL     1      10.462   7.327  21.955  0.00  0.00    -0.274 OA
ATOM      7  N   UNL     1      11.030   5.291  21.053  0.00  0.00    -0.328 N 
ATOM     20  C   UNL     1      11.307   6.570  21.486  0.00  0.00    +0.228 C 
ATOM     21  H   UNL     1      10.085   4.922  21.086  0.00  0.00    +0.145 HD
ATOM     22  H   UNL     1      11.747   4.675  20.683  0.00  0.00    +0.145 HD
ENDBRANCH  19  20
ENDBRANCH   6  19
TORSDOF 3
ENDMDL
MODEL 4
REMARK VINA RESULT:      -6.0      3.130      6.620
REMARK  Name = 56775375
REMARK  3 active torsions:
REMARK  status: ('A' for Active; 'I' for Inactive)
REMARK    1  A    between atoms: N_5  and  C_12
REMARK    2  A    between atoms: N_6  and  C_19
REMARK    3  A    between atoms: C_19  and  C_20
REMARK                            x       y       z     vdW  Elec       q    Type
REMARK                         _______ _______ _______ _____ _____    ______ ____
ROOT
ATOM      1  O   UNL     1      14.399  10.314  21.807  0.00  0.00    -0.364 OA
ATOM      3  O   UNL     1      10.956   9.933  22.458  0.00  0.00    -0.273 OA
ATOM      5  N   UNL     1      15.614   7.900  19.923  0.00  0.00    -0.295 NA
ATOM      6  N   UNL     1      12.228   8.983  20.756  0.00  0.00    -0.284 N 
ATOM      8  C   UNL     1      13.522   8.867  20.087  0.00  0.00    +0.121 C 
ATOM      9  C   UNL     1      14.526   9.961  20.433  0.00  0.00    +0.154 C 
ATOM     10  C   UNL     1      14.287   7.600  20.460  0.00  0.00    +0.110 C 
ATOM     11  C   UNL     1      15.898   9.306  20.243  0.00  0.00    +0.118 C 
ATOM     15  C   UNL     1      12.000   9.866  21.808  0.00  0.00    +0.242 C 
ATOM     16  C   UNL     1      13.122  10.846  22.075  0.00  0.00    +0.256 C 
ENDROOT
BRANCH   5  12
ATOM      2  O   UNL     1      19.402   6.162  20.436  0.00  0.00    -0.380 OA
ATOM     12  C   UNL     1      16.643   6.986  20.414  0.00  0.00    +0.061 C 
ATOM     13  C   UNL     1      17.719   7.739  21.203  0.00  0.00    +0.047 C 
ATOM     14  C   UNL     1      17.283   6.229  19.247  0.00  0.00    +0.047 C 
ATOM     17  C   UNL     1      18.850   6.793  21.591  0.00  0.00    +0.161 C 
ATOM     18  C   UNL     1      18.438   5.367  19.743  0.00  0.00    +0.161 C 
ENDBRANCH   5  12
BRANCH   6  19
ATOM     19  C   UNL     1      11.184   8.055  20.343  0.00  0.00    +0.203 C 
BRANCH  19  20
ATOM      4  O   UNL     1      11.658   6.135  21.739  0.00  0.00    -0.274 OA
ATOM      7  N   UNL     1       9.704   7.297  22.076  0.00  0.00    -0.328 N 
ATOM     20  C   UNL     1      10.912   7.067  21.453  0.00  0.00    +0.228 C 
ATOM     21  H   UNL     1       9.384   6.700  22.831  0.00  0.00    +0.145 HD
ATOM     22  H   UNL     1       9.095   8.065  21.813  0.00  0.00    +0.145 HD
ENDBRANCH  19  20
ENDBRANCH   6  19
TORSDOF 3
ENDMDL
MODEL 5
REMARK VINA RESULT:      -5.9     14.374     17.892
REMARK  Name = 56775375
REMARK  3 active torsions:
REMARK  status: ('A' for Active; 'I' for Inactive)
REMARK    1  A    between atoms: N_5  and  C_12
REMARK    2  A    between atoms: N_6  and  C_19
REMARK    3  A    between atoms: C_19  and  C_20
REMARK                            x       y       z     vdW  Elec       q    Type
REMARK                         _______ _______ _______ _____ _____    ______ ____
ROOT
ATOM      1  O   UNL     1      13.416   6.824   5.879  0.00  0.00    -0.364 OA
ATOM      3  O   UNL     1      11.184   5.801   8.407  0.00  0.00    -0.273 OA
ATOM      5  N   UNL     1      12.189   6.405   2.850  0.00  0.00    -0.295 NA
ATOM      6  N   UNL     1      10.721   6.348   6.193  0.00  0.00    -0.284 N 
ATOM      8  C   UNL     1      11.211   6.824   4.901  0.00  0.00    +0.121 C 
ATOM      9  C   UNL     1      12.582   7.492   4.937  0.00  0.00    +0.154 C 
ATOM     10  C   UNL     1      11.426   5.707   3.883  0.00  0.00    +0.110 C 
ATOM     11  C   UNL     1      13.168   7.256   3.542  0.00  0.00    +0.118 C 
ATOM     15  C   UNL     1      11.528   6.278   7.325  0.00  0.00    +0.242 C 
ATOM     16  C   UNL     1      12.890   6.924   7.181  0.00  0.00    +0.256 C 
ENDROOT
BRANCH   5  12
ATOM      2  O   UNL     1      14.451   3.182   1.390  0.00  0.00    -0.380 OA
ATOM     12  C   UNL     1      12.807   5.493   1.890  0.00  0.00    +0.061 C 
ATOM     13  C   UNL     1      12.293   4.063   2.078  0.00  0.00    +0.047 C 
ATOM     14  C   UNL     1      14.331   5.524   2.032  0.00  0.00    +0.047 C 
ATOM     17  C   UNL     1      13.044   3.104   1.161  0.00  0.00    +0.161 C 
ATOM     18  C   UNL     1      14.970   4.485   1.117  0.00  0.00    +0.161 C 
ENDBRANCH   5  12
BRANCH   6  19
ATOM     19  C   UNL     1       9.355   5.845   6.238  0.00  0.00    +0.203 C 
BRANCH  19  20
ATOM      4  O   UNL     1       8.183   7.619   7.397  0.00  0.00    -0.274 OA
ATOM      7  N   UNL     1       7.728   7.254   5.173  0.00  0.00    -0.328 N 
ATOM     20  C   UNL     1       8.390   7.002   6.356  0.00  0.00    +0.228 C 
ATOM     21  H   UNL     1       7.037   7.995   5.109  0.00  0.00    +0.145 HD
ATOM     22  H   UNL     1       7.904   6.721   4.328  0.00  0.00    +0.145 HD
ENDBRANCH  19  20
ENDBRANCH   6  19
TORSDOF 3
ENDMDL
MODEL 6
REMARK VINA RESULT:      -5.7      2.158      3.588
REMARK  Name = 56775375
REMARK  3 active torsions:
REMARK  status: ('A' for Active; 'I' for Inactive)
REMARK    1  A    between atoms: N_5  and  C_12
REMARK    2  A    between atoms: N_6  and  C_19
REMARK    3  A    between atoms: C_19  and  C_20
REMARK                            x       y       z     vdW  Elec       q    Type
REMARK                         _______ _______ _______ _____ _____    ______ ____
ROOT
ATOM      1  O   UNL     1      13.071  10.642  18.931  0.00  0.00    -0.364 OA
ATOM      3  O   UNL     1      12.628   7.278  17.980  0.00  0.00    -0.273 OA
ATOM      5  N   UNL     1      13.867  10.973  22.111  0.00  0.00    -0.295 NA
ATOM      6  N   UNL     1      13.767   8.130  19.822  0.00  0.00    -0.284 N 
ATOM      8  C   UNL     1      14.237   9.300  20.562  0.00  0.00    +0.121 C 
ATOM      9  C   UNL     1      14.215  10.609  19.779  0.00  0.00    +0.154 C 
ATOM     10  C   UNL     1      13.375   9.638  21.776  0.00  0.00    +0.110 C 
ATOM     11  C   UNL     1      14.041  11.696  20.844  0.00  0.00    +0.118 C 
ATOM     15  C   UNL     1      13.119   8.227  18.594  0.00  0.00    +0.242 C 
ATOM     16  C   UNL     1      13.120   9.608  17.976  0.00  0.00    +0.256 C 
ENDROOT
BRANCH   5  12
ATOM      2  O   UNL     1      11.463  11.642  25.489  0.00  0.00    -0.380 OA
ATOM     12  C   UNL     1      12.997  11.676  23.052  0.00  0.00    +0.061 C 
ATOM     13  C   UNL     1      13.649  11.778  24.434  0.00  0.00    +0.047 C 
ATOM     14  C   UNL     1      11.646  10.964  23.162  0.00  0.00    +0.047 C 
ATOM     17  C   UNL     1      12.676  12.393  25.435  0.00  0.00    +0.161 C 
ATOM     18  C   UNL     1      10.784  11.624  24.232  0.00  0.00    +0.161 C 
ENDBRANCH   5  12
BRANCH   6  19
ATOM     19  C   UNL     1      13.914   6.834  20.470  0.00  0.00    +0.203 C 
BRANCH  19  20
ATOM      4  O   UNL     1      16.068   6.219  19.549  0.00  0.00    -0.274 OA
ATOM      7  N   UNL     1      15.838   6.370  21.831  0.00  0.00    -0.328 N 
ATOM     20  C   UNL     1      15.377   6.461  20.535  0.00  0.00    +0.228 C 
ATOM     21  H   UNL     1      16.799   6.113  22.027  0.00  0.00    +0.145 HD
ATOM     22  H   UNL     1      15.245   6.560  22.633  0.00  0.00    +0.145 HD
ENDBRANCH  19  20
ENDBRANCH   6  19
TORSDOF 3
ENDMDL
MODEL 7
REMARK VINA RESULT:      -5.7      2.314      6.833
REMARK  Name = 56775375
REMARK  3 active torsions:
REMARK  status: ('A' for Active; 'I' for Inactive)
REMARK    1  A    between atoms: N_5  and  C_12
REMARK    2  A    between atoms: N_6  and  C_19
REMARK    3  A    between atoms: C_19  and  C_20
REMARK                            x       y       z     vdW  Elec       q    Type
REMARK                         _______ _______ _______ _____ _____    ______ ____
ROOT
ATOM      1  O   UNL     1      13.786  12.708  21.718  0.00  0.00    -0.364 OA
ATOM      3  O   UNL     1      12.815  14.589  24.535  0.00  0.00    -0.273 OA
ATOM      5  N   UNL     1      11.639  10.321  20.977  0.00  0.00    -0.295 NA
ATOM      6  N   UNL     1      11.503  13.243  23.163  0.00  0.00    -0.284 N 
ATOM      8  C   UNL     1      11.409  12.390  21.980  0.00  0.00    +0.121 C 
ATOM      9  C   UNL     1      12.571  12.517  21.000  0.00  0.00    +0.154 C 
ATOM     10  C   UNL     1      11.425  10.898  22.304  0.00  0.00    +0.110 C 
ATOM     11  C   UNL     1      12.646  11.154  20.305  0.00  0.00    +0.118 C 
ATOM     15  C   UNL     1      12.663  13.933  23.504  0.00  0.00    +0.242 C 
ATOM     16  C   UNL     1      13.754  13.907  22.456  0.00  0.00    +0.256 C 
ENDROOT
BRANCH   5  12
ATOM      2  O   UNL     1      11.555   6.206  20.149  0.00  0.00    -0.380 OA
ATOM     12  C   UNL     1      12.011   8.909  21.029  0.00  0.00    +0.061 C 
ATOM     13  C   UNL     1      12.459   8.406  19.653  0.00  0.00    +0.047 C 
ATOM     14  C   UNL     1      10.838   8.067  21.537  0.00  0.00    +0.047 C 
ATOM     17  C   UNL     1      12.714   6.904  19.695  0.00  0.00    +0.161 C 
ATOM     18  C   UNL     1      11.183   6.584  21.475  0.00  0.00    +0.161 C 
ENDBRANCH   5  12
BRANCH   6  19
ATOM     19  C   UNL     1      10.348  13.275  24.049  0.00  0.00    +0.203 C 
BRANCH  19  20
ATOM      4  O   UNL     1      11.045  11.506  25.549  0.00  0.00    -0.274 OA
ATOM      7  N   UNL     1      10.591  13.585  26.419  0.00  0.00    -0.328 N 
ATOM     20  C   UNL     1      10.716  12.678  25.388  0.00  0.00    +0.228 C 
ATOM     21  H   UNL     1      10.791  13.318  27.377  0.00  0.00    +0.145 HD
ATOM     22  H   UNL     1      10.302  14.545  26.264  0.00  0.00    +0.145 HD
ENDBRANCH  19  20
ENDBRANCH   6  19
TORSDOF 3
ENDMDL
MODEL 8
REMARK VINA RESULT:      -5.6     13.683     17.475
REMARK  Name = 56775375
REMARK  3 active torsions:
REMARK  status: ('A' for Active; 'I' for Inactive)
REMARK    1  A    between atoms: N_5  and  C_12
REMARK    2  A    between atoms: N_6  and  C_19
REMARK    3  A    between atoms: C_19  and  C_20
REMARK                            x       y       z     vdW  Elec       q    Type
REMARK                         _______ _______ _______ _____ _____    ______ ____
ROOT
ATOM      1  O   UNL     1       9.578   8.433   4.740  0.00  0.00    -0.364 OA
ATOM      3  O   UNL     1      10.585   8.975   8.074  0.00  0.00    -0.273 OA
ATOM      5  N   UNL     1      10.381   5.434   3.638  0.00  0.00    -0.295 NA
ATOM      6  N   UNL     1      10.284   6.956   6.955  0.00  0.00    -0.284 N 
ATOM      8  C   UNL     1       9.879   6.257   5.738  0.00  0.00    +0.121 C 
ATOM      9  C   UNL     1       9.081   7.098   4.747  0.00  0.00    +0.154 C 
ATOM     10  C   UNL     1      11.056   5.790   4.885  0.00  0.00    +0.110 C 
ATOM     11  C   UNL     1       9.381   6.479   3.379  0.00  0.00    +0.118 C 
ATOM     15  C   UNL     1      10.174   8.335   7.104  0.00  0.00    +0.242 C 
ATOM     16  C   UNL     1       9.414   9.039   6.001  0.00  0.00    +0.256 C 
ENDROOT
BRANCH   5  12
ATOM      2  O   UNL     1      13.904   4.415   1.593  0.00  0.00    -0.380 OA
ATOM     12  C   UNL     1      11.310   5.247   2.525  0.00  0.00    +0.061 C 
ATOM     13  C   UNL     1      11.692   3.772   2.368  0.00  0.00    +0.047 C 
ATOM     14  C   UNL     1      12.568   6.094   2.735  0.00  0.00    +0.047 C 
ATOM     17  C   UNL     1      12.761   3.614   1.292  0.00  0.00    +0.161 C 
ATOM     18  C   UNL     1      13.589   5.807   1.640  0.00  0.00    +0.161 C 
ENDBRANCH   5  12
BRANCH   6  19
ATOM     19  C   UNL     1      10.911   6.157   7.999  0.00  0.00    +0.203 C 
BRANCH  19  20
ATOM      4  O   UNL     1       8.916   5.562   9.236  0.00  0.00    -0.274 OA
ATOM      7  N   UNL     1      10.227   3.885   8.368  0.00  0.00    -0.328 N 
ATOM     20  C   UNL     1       9.897   5.205   8.591  0.00  0.00    +0.228 C 
ATOM     21  H   UNL     1       9.643   3.134   8.722  0.00  0.00    +0.145 HD
ATOM     22  H   UNL     1      11.052   3.612   7.844  0.00  0.00    +0.145 HD
ENDBRANCH  19  20
ENDBRANCH   6  19
TORSDOF 3
ENDMDL
MODEL 9
REMARK VINA RESULT:      -5.5     26.116     28.001
REMARK  Name = 56775375
REMARK  3 active torsions:
REMARK  status: ('A' for Active; 'I' for Inactive)
REMARK    1  A    between atoms: N_5  and  C_12
REMARK    2  A    between atoms: N_6  and  C_19
REMARK    3  A    between atoms: C_19  and  C_20
REMARK                            x       y       z     vdW  Elec       q    Type
REMARK                         _______ _______ _______ _____ _____    ______ ____
ROOT
ATOM      1  O   UNL     1      -7.118 -10.431  14.666  0.00  0.00    -0.364 OA
ATOM      3  O   UNL     1      -8.779  -8.628  17.199  0.00  0.00    -0.273 OA
ATOM      5  N   UNL     1      -4.397 -11.938  15.751  0.00  0.00    -0.295 NA
ATOM      6  N   UNL     1      -7.234 -10.354  17.418  0.00  0.00    -0.284 N 
ATOM      8  C   UNL     1      -6.386 -11.354  16.772  0.00  0.00    +0.121 C 
ATOM      9  C   UNL     1      -6.722 -11.638  15.311  0.00  0.00    +0.154 C 
ATOM     10  C   UNL     1      -4.918 -10.944  16.689  0.00  0.00    +0.110 C 
ATOM     11  C   UNL     1      -5.399 -12.090  14.687  0.00  0.00    +0.118 C 
ATOM     15  C   UNL     1      -8.114  -9.542  16.709  0.00  0.00    +0.242 C 
ATOM     16  C   UNL     1      -8.288  -9.906  15.250  0.00  0.00    +0.256 C 
ENDROOT
BRANCH   5  12
ATOM      2  O   UNL     1      -1.169  -9.568  14.490  0.00  0.00    -0.380 OA
ATOM     12  C   UNL     1      -3.072 -11.594  15.240  0.00  0.00    +0.061 C 
ATOM     13  C   UNL     1      -2.274 -10.794  16.274  0.00  0.00    +0.047 C 
ATOM     14  C   UNL     1      -3.194 -10.795  13.940  0.00  0.00    +0.047 C 
ATOM     17  C   UNL     1      -0.950 -10.329  15.677  0.00  0.00    +0.161 C 
ATOM     18  C   UNL     1      -1.820 -10.330  13.472  0.00  0.00    +0.161 C 
ENDBRANCH   5  12
BRANCH   6  19
ATOM     19  C   UNL     1      -7.056 -10.162  18.850  0.00  0.00    +0.203 C 
BRANCH  19  20
ATOM      4  O   UNL     1      -7.622 -12.182  20.060  0.00  0.00    -0.274 OA
ATOM      7  N   UNL     1      -9.261 -10.613  19.688  0.00  0.00    -0.328 N 
ATOM     20  C   UNL     1      -7.971 -11.095  19.608  0.00  0.00    +0.228 C 
ATOM     21  H   UNL     1      -9.988 -11.144  20.156  0.00  0.00    +0.145 HD
ATOM     22  H   UNL     1      -9.531  -9.718  19.294  0.00  0.00    +0.145 HD
ENDBRANCH  19  20
ENDBRANCH   6  19
TORSDOF 3
ENDMDL
MODEL 10
REMARK VINA RESULT:      -5.4     26.616     28.376
REMARK  Name = 56775375
REMARK  3 active torsions:
REMARK  status: ('A' for Active; 'I' for Inactive)
REMARK    1  A    between atoms: N_5  and  C_12
REMARK    2  A    between atoms: N_6  and  C_19
REMARK    3  A    between atoms: C_19  and  C_20
REMARK                            x       y       z     vdW  Elec       q    Type
REMARK                         _______ _______ _______ _____ _____    ______ ____
ROOT
ATOM      1  O   UNL     1      -6.457 -12.406  19.061  0.00  0.00    -0.364 OA
ATOM      3  O   UNL     1      -9.951 -12.422  18.602  0.00  0.00    -0.273 OA
ATOM      5  N   UNL     1      -4.897 -10.475  16.894  0.00  0.00    -0.295 NA
ATOM      6  N   UNL     1      -8.396 -10.855  17.866  0.00  0.00    -0.284 N 
ATOM      8  C   UNL     1      -7.007 -10.403  17.833  0.00  0.00    +0.121 C 
ATOM      9  C   UNL     1      -6.096 -11.040  18.877  0.00  0.00    +0.154 C 
ATOM     10  C   UNL     1      -6.287 -10.743  16.530  0.00  0.00    +0.110 C 
ATOM     11  C   UNL     1      -4.699 -11.004  18.250  0.00  0.00    +0.118 C 
ATOM     15  C   UNL     1      -8.812 -11.952  18.615  0.00  0.00    +0.242 C 
ATOM     16  C   UNL     1      -7.771 -12.519  19.555  0.00  0.00    +0.256 C 
ENDROOT
BRANCH   5  12
ATOM      2  O   UNL     1      -1.961 -10.552  13.893  0.00  0.00    -0.380 OA
ATOM     12  C   UNL     1      -3.945 -11.018  15.927  0.00  0.00    +0.061 C 
ATOM     13  C   UNL     1      -2.514 -10.584  16.260  0.00  0.00    +0.047 C 
ATOM     14  C   UNL     1      -4.311 -10.569  14.510  0.00  0.00    +0.047 C 
ATOM     17  C   UNL     1      -1.553 -11.046  15.169  0.00  0.00    +0.161 C 
ATOM     18  C   UNL     1      -3.252 -11.032  13.516  0.00  0.00    +0.161 C 
ENDBRANCH   5  12
BRANCH   6  19
ATOM     19  C   UNL     1      -9.338 -10.165  16.996  0.00  0.00    +0.203 C 
BRANCH  19  20
ATOM      4  O   UNL     1     -11.102  -9.259  18.385  0.00  0.00    -0.274 OA
ATOM      7  N   UNL     1      -9.419  -7.863  17.675  0.00  0.00    -0.328 N 
ATOM     20  C   UNL     1     -10.052  -9.084  17.773  0.00  0.00    +0.228 C 
ATOM     21  H   UNL     1      -9.796  -7.041  18.135  0.00  0.00    +0.145 HD
ATOM     22  H   UNL     1      -8.560  -7.738  17.150  0.00  0.00    +0.145 HD
ENDBRANCH  19  20
ENDBRANCH   6  19
TORSDOF 3
ENDMDL
