MODEL 1
REMARK VINA RESULT:      -6.0      0.000      0.000
REMARK  Name = 26763150
REMARK  15 active torsions:
REMARK  status: ('A' for Active; 'I' for Inactive)
REMARK    1  A    between atoms: O_4  and  C_30
REMARK    2  A    between atoms: O_4  and  C_33
REMARK    3  A    between atoms: N_7  and  C_10
REMARK    4  A    between atoms: N_8  and  C_14
REMARK    5  A    between atoms: N_9  and  C_25
REMARK    6  A    between atoms: C_11  and  C_15
REMARK    7  A    between atoms: C_16  and  C_19
REMARK    8  A    between atoms: C_19  and  C_20
REMARK    9  A    between atoms: C_20  and  C_26
REMARK   10  A    between atoms: C_20  and  C_27
REMARK   11  A    between atoms: C_20  and  C_28
REMARK   12  A    between atoms: C_25  and  C_29
REMARK   13  A    between atoms: C_25  and  C_30
REMARK   14  A    between atoms: C_29  and  C_31
REMARK   15  A    between atoms: C_29  and  C_32
REMARK                            x       y       z     vdW  Elec       q    Type
REMARK                         _______ _______ _______ _____ _____    ______ ____
ROOT
ATOM      2  O   UNL     1      13.051   3.334   1.998  0.00  0.00    -0.276 OA
ATOM      6  N   UNL     1      13.766   5.475   1.485  0.00  0.00    -0.288 N 
ATOM     10  C   UNL     1      14.486   7.313   2.797  0.00  0.00    +0.105 C 
ATOM     11  C   UNL     1      13.707   6.000   2.845  0.00  0.00    +0.182 C 
ATOM     12  C   UNL     1      14.324   7.771   1.345  0.00  0.00    +0.043 C 
ATOM     13  C   UNL     1      14.294   6.469   0.556  0.00  0.00    +0.110 C 
ATOM     16  C   UNL     1      13.498   4.147   1.188  0.00  0.00    +0.217 C 
ENDROOT
BRANCH  10   7
ATOM      3  O   UNL     1      16.540   9.320   2.949  0.00  0.00    -0.253 OA
ATOM      7  N   UNL     1      15.876   7.104   3.130  0.00  0.00    -0.294 N 
ATOM      8  N   UNL     1      18.069   7.671   3.524  0.00  0.00    -0.297 N 
ATOM     24  C   UNL     1      16.804   8.141   3.180  0.00  0.00    +0.300 C 
ATOM     34  H   UNL     1      16.178   6.174   3.401  0.00  0.00    +0.151 HD
ATOM     35  H   UNL     1      18.161   6.689   3.765  0.00  0.00    +0.151 HD
BRANCH   8  14
ATOM     14  C   UNL     1      19.225   8.529   3.651  0.00  0.00    +0.074 C 
ATOM     17  C   UNL     1      19.229   9.254   5.001  0.00  0.00    +0.022 C 
ATOM     18  C   UNL     1      20.522   7.741   3.440  0.00  0.00    +0.022 C 
ATOM     21  C   UNL     1      19.543   8.316   6.167  0.00  0.00    +0.002 C 
ATOM     22  C   UNL     1      20.834   6.806   4.609  0.00  0.00    +0.002 C 
ATOM     23  C   UNL     1      20.843   7.551   5.940  0.00  0.00    +0.000 C 
ENDBRANCH   8  14
ENDBRANCH  10   7
BRANCH  11  15
ATOM      1  O   UNL     1      11.419   6.350   2.261  0.00  0.00    -0.274 OA
ATOM      9  N   UNL     1      12.015   6.312   4.512  0.00  0.00    -0.301 N 
ATOM     15  C   UNL     1      12.258   6.231   3.152  0.00  0.00    +0.236 C 
ATOM     36  H   UNL     1      12.782   6.141   5.154  0.00  0.00    +0.150 HD
BRANCH   9  25
ATOM     25  C   UNL     1      10.703   6.553   5.068  0.00  0.00    +0.184 C 
BRANCH  25  29
ATOM     29  C   UNL     1      10.633   7.874   5.866  0.00  0.00    +0.014 C 
ATOM     31  C   UNL     1      11.998   8.566   5.914  0.00  0.00    +0.009 C 
ATOM     32  C   UNL     1       9.574   8.846   5.334  0.00  0.00    +0.009 C 
ENDBRANCH  25  29
BRANCH  25  30
ATOM      5  O   UNL     1       9.899   4.299   5.413  0.00  0.00    -0.249 OA
ATOM     30  C   UNL     1      10.223   5.375   5.906  0.00  0.00    +0.328 C 
BRANCH  30   4
ATOM      4  O   UNL     1      10.200   5.663   7.238  0.00  0.00    -0.467 OA
ATOM     33  C   UNL     1       9.867   4.574   8.106  0.00  0.00    +0.280 C 
ENDBRANCH  30   4
ENDBRANCH  25  30
ENDBRANCH   9  25
ENDBRANCH  11  15
BRANCH  16  19
ATOM     19  C   UNL     1      13.780   3.729  -0.234  0.00  0.00    +0.102 C 
BRANCH  19  20
ATOM     20  C   UNL     1      12.523   3.745  -1.122  0.00  0.00    -0.029 C 
ATOM     26  C   UNL     1      11.271   4.109  -0.307  0.00  0.00    +0.011 C 
ATOM     27  C   UNL     1      12.310   2.384  -1.805  0.00  0.00    +0.011 C 
ATOM     28  C   UNL     1      12.728   4.815  -2.210  0.00  0.00    +0.011 C 
ENDBRANCH  19  20
ENDBRANCH  16  19
TORSDOF 9
ENDMDL
MODEL 2
REMARK VINA RESULT:      -5.9     42.857     45.885
REMARK  Name = 26763150
REMARK  15 active torsions:
REMARK  status: ('A' for Active; 'I' for Inactive)
REMARK    1  A    between atoms: O_4  and  C_30
REMARK    2  A    between atoms: O_4  and  C_33
REMARK    3  A    between atoms: N_7  and  C_10
REMARK    4  A    between atoms: N_8  and  C_14
REMARK    5  A    between atoms: N_9  and  C_25
REMARK    6  A    between atoms: C_11  and  C_15
REMARK    7  A    between atoms: C_16  and  C_19
REMARK    8  A    between atoms: C_19  and  C_20
REMARK    9  A    between atoms: C_20  and  C_26
REMARK   10  A    between atoms: C_20  and  C_27
REMARK   11  A    between atoms: C_20  and  C_28
REMARK   12  A    between atoms: C_25  and  C_29
REMARK   13  A    between atoms: C_25  and  C_30
REMARK   14  A    between atoms: C_29  and  C_31
REMARK   15  A    between atoms: C_29  and  C_32
REMARK                            x       y       z     vdW  Elec       q    Type
REMARK                         _______ _______ _______ _____ _____    ______ ____
ROOT
ATOM      2  O   UNL     1      -6.374  -5.819  38.725  0.00  0.00    -0.276 OA
ATOM      6  N   UNL     1      -7.489  -7.348  40.058  0.00  0.00    -0.288 N 
ATOM     10  C   UNL     1      -9.765  -7.982  40.262  0.00  0.00    +0.105 C 
ATOM     11  C   UNL     1      -8.837  -6.876  39.760  0.00  0.00    +0.182 C 
ATOM     12  C   UNL     1      -8.962  -8.634  41.392  0.00  0.00    +0.043 C 
ATOM     13  C   UNL     1      -7.519  -8.526  40.921  0.00  0.00    +0.110 C 
ATOM     16  C   UNL     1      -6.363  -6.816  39.448  0.00  0.00    +0.217 C 
ENDROOT
BRANCH  10   7
ATOM      3  O   UNL     1     -11.827  -9.985  40.280  0.00  0.00    -0.253 OA
ATOM      7  N   UNL     1     -10.058  -8.929  39.212  0.00  0.00    -0.294 N 
ATOM      8  N   UNL     1     -11.152 -10.656  38.162  0.00  0.00    -0.297 N 
ATOM     24  C   UNL     1     -11.082  -9.868  39.307  0.00  0.00    +0.300 C 
ATOM     34  H   UNL     1      -9.540  -8.868  38.342  0.00  0.00    +0.151 HD
ATOM     35  H   UNL     1     -10.536 -10.426  37.389  0.00  0.00    +0.151 HD
BRANCH   8  14
ATOM     14  C   UNL     1     -12.124 -11.713  37.987  0.00  0.00    +0.074 C 
ATOM     17  C   UNL     1     -13.333 -11.223  37.183  0.00  0.00    +0.022 C 
ATOM     18  C   UNL     1     -11.486 -12.944  37.335  0.00  0.00    +0.022 C 
ATOM     21  C   UNL     1     -13.003 -11.002  35.707  0.00  0.00    +0.002 C 
ATOM     22  C   UNL     1     -11.160 -12.721  35.857  0.00  0.00    +0.002 C 
ATOM     23  C   UNL     1     -12.381 -12.244  35.077  0.00  0.00    +0.000 C 
ENDBRANCH   8  14
ENDBRANCH  10   7
BRANCH  11  15
ATOM      1  O   UNL     1      -8.292  -5.305  41.474  0.00  0.00    -0.274 OA
ATOM      9  N   UNL     1     -10.107  -4.869  40.081  0.00  0.00    -0.301 N 
ATOM     15  C   UNL     1      -9.026  -5.606  40.536  0.00  0.00    +0.236 C 
ATOM     36  H   UNL     1     -10.605  -5.194  39.259  0.00  0.00    +0.150 HD
BRANCH   9  25
ATOM     25  C   UNL     1     -10.515  -3.617  40.674  0.00  0.00    +0.184 C 
BRANCH  25  29
ATOM     29  C   UNL     1     -12.037  -3.381  40.569  0.00  0.00    +0.014 C 
ATOM     31  C   UNL     1     -12.817  -4.677  40.810  0.00  0.00    +0.009 C 
ATOM     32  C   UNL     1     -12.546  -2.284  41.510  0.00  0.00    +0.009 C 
ENDBRANCH  25  29
BRANCH  25  30
ATOM      5  O   UNL     1      -8.874  -1.841  40.740  0.00  0.00    -0.249 OA
ATOM     30  C   UNL     1      -9.732  -2.442  40.100  0.00  0.00    +0.328 C 
BRANCH  30   4
ATOM      4  O   UNL     1     -10.099  -2.153  38.820  0.00  0.00    -0.467 OA
ATOM     33  C   UNL     1      -9.716  -0.860  38.339  0.00  0.00    +0.280 C 
ENDBRANCH  30   4
ENDBRANCH  25  30
ENDBRANCH   9  25
ENDBRANCH  11  15
BRANCH  16  19
ATOM     19  C   UNL     1      -5.069  -7.538  39.731  0.00  0.00    +0.102 C 
BRANCH  19  20
ATOM     20  C   UNL     1      -4.103  -6.714  40.601  0.00  0.00    -0.029 C 
ATOM     26  C   UNL     1      -4.871  -5.830  41.599  0.00  0.00    +0.011 C 
ATOM     27  C   UNL     1      -3.190  -5.832  39.735  0.00  0.00    +0.011 C 
ATOM     28  C   UNL     1      -3.226  -7.700  41.395  0.00  0.00    +0.011 C 
ENDBRANCH  19  20
ENDBRANCH  16  19
TORSDOF 9
ENDMDL
MODEL 3
REMARK VINA RESULT:      -5.9      2.084      2.919
REMARK  Name = 26763150
REMARK  15 active torsions:
REMARK  status: ('A' for Active; 'I' for Inactive)
REMARK    1  A    between atoms: O_4  and  C_30
REMARK    2  A    between atoms: O_4  and  C_33
REMARK    3  A    between atoms: N_7  and  C_10
REMARK    4  A    between atoms: N_8  and  C_14
REMARK    5  A    between atoms: N_9  and  C_25
REMARK    6  A    between atoms: C_11  and  C_15
REMARK    7  A    between atoms: C_16  and  C_19
REMARK    8  A    between atoms: C_19  and  C_20
REMARK    9  A    between atoms: C_20  and  C_26
REMARK   10  A    between atoms: C_20  and  C_27
REMARK   11  A    between atoms: C_20  and  C_28
REMARK   12  A    between atoms: C_25  and  C_29
REMARK   13  A    between atoms: C_25  and  C_30
REMARK   14  A    between atoms: C_29  and  C_31
REMARK   15  A    between atoms: C_29  and  C_32
REMARK                            x       y       z     vdW  Elec       q    Type
REMARK                         _______ _______ _______ _____ _____    ______ ____
ROOT
ATOM      2  O   UNL     1      11.642   3.387   2.621  0.00  0.00    -0.276 OA
ATOM      6  N   UNL     1      11.385   5.683   2.482  0.00  0.00    -0.288 N 
ATOM     10  C   UNL     1      11.981   7.481   3.909  0.00  0.00    +0.105 C 
ATOM     11  C   UNL     1      11.736   5.973   3.869  0.00  0.00    +0.182 C 
ATOM     12  C   UNL     1      11.100   8.015   2.775  0.00  0.00    +0.043 C 
ATOM     13  C   UNL     1      11.148   6.911   1.728  0.00  0.00    +0.110 C 
ATOM     16  C   UNL     1      11.440   4.403   1.954  0.00  0.00    +0.217 C 
ENDROOT
BRANCH  10   7
ATOM      3  O   UNL     1      14.041   7.708   5.901  0.00  0.00    -0.253 OA
ATOM      7  N   UNL     1      13.373   7.787   3.680  0.00  0.00    -0.294 N 
ATOM      8  N   UNL     1      15.572   8.180   4.222  0.00  0.00    -0.297 N 
ATOM     24  C   UNL     1      14.305   7.876   4.712  0.00  0.00    +0.300 C 
ATOM     34  H   UNL     1      13.703   7.877   2.725  0.00  0.00    +0.151 HD
ATOM     35  H   UNL     1      15.694   8.226   3.215  0.00  0.00    +0.151 HD
BRANCH   8  14
ATOM     14  C   UNL     1      16.733   8.333   5.071  0.00  0.00    +0.074 C 
ATOM     17  C   UNL     1      18.027   8.109   4.281  0.00  0.00    +0.022 C 
ATOM     18  C   UNL     1      16.734   9.702   5.760  0.00  0.00    +0.022 C 
ATOM     21  C   UNL     1      18.329   9.254   3.315  0.00  0.00    +0.002 C 
ATOM     22  C   UNL     1      17.039  10.845   4.792  0.00  0.00    +0.002 C 
ATOM     23  C   UNL     1      18.336  10.603   4.026  0.00  0.00    +0.000 C 
ENDBRANCH   8  14
ENDBRANCH  10   7
BRANCH  11  15
ATOM      1  O   UNL     1       9.725   4.763   4.309  0.00  0.00    -0.274 OA
ATOM      9  N   UNL     1      10.503   6.274   5.901  0.00  0.00    -0.301 N 
ATOM     15  C   UNL     1      10.549   5.587   4.700  0.00  0.00    +0.236 C 
ATOM     36  H   UNL     1      11.274   6.889   6.138  0.00  0.00    +0.150 HD
BRANCH   9  25
ATOM     25  C   UNL     1       9.447   6.100   6.872  0.00  0.00    +0.184 C 
BRANCH  25  29
ATOM     29  C   UNL     1       8.609   7.381   7.070  0.00  0.00    +0.014 C 
ATOM     31  C   UNL     1       9.387   8.435   7.863  0.00  0.00    +0.009 C 
ATOM     32  C   UNL     1       8.107   7.985   5.753  0.00  0.00    +0.009 C 
ENDBRANCH  25  29
BRANCH  25  30
ATOM      5  O   UNL     1      11.184   5.532   8.457  0.00  0.00    -0.249 OA
ATOM     30  C   UNL     1       9.985   5.579   8.199  0.00  0.00    +0.328 C 
BRANCH  30   4
ATOM      4  O   UNL     1       8.988   5.183   9.041  0.00  0.00    -0.467 OA
ATOM     33  C   UNL     1       9.412   4.578  10.267  0.00  0.00    +0.280 C 
ENDBRANCH  30   4
ENDBRANCH  25  30
ENDBRANCH   9  25
ENDBRANCH  11  15
BRANCH  16  19
ATOM     19  C   UNL     1      11.222   4.305   0.464  0.00  0.00    +0.102 C 
BRANCH  19  20
ATOM     20  C   UNL     1      12.529   4.088  -0.318  0.00  0.00    -0.029 C 
ATOM     26  C   UNL     1      12.381   2.948  -1.341  0.00  0.00    +0.011 C 
ATOM     27  C   UNL     1      13.698   3.774   0.629  0.00  0.00    +0.011 C 
ATOM     28  C   UNL     1      12.847   5.389  -1.078  0.00  0.00    +0.011 C 
ENDBRANCH  19  20
ENDBRANCH  16  19
TORSDOF 9
ENDMDL
MODEL 4
REMARK VINA RESULT:      -5.8      1.013      1.670
REMARK  Name = 26763150
REMARK  15 active torsions:
REMARK  status: ('A' for Active; 'I' for Inactive)
REMARK    1  A    between atoms: O_4  and  C_30
REMARK    2  A    between atoms: O_4  and  C_33
REMARK    3  A    between atoms: N_7  and  C_10
REMARK    4  A    between atoms: N_8  and  C_14
REMARK    5  A    between atoms: N_9  and  C_25
REMARK    6  A    between atoms: C_11  and  C_15
REMARK    7  A    between atoms: C_16  and  C_19
REMARK    8  A    between atoms: C_19  and  C_20
REMARK    9  A    between atoms: C_20  and  C_26
REMARK   10  A    between atoms: C_20  and  C_27
REMARK   11  A    between atoms: C_20  and  C_28
REMARK   12  A    between atoms: C_25  and  C_29
REMARK   13  A    between atoms: C_25  and  C_30
REMARK   14  A    between atoms: C_29  and  C_31
REMARK   15  A    between atoms: C_29  and  C_32
REMARK                            x       y       z     vdW  Elec       q    Type
REMARK                         _______ _______ _______ _____ _____    ______ ____
ROOT
ATOM      2  O   UNL     1      13.085   2.924   1.117  0.00  0.00    -0.276 OA
ATOM      6  N   UNL     1      13.476   5.191   0.860  0.00  0.00    -0.288 N 
ATOM     10  C   UNL     1      14.010   6.937   2.373  0.00  0.00    +0.105 C 
ATOM     11  C   UNL     1      13.419   5.531   2.278  0.00  0.00    +0.182 C 
ATOM     12  C   UNL     1      13.710   7.543   0.999  0.00  0.00    +0.043 C 
ATOM     13  C   UNL     1      13.815   6.357   0.049  0.00  0.00    +0.110 C 
ATOM     16  C   UNL     1      13.374   3.886   0.404  0.00  0.00    +0.217 C 
ENDROOT
BRANCH  10   7
ATOM      3  O   UNL     1      15.707   9.140   3.102  0.00  0.00    -0.253 OA
ATOM      7  N   UNL     1      15.431   6.886   2.626  0.00  0.00    -0.294 N 
ATOM      8  N   UNL     1      17.517   7.687   3.163  0.00  0.00    -0.297 N 
ATOM     24  C   UNL     1      16.176   8.009   2.976  0.00  0.00    +0.300 C 
ATOM     34  H   UNL     1      15.897   5.985   2.611  0.00  0.00    +0.151 HD
ATOM     35  H   UNL     1      17.784   6.710   3.105  0.00  0.00    +0.151 HD
BRANCH   8  14
ATOM     14  C   UNL     1      18.521   8.661   3.534  0.00  0.00    +0.074 C 
ATOM     17  C   UNL     1      19.300   8.206   4.772  0.00  0.00    +0.022 C 
ATOM     18  C   UNL     1      19.463   8.952   2.362  0.00  0.00    +0.022 C 
ATOM     21  C   UNL     1      20.245   7.042   4.474  0.00  0.00    +0.002 C 
ATOM     22  C   UNL     1      20.409   7.787   2.068  0.00  0.00    +0.002 C 
ATOM     23  C   UNL     1      21.180   7.360   3.313  0.00  0.00    +0.000 C 
ENDBRANCH   8  14
ENDBRANCH  10   7
BRANCH  11  15
ATOM      1  O   UNL     1      11.083   5.310   1.839  0.00  0.00    -0.274 OA
ATOM      9  N   UNL     1      11.782   5.780   4.010  0.00  0.00    -0.301 N 
ATOM     15  C   UNL     1      11.970   5.517   2.664  0.00  0.00    +0.236 C 
ATOM     36  H   UNL     1      12.599   5.879   4.604  0.00  0.00    +0.150 HD
BRANCH   9  25
ATOM     25  C   UNL     1      10.478   5.846   4.628  0.00  0.00    +0.184 C 
BRANCH  25  29
ATOM     29  C   UNL     1       9.682   7.097   4.197  0.00  0.00    +0.014 C 
ATOM     31  C   UNL     1       8.351   7.194   4.948  0.00  0.00    +0.009 C 
ATOM     32  C   UNL     1      10.470   8.401   4.361  0.00  0.00    +0.009 C 
ENDBRANCH  25  29
BRANCH  25  30
ATOM      5  O   UNL     1      11.221   6.532   6.825  0.00  0.00    -0.249 OA
ATOM     30  C   UNL     1      10.570   5.744   6.146  0.00  0.00    +0.328 C 
BRANCH  30   4
ATOM      4  O   UNL     1       9.854   4.694   6.638  0.00  0.00    -0.467 OA
ATOM     33  C   UNL     1       9.822   4.575   8.063  0.00  0.00    +0.280 C 
ENDBRANCH  30   4
ENDBRANCH  25  30
ENDBRANCH   9  25
ENDBRANCH  11  15
BRANCH  16  19
ATOM     19  C   UNL     1      13.634   3.691  -1.069  0.00  0.00    +0.102 C 
BRANCH  19  20
ATOM     20  C   UNL     1      12.341   3.531  -1.889  0.00  0.00    -0.029 C 
ATOM     26  C   UNL     1      12.436   4.281  -3.229  0.00  0.00    +0.011 C 
ATOM     27  C   UNL     1      11.120   4.040  -1.105  0.00  0.00    +0.011 C 
ATOM     28  C   UNL     1      12.148   2.031  -2.179  0.00  0.00    +0.011 C 
ENDBRANCH  19  20
ENDBRANCH  16  19
TORSDOF 9
ENDMDL
MODEL 5
REMARK VINA RESULT:      -5.8     25.629     28.774
REMARK  Name = 26763150
REMARK  15 active torsions:
REMARK  status: ('A' for Active; 'I' for Inactive)
REMARK    1  A    between atoms: O_4  and  C_30
REMARK    2  A    between atoms: O_4  and  C_33
REMARK    3  A    between atoms: N_7  and  C_10
REMARK    4  A    between atoms: N_8  and  C_14
REMARK    5  A    between atoms: N_9  and  C_25
REMARK    6  A    between atoms: C_11  and  C_15
REMARK    7  A    between atoms: C_16  and  C_19
REMARK    8  A    between atoms: C_19  and  C_20
REMARK    9  A    between atoms: C_20  and  C_26
REMARK   10  A    between atoms: C_20  and  C_27
REMARK   11  A    between atoms: C_20  and  C_28
REMARK   12  A    between atoms: C_25  and  C_29
REMARK   13  A    between atoms: C_25  and  C_30
REMARK   14  A    between atoms: C_29  and  C_31
REMARK   15  A    between atoms: C_29  and  C_32
REMARK                            x       y       z     vdW  Elec       q    Type
REMARK                         _______ _______ _______ _____ _____    ______ ____
ROOT
ATOM      2  O   UNL     1      -3.571 -14.086  11.628  0.00  0.00    -0.276 OA
ATOM      6  N   UNL     1      -2.509 -12.671  13.120  0.00  0.00    -0.288 N 
ATOM     10  C   UNL     1      -3.177 -10.703  14.262  0.00  0.00    +0.105 C 
ATOM     11  C   UNL     1      -3.500 -11.601  13.068  0.00  0.00    +0.182 C 
ATOM     12  C   UNL     1      -1.675 -10.915  14.471  0.00  0.00    +0.043 C 
ATOM     13  C   UNL     1      -1.457 -12.373  14.088  0.00  0.00    +0.110 C 
ATOM     16  C   UNL     1      -2.671 -13.868  12.440  0.00  0.00    +0.217 C 
ENDROOT
BRANCH  10   7
ATOM      3  O   UNL     1      -5.638  -9.547  15.195  0.00  0.00    -0.253 OA
ATOM      7  N   UNL     1      -3.931 -11.101  15.428  0.00  0.00    -0.294 N 
ATOM      8  N   UNL     1      -5.643 -11.054  16.961  0.00  0.00    -0.297 N 
ATOM     24  C   UNL     1      -5.120 -10.481  15.805  0.00  0.00    +0.300 C 
ATOM     34  H   UNL     1      -3.618 -11.906  15.960  0.00  0.00    +0.151 HD
ATOM     35  H   UNL     1      -5.171 -11.868  17.343  0.00  0.00    +0.151 HD
BRANCH   8  14
ATOM     14  C   UNL     1      -6.872 -10.608  17.579  0.00  0.00    +0.074 C 
ATOM     17  C   UNL     1      -7.989 -11.640  17.392  0.00  0.00    +0.022 C 
ATOM     18  C   UNL     1      -6.657 -10.285  19.061  0.00  0.00    +0.022 C 
ATOM     21  C   UNL     1      -7.776 -12.892  18.242  0.00  0.00    +0.002 C 
ATOM     22  C   UNL     1      -6.447 -11.541  19.909  0.00  0.00    +0.002 C 
ATOM     23  C   UNL     1      -7.577 -12.547  19.714  0.00  0.00    +0.000 C 
ENDBRANCH   8  14
ENDBRANCH  10   7
BRANCH  11  15
ATOM      1  O   UNL     1      -2.286 -10.200  11.562  0.00  0.00    -0.274 OA
ATOM      9  N   UNL     1      -4.336 -11.074  10.885  0.00  0.00    -0.301 N 
ATOM     15  C   UNL     1      -3.286 -10.884  11.768  0.00  0.00    +0.236 C 
ATOM     36  H   UNL     1      -5.083 -11.708  11.148  0.00  0.00    +0.150 HD
BRANCH   9  25
ATOM     25  C   UNL     1      -4.384 -10.471   9.573  0.00  0.00    +0.184 C 
BRANCH  25  29
ATOM     29  C   UNL     1      -5.525  -9.440   9.437  0.00  0.00    +0.014 C 
ATOM     31  C   UNL     1      -6.833  -9.979  10.024  0.00  0.00    +0.009 C 
ATOM     32  C   UNL     1      -5.192  -8.083  10.067  0.00  0.00    +0.009 C 
ENDBRANCH  25  29
BRANCH  25  30
ATOM      5  O   UNL     1      -4.198 -12.708   8.671  0.00  0.00    -0.249 OA
ATOM     30  C   UNL     1      -4.456 -11.524   8.474  0.00  0.00    +0.328 C 
BRANCH  30   4
ATOM      4  O   UNL     1      -4.835 -10.996   7.276  0.00  0.00    -0.467 OA
ATOM     33  C   UNL     1      -4.533 -11.787   6.122  0.00  0.00    +0.280 C 
ENDBRANCH  30   4
ENDBRANCH  25  30
ENDBRANCH   9  25
ENDBRANCH  11  15
BRANCH  16  19
ATOM     19  C   UNL     1      -1.647 -14.933  12.746  0.00  0.00    +0.102 C 
BRANCH  19  20
ATOM     20  C   UNL     1      -2.202 -16.059  13.635  0.00  0.00    -0.029 C 
ATOM     26  C   UNL     1      -2.785 -17.202  12.785  0.00  0.00    +0.011 C 
ATOM     27  C   UNL     1      -3.284 -15.531  14.591  0.00  0.00    +0.011 C 
ATOM     28  C   UNL     1      -1.036 -16.618  14.472  0.00  0.00    +0.011 C 
ENDBRANCH  19  20
ENDBRANCH  16  19
TORSDOF 9
ENDMDL
MODEL 6
REMARK VINA RESULT:      -5.8      1.245      1.703
REMARK  Name = 26763150
REMARK  15 active torsions:
REMARK  status: ('A' for Active; 'I' for Inactive)
REMARK    1  A    between atoms: O_4  and  C_30
REMARK    2  A    between atoms: O_4  and  C_33
REMARK    3  A    between atoms: N_7  and  C_10
REMARK    4  A    between atoms: N_8  and  C_14
REMARK    5  A    between atoms: N_9  and  C_25
REMARK    6  A    between atoms: C_11  and  C_15
REMARK    7  A    between atoms: C_16  and  C_19
REMARK    8  A    between atoms: C_19  and  C_20
REMARK    9  A    between atoms: C_20  and  C_26
REMARK   10  A    between atoms: C_20  and  C_27
REMARK   11  A    between atoms: C_20  and  C_28
REMARK   12  A    between atoms: C_25  and  C_29
REMARK   13  A    between atoms: C_25  and  C_30
REMARK   14  A    between atoms: C_29  and  C_31
REMARK   15  A    between atoms: C_29  and  C_32
REMARK                            x       y       z     vdW  Elec       q    Type
REMARK                         _______ _______ _______ _____ _____    ______ ____
ROOT
ATOM      2  O   UNL     1      12.354   4.290   2.181  0.00  0.00    -0.276 OA
ATOM      6  N   UNL     1      13.086   6.484   2.279  0.00  0.00    -0.288 N 
ATOM     10  C   UNL     1      14.062   7.804   3.990  0.00  0.00    +0.105 C 
ATOM     11  C   UNL     1      13.238   6.543   3.729  0.00  0.00    +0.182 C 
ATOM     12  C   UNL     1      13.721   8.704   2.798  0.00  0.00    +0.043 C 
ATOM     13  C   UNL     1      13.525   7.725   1.649  0.00  0.00    +0.110 C 
ATOM     16  C   UNL     1      12.720   5.322   1.617  0.00  0.00    +0.217 C 
ENDROOT
BRANCH  10   7
ATOM      3  O   UNL     1      16.228   9.692   3.902  0.00  0.00    -0.253 OA
ATOM      7  N   UNL     1      15.473   7.502   4.033  0.00  0.00    -0.294 N 
ATOM      8  N   UNL     1      17.732   7.929   4.044  0.00  0.00    -0.297 N 
ATOM     24  C   UNL     1      16.457   8.486   3.986  0.00  0.00    +0.300 C 
ATOM     34  H   UNL     1      15.762   6.539   4.168  0.00  0.00    +0.151 HD
ATOM     35  H   UNL     1      17.806   6.927   4.185  0.00  0.00    +0.151 HD
BRANCH   8  14
ATOM     14  C   UNL     1      18.943   8.719   4.014  0.00  0.00    +0.074 C 
ATOM     17  C   UNL     1      19.229   9.343   5.384  0.00  0.00    +0.022 C 
ATOM     18  C   UNL     1      20.132   7.885   3.525  0.00  0.00    +0.022 C 
ATOM     21  C   UNL     1      19.685   8.309   6.413  0.00  0.00    +0.002 C 
ATOM     22  C   UNL     1      20.587   6.854   4.558  0.00  0.00    +0.002 C 
ATOM     23  C   UNL     1      20.875   7.500   5.909  0.00  0.00    +0.000 C 
ENDBRANCH   8  14
ENDBRANCH  10   7
BRANCH  11  15
ATOM      1  O   UNL     1      10.908   7.051   3.624  0.00  0.00    -0.274 OA
ATOM      9  N   UNL     1      11.810   6.307   5.638  0.00  0.00    -0.301 N 
ATOM     15  C   UNL     1      11.857   6.661   4.300  0.00  0.00    +0.236 C 
ATOM     36  H   UNL     1      12.651   5.945   6.074  0.00  0.00    +0.150 HD
BRANCH   9  25
ATOM     25  C   UNL     1      10.600   6.355   6.426  0.00  0.00    +0.184 C 
BRANCH  25  29
ATOM     29  C   UNL     1      10.151   7.801   6.731  0.00  0.00    +0.014 C 
ATOM     31  C   UNL     1       9.056   7.828   7.801  0.00  0.00    +0.009 C 
ATOM     32  C   UNL     1      11.306   8.719   7.144  0.00  0.00    +0.009 C 
ENDBRANCH  25  29
BRANCH  25  30
ATOM      5  O   UNL     1      11.644   5.695   8.505  0.00  0.00    -0.249 OA
ATOM     30  C   UNL     1      10.729   5.535   7.704  0.00  0.00    +0.328 C 
BRANCH  30   4
ATOM      4  O   UNL     1       9.723   4.624   7.837  0.00  0.00    -0.467 OA
ATOM     33  C   UNL     1       9.411   4.233   9.177  0.00  0.00    +0.280 C 
ENDBRANCH  30   4
ENDBRANCH  25  30
ENDBRANCH   9  25
ENDBRANCH  11  15
BRANCH  16  19
ATOM     19  C   UNL     1      12.785   5.384   0.111  0.00  0.00    +0.102 C 
BRANCH  19  20
ATOM     20  C   UNL     1      13.712   4.315  -0.493  0.00  0.00    -0.029 C 
ATOM     26  C   UNL     1      12.920   3.066  -0.914  0.00  0.00    +0.011 C 
ATOM     27  C   UNL     1      14.814   3.910   0.501  0.00  0.00    +0.011 C 
ATOM     28  C   UNL     1      14.377   4.919  -1.744  0.00  0.00    +0.011 C 
ENDBRANCH  19  20
ENDBRANCH  16  19
TORSDOF 9
ENDMDL
MODEL 7
REMARK VINA RESULT:      -5.8      1.207      1.638
REMARK  Name = 26763150
REMARK  15 active torsions:
REMARK  status: ('A' for Active; 'I' for Inactive)
REMARK    1  A    between atoms: O_4  and  C_30
REMARK    2  A    between atoms: O_4  and  C_33
REMARK    3  A    between atoms: N_7  and  C_10
REMARK    4  A    between atoms: N_8  and  C_14
REMARK    5  A    between atoms: N_9  and  C_25
REMARK    6  A    between atoms: C_11  and  C_15
REMARK    7  A    between atoms: C_16  and  C_19
REMARK    8  A    between atoms: C_19  and  C_20
REMARK    9  A    between atoms: C_20  and  C_26
REMARK   10  A    between atoms: C_20  and  C_27
REMARK   11  A    between atoms: C_20  and  C_28
REMARK   12  A    between atoms: C_25  and  C_29
REMARK   13  A    between atoms: C_25  and  C_30
REMARK   14  A    between atoms: C_29  and  C_31
REMARK   15  A    between atoms: C_29  and  C_32
REMARK                            x       y       z     vdW  Elec       q    Type
REMARK                         _______ _______ _______ _____ _____    ______ ____
ROOT
ATOM      2  O   UNL     1      13.454   3.769   1.732  0.00  0.00    -0.276 OA
ATOM      6  N   UNL     1      14.326   5.865   1.283  0.00  0.00    -0.288 N 
ATOM     10  C   UNL     1      15.155   7.615   2.652  0.00  0.00    +0.105 C 
ATOM     11  C   UNL     1      14.284   6.359   2.656  0.00  0.00    +0.182 C 
ATOM     12  C   UNL     1      15.047   8.119   1.209  0.00  0.00    +0.043 C 
ATOM     13  C   UNL     1      14.937   6.842   0.387  0.00  0.00    +0.110 C 
ATOM     16  C   UNL     1      13.969   4.568   0.949  0.00  0.00    +0.217 C 
ENDROOT
BRANCH  10   7
ATOM      3  O   UNL     1      17.185   9.464   3.505  0.00  0.00    -0.253 OA
ATOM      7  N   UNL     1      16.522   7.299   2.996  0.00  0.00    -0.294 N 
ATOM      8  N   UNL     1      18.682   7.697   3.674  0.00  0.00    -0.297 N 
ATOM     24  C   UNL     1      17.440   8.265   3.402  0.00  0.00    +0.300 C 
ATOM     34  H   UNL     1      16.810   6.326   3.005  0.00  0.00    +0.151 HD
ATOM     35  H   UNL     1      18.763   6.687   3.626  0.00  0.00    +0.151 HD
BRANCH   8  14
ATOM     14  C   UNL     1      19.824   8.467   4.116  0.00  0.00    +0.074 C 
ATOM     17  C   UNL     1      20.463   7.840   5.360  0.00  0.00    +0.022 C 
ATOM     18  C   UNL     1      20.848   8.629   2.988  0.00  0.00    +0.022 C 
ATOM     21  C   UNL     1      21.203   6.541   5.045  0.00  0.00    +0.002 C 
ATOM     22  C   UNL     1      21.588   7.327   2.678  0.00  0.00    +0.002 C 
ATOM     23  C   UNL     1      22.224   6.730   3.928  0.00  0.00    +0.000 C 
ENDBRANCH   8  14
ENDBRANCH  10   7
BRANCH  11  15
ATOM      1  O   UNL     1      12.067   7.015   2.062  0.00  0.00    -0.274 OA
ATOM      9  N   UNL     1      12.557   6.591   4.299  0.00  0.00    -0.301 N 
ATOM     15  C   UNL     1      12.851   6.686   2.950  0.00  0.00    +0.236 C 
ATOM     36  H   UNL     1      13.276   6.254   4.931  0.00  0.00    +0.150 HD
BRANCH   9  25
ATOM     25  C   UNL     1      11.250   6.877   4.845  0.00  0.00    +0.184 C 
BRANCH  25  29
ATOM     29  C   UNL     1      11.299   7.208   6.353  0.00  0.00    +0.014 C 
ATOM     31  C   UNL     1      12.625   6.761   6.976  0.00  0.00    +0.009 C 
ATOM     32  C   UNL     1      11.055   8.691   6.655  0.00  0.00    +0.009 C 
ENDBRANCH  25  29
BRANCH  25  30
ATOM      5  O   UNL     1      10.581   4.568   4.581  0.00  0.00    -0.249 OA
ATOM     30  C   UNL     1      10.262   5.753   4.558  0.00  0.00    +0.328 C 
BRANCH  30   4
ATOM      4  O   UNL     1       9.013   6.221   4.278  0.00  0.00    -0.467 OA
ATOM     33  C   UNL     1       8.957   7.481   3.602  0.00  0.00    +0.280 C 
ENDBRANCH  30   4
ENDBRANCH  25  30
ENDBRANCH   9  25
ENDBRANCH  11  15
BRANCH  16  19
ATOM     19  C   UNL     1      14.241   4.167  -0.480  0.00  0.00    +0.102 C 
BRANCH  19  20
ATOM     20  C   UNL     1      12.960   4.064  -1.326  0.00  0.00    -0.029 C 
ATOM     26  C   UNL     1      11.896   5.066  -0.849  0.00  0.00    +0.011 C 
ATOM     27  C   UNL     1      12.378   2.641  -1.282  0.00  0.00    +0.011 C 
ATOM     28  C   UNL     1      13.330   4.399  -2.784  0.00  0.00    +0.011 C 
ENDBRANCH  19  20
ENDBRANCH  16  19
TORSDOF 9
ENDMDL
MODEL 8
REMARK VINA RESULT:      -5.8     25.206     29.252
REMARK  Name = 26763150
REMARK  15 active torsions:
REMARK  status: ('A' for Active; 'I' for Inactive)
REMARK    1  A    between atoms: O_4  and  C_30
REMARK    2  A    between atoms: O_4  and  C_33
REMARK    3  A    between atoms: N_7  and  C_10
REMARK    4  A    between atoms: N_8  and  C_14
REMARK    5  A    between atoms: N_9  and  C_25
REMARK    6  A    between atoms: C_11  and  C_15
REMARK    7  A    between atoms: C_16  and  C_19
REMARK    8  A    between atoms: C_19  and  C_20
REMARK    9  A    between atoms: C_20  and  C_26
REMARK   10  A    between atoms: C_20  and  C_27
REMARK   11  A    between atoms: C_20  and  C_28
REMARK   12  A    between atoms: C_25  and  C_29
REMARK   13  A    between atoms: C_25  and  C_30
REMARK   14  A    between atoms: C_29  and  C_31
REMARK   15  A    between atoms: C_29  and  C_32
REMARK                            x       y       z     vdW  Elec       q    Type
REMARK                         _______ _______ _______ _____ _____    ______ ____
ROOT
ATOM      2  O   UNL     1      -5.136  -8.924  11.593  0.00  0.00    -0.276 OA
ATOM      6  N   UNL     1      -6.959 -10.332  11.819  0.00  0.00    -0.288 N 
ATOM     10  C   UNL     1      -8.294 -10.992  13.664  0.00  0.00    +0.105 C 
ATOM     11  C   UNL     1      -6.942 -10.394  13.277  0.00  0.00    +0.182 C 
ATOM     12  C   UNL     1      -8.667 -11.846  12.449  0.00  0.00    +0.043 C 
ATOM     13  C   UNL     1      -8.094 -11.070  11.271  0.00  0.00    +0.110 C 
ATOM     16  C   UNL     1      -6.086  -9.533  11.098  0.00  0.00    +0.217 C 
ENDROOT
BRANCH  10   7
ATOM      3  O   UNL     1      -8.674  -9.503  16.094  0.00  0.00    -0.253 OA
ATOM      7  N   UNL     1      -9.272  -9.955  13.898  0.00  0.00    -0.294 N 
ATOM      8  N   UNL     1     -10.402  -8.335  15.074  0.00  0.00    -0.297 N 
ATOM     24  C   UNL     1      -9.384  -9.284  15.114  0.00  0.00    +0.300 C 
ATOM     34  H   UNL     1      -9.860  -9.657  13.127  0.00  0.00    +0.151 HD
ATOM     35  H   UNL     1     -10.878  -8.186  14.190  0.00  0.00    +0.151 HD
BRANCH   8  14
ATOM     14  C   UNL     1     -10.740  -7.490  16.198  0.00  0.00    +0.074 C 
ATOM     17  C   UNL     1     -11.052  -6.062  15.740  0.00  0.00    +0.022 C 
ATOM     18  C   UNL     1     -11.904  -8.082  17.000  0.00  0.00    +0.022 C 
ATOM     21  C   UNL     1     -12.386  -5.962  15.001  0.00  0.00    +0.002 C 
ATOM     22  C   UNL     1     -13.238  -7.979  16.259  0.00  0.00    +0.002 C 
ATOM     23  C   UNL     1     -13.530  -6.547  15.823  0.00  0.00    +0.000 C 
ENDBRANCH   8  14
ENDBRANCH  10   7
BRANCH  11  15
ATOM      1  O   UNL     1      -5.892 -12.523  13.530  0.00  0.00    -0.274 OA
ATOM      9  N   UNL     1      -4.724 -10.608  14.156  0.00  0.00    -0.301 N 
ATOM     15  C   UNL     1      -5.811 -11.303  13.653  0.00  0.00    +0.236 C 
ATOM     36  H   UNL     1      -4.753  -9.594  14.157  0.00  0.00    +0.150 HD
BRANCH   9  25
ATOM     25  C   UNL     1      -3.515 -11.255  14.612  0.00  0.00    +0.184 C 
BRANCH  25  29
ATOM     29  C   UNL     1      -2.932 -10.592  15.880  0.00  0.00    +0.014 C 
ATOM     31  C   UNL     1      -3.650 -11.081  17.141  0.00  0.00    +0.009 C 
ATOM     32  C   UNL     1      -1.420 -10.796  16.028  0.00  0.00    +0.009 C 
ENDBRANCH  25  29
BRANCH  25  30
ATOM      5  O   UNL     1      -2.019 -12.409  13.102  0.00  0.00    -0.249 OA
ATOM     30  C   UNL     1      -2.472 -11.341  13.504  0.00  0.00    +0.328 C 
BRANCH  30   4
ATOM      4  O   UNL     1      -2.117 -10.114  13.031  0.00  0.00    -0.467 OA
ATOM     33  C   UNL     1      -1.730 -10.065  11.654  0.00  0.00    +0.280 C 
ENDBRANCH  30   4
ENDBRANCH  25  30
ENDBRANCH   9  25
ENDBRANCH  11  15
BRANCH  16  19
ATOM     19  C   UNL     1      -6.356  -9.447   9.617  0.00  0.00    +0.102 C 
BRANCH  19  20
ATOM     20  C   UNL     1      -5.154  -9.890   8.763  0.00  0.00    -0.029 C 
ATOM     26  C   UNL     1      -4.703 -11.313   9.136  0.00  0.00    +0.011 C 
ATOM     27  C   UNL     1      -3.971  -8.921   8.923  0.00  0.00    +0.011 C 
ATOM     28  C   UNL     1      -5.597  -9.887   7.288  0.00  0.00    +0.011 C 
ENDBRANCH  19  20
ENDBRANCH  16  19
TORSDOF 9
ENDMDL
MODEL 9
REMARK VINA RESULT:      -5.6     26.841     32.080
REMARK  Name = 26763150
REMARK  15 active torsions:
REMARK  status: ('A' for Active; 'I' for Inactive)
REMARK    1  A    between atoms: O_4  and  C_30
REMARK    2  A    between atoms: O_4  and  C_33
REMARK    3  A    between atoms: N_7  and  C_10
REMARK    4  A    between atoms: N_8  and  C_14
REMARK    5  A    between atoms: N_9  and  C_25
REMARK    6  A    between atoms: C_11  and  C_15
REMARK    7  A    between atoms: C_16  and  C_19
REMARK    8  A    between atoms: C_19  and  C_20
REMARK    9  A    between atoms: C_20  and  C_26
REMARK   10  A    between atoms: C_20  and  C_27
REMARK   11  A    between atoms: C_20  and  C_28
REMARK   12  A    between atoms: C_25  and  C_29
REMARK   13  A    between atoms: C_25  and  C_30
REMARK   14  A    between atoms: C_29  and  C_31
REMARK   15  A    between atoms: C_29  and  C_32
REMARK                            x       y       z     vdW  Elec       q    Type
REMARK                         _______ _______ _______ _____ _____    ______ ____
ROOT
ATOM      2  O   UNL     1     -10.592 -11.704  16.655  0.00  0.00    -0.276 OA
ATOM      6  N   UNL     1      -8.644 -10.550  17.139  0.00  0.00    -0.288 N 
ATOM     10  C   UNL     1      -6.471 -11.224  17.806  0.00  0.00    +0.105 C 
ATOM     11  C   UNL     1      -7.930 -11.674  17.735  0.00  0.00    +0.182 C 
ATOM     12  C   UNL     1      -6.573  -9.699  17.908  0.00  0.00    +0.043 C 
ATOM     13  C   UNL     1      -7.800  -9.361  17.071  0.00  0.00    +0.110 C 
ATOM     16  C   UNL     1      -9.905 -10.684  16.578  0.00  0.00    +0.217 C 
ENDROOT
BRANCH  10   7
ATOM      3  O   UNL     1      -3.616 -11.262  17.467  0.00  0.00    -0.253 OA
ATOM      7  N   UNL     1      -5.747 -11.623  16.622  0.00  0.00    -0.294 N 
ATOM      8  N   UNL     1      -3.914 -12.041  15.300  0.00  0.00    -0.297 N 
ATOM     24  C   UNL     1      -4.356 -11.611  16.548  0.00  0.00    +0.300 C 
ATOM     34  H   UNL     1      -6.268 -11.990  15.832  0.00  0.00    +0.151 HD
ATOM     35  H   UNL     1      -4.608 -12.375  14.639  0.00  0.00    +0.151 HD
BRANCH   8  14
ATOM     14  C   UNL     1      -2.515 -12.129  14.943  0.00  0.00    +0.074 C 
ATOM     17  C   UNL     1      -2.279 -13.232  13.905  0.00  0.00    +0.022 C 
ATOM     18  C   UNL     1      -1.988 -10.779  14.448  0.00  0.00    +0.022 C 
ATOM     21  C   UNL     1      -2.818 -12.860  12.524  0.00  0.00    +0.002 C 
ATOM     22  C   UNL     1      -2.527 -10.411  13.065  0.00  0.00    +0.002 C 
ATOM     23  C   UNL     1      -2.271 -11.519  12.048  0.00  0.00    +0.000 C 
ENDBRANCH   8  14
ENDBRANCH  10   7
BRANCH  11  15
ATOM      1  O   UNL     1      -8.229 -11.128  20.040  0.00  0.00    -0.274 OA
ATOM      9  N   UNL     1      -9.348 -12.973  19.164  0.00  0.00    -0.301 N 
ATOM     15  C   UNL     1      -8.510 -11.873  19.103  0.00  0.00    +0.236 C 
ATOM     36  H   UNL     1      -9.548 -13.479  18.307  0.00  0.00    +0.150 HD
BRANCH   9  25
ATOM     25  C   UNL     1     -10.015 -13.393  20.374  0.00  0.00    +0.184 C 
BRANCH  25  29
ATOM     29  C   UNL     1      -9.870 -14.909  20.634  0.00  0.00    +0.014 C 
ATOM     31  C   UNL     1      -9.383 -15.642  19.381  0.00  0.00    +0.009 C 
ATOM     32  C   UNL     1      -8.952 -15.234  21.818  0.00  0.00    +0.009 C 
ENDBRANCH  25  29
BRANCH  25  30
ATOM      5  O   UNL     1     -12.083 -12.643  19.369  0.00  0.00    -0.249 OA
ATOM     30  C   UNL     1     -11.479 -12.968  20.386  0.00  0.00    +0.328 C 
BRANCH  30   4
ATOM      4  O   UNL     1     -12.015 -12.995  21.639  0.00  0.00    -0.467 OA
ATOM     33  C   UNL     1     -13.281 -12.345  21.789  0.00  0.00    +0.280 C 
ENDBRANCH  30   4
ENDBRANCH  25  30
ENDBRANCH   9  25
ENDBRANCH  11  15
BRANCH  16  19
ATOM     19  C   UNL     1     -10.423  -9.471  15.846  0.00  0.00    +0.102 C 
BRANCH  19  20
ATOM     20  C   UNL     1     -11.374  -8.617  16.703  0.00  0.00    -0.029 C 
ATOM     26  C   UNL     1     -11.462  -9.156  18.141  0.00  0.00    +0.011 C 
ATOM     27  C   UNL     1     -12.783  -8.569  16.089  0.00  0.00    +0.011 C 
ATOM     28  C   UNL     1     -10.809  -7.184  16.750  0.00  0.00    +0.011 C 
ENDBRANCH  19  20
ENDBRANCH  16  19
TORSDOF 9
ENDMDL
MODEL 10
REMARK VINA RESULT:      -5.5      3.410      7.330
REMARK  Name = 26763150
REMARK  15 active torsions:
REMARK  status: ('A' for Active; 'I' for Inactive)
REMARK    1  A    between atoms: O_4  and  C_30
REMARK    2  A    between atoms: O_4  and  C_33
REMARK    3  A    between atoms: N_7  and  C_10
REMARK    4  A    between atoms: N_8  and  C_14
REMARK    5  A    between atoms: N_9  and  C_25
REMARK    6  A    between atoms: C_11  and  C_15
REMARK    7  A    between atoms: C_16  and  C_19
REMARK    8  A    between atoms: C_19  and  C_20
REMARK    9  A    between atoms: C_20  and  C_26
REMARK   10  A    between atoms: C_20  and  C_27
REMARK   11  A    between atoms: C_20  and  C_28
REMARK   12  A    between atoms: C_25  and  C_29
REMARK   13  A    between atoms: C_25  and  C_30
REMARK   14  A    between atoms: C_29  and  C_31
REMARK   15  A    between atoms: C_29  and  C_32
REMARK                            x       y       z     vdW  Elec       q    Type
REMARK                         _______ _______ _______ _____ _____    ______ ____
ROOT
ATOM      2  O   UNL     1       8.297   7.402   3.610  0.00  0.00    -0.276 OA
ATOM      6  N   UNL     1      10.472   7.096   2.881  0.00  0.00    -0.288 N 
ATOM     10  C   UNL     1      11.746   5.182   2.305  0.00  0.00    +0.105 C 
ATOM     11  C   UNL     1      10.508   5.650   3.068  0.00  0.00    +0.182 C 
ATOM     12  C   UNL     1      12.670   6.403   2.342  0.00  0.00    +0.043 C 
ATOM     13  C   UNL     1      11.712   7.584   2.284  0.00  0.00    +0.110 C 
ATOM     16  C   UNL     1       9.328   7.847   3.104  0.00  0.00    +0.217 C 
ENDROOT
BRANCH  10   7
ATOM      3  O   UNL     1      13.019   3.161   0.704  0.00  0.00    -0.253 OA
ATOM      7  N   UNL     1      11.412   4.817   0.948  0.00  0.00    -0.294 N 
ATOM      8  N   UNL     1      11.568   3.668  -1.037  0.00  0.00    -0.297 N 
ATOM     24  C   UNL     1      12.086   3.820   0.247  0.00  0.00    +0.300 C 
ATOM     34  H   UNL     1      10.613   5.260   0.507  0.00  0.00    +0.151 HD
ATOM     35  H   UNL     1      10.750   4.214  -1.287  0.00  0.00    +0.151 HD
BRANCH   8  14
ATOM     14  C   UNL     1      12.077   2.703  -1.986  0.00  0.00    +0.074 C 
ATOM     17  C   UNL     1      10.936   1.909  -2.631  0.00  0.00    +0.022 C 
ATOM     18  C   UNL     1      12.949   3.382  -3.047  0.00  0.00    +0.022 C 
ATOM     21  C   UNL     1      10.120   2.750  -3.612  0.00  0.00    +0.002 C 
ATOM     22  C   UNL     1      12.129   4.220  -4.029  0.00  0.00    +0.002 C 
ATOM     23  C   UNL     1      11.008   3.406  -4.665  0.00  0.00    +0.000 C 
ENDBRANCH   8  14
ENDBRANCH  10   7
BRANCH  11  15
ATOM      1  O   UNL     1      10.285   4.363   5.067  0.00  0.00    -0.274 OA
ATOM      9  N   UNL     1      11.198   6.501   5.198  0.00  0.00    -0.301 N 
ATOM     15  C   UNL     1      10.649   5.413   4.542  0.00  0.00    +0.236 C 
ATOM     36  H   UNL     1      11.513   7.293   4.647  0.00  0.00    +0.150 HD
BRANCH   9  25
ATOM     25  C   UNL     1      11.418   6.534   6.626  0.00  0.00    +0.184 C 
BRANCH  25  29
ATOM     29  C   UNL     1      10.458   7.504   7.349  0.00  0.00    +0.014 C 
ATOM     31  C   UNL     1      10.058   8.670   6.439  0.00  0.00    +0.009 C 
ATOM     32  C   UNL     1       9.203   6.816   7.897  0.00  0.00    +0.009 C 
ENDBRANCH  25  29
BRANCH  25  30
ATOM      5  O   UNL     1      13.532   6.153   7.736  0.00  0.00    -0.249 OA
ATOM     30  C   UNL     1      12.872   6.841   6.964  0.00  0.00    +0.328 C 
BRANCH  30   4
ATOM      4  O   UNL     1      13.331   7.948   6.315  0.00  0.00    -0.467 OA
ATOM     33  C   UNL     1      14.568   7.791   5.613  0.00  0.00    +0.280 C 
ENDBRANCH  30   4
ENDBRANCH  25  30
ENDBRANCH   9  25
ENDBRANCH  11  15
BRANCH  16  19
ATOM     19  C   UNL     1       9.410   9.295   2.690  0.00  0.00    +0.102 C 
BRANCH  19  20
ATOM     20  C   UNL     1       8.551   9.613   1.453  0.00  0.00    -0.029 C 
ATOM     26  C   UNL     1       7.055   9.643   1.808  0.00  0.00    +0.011 C 
ATOM     27  C   UNL     1       8.789   8.587   0.333  0.00  0.00    +0.011 C 
ATOM     28  C   UNL     1       8.961  11.006   0.939  0.00  0.00    +0.011 C 
ENDBRANCH  19  20
ENDBRANCH  16  19
TORSDOF 9
ENDMDL
