MODEL 1
REMARK VINA RESULT:      -6.3      0.000      0.000
REMARK  Name = 11865678
REMARK  8 active torsions:
REMARK  status: ('A' for Active; 'I' for Inactive)
REMARK    1  A    between atoms: O_2  and  C_10
REMARK    2  A    between atoms: O_3  and  C_12
REMARK    3  A    between atoms: N_7  and  C_11
REMARK    4  A    between atoms: N_8  and  C_18
REMARK    5  A    between atoms: C_14  and  C_16
REMARK    6  A    between atoms: C_17  and  C_19
REMARK    7  A    between atoms: C_18  and  C_20
REMARK    8  A    between atoms: C_20  and  C_22
REMARK                            x       y       z     vdW  Elec       q    Type
REMARK                         _______ _______ _______ _____ _____    ______ ____
ROOT
ATOM     10  C   UNL     1      20.989   7.715  21.817  0.00  0.00    +0.167 C 
ATOM     11  C   UNL     1      20.535   6.244  21.780  0.00  0.00    +0.128 C 
ATOM     12  C   UNL     1      19.807   8.664  22.056  0.00  0.00    +0.149 C 
ATOM     13  C   UNL     1      18.694   8.476  21.010  0.00  0.00    +0.074 C 
ATOM     14  C   UNL     1      18.469   7.039  20.631  0.00  0.00    +0.015 C 
ATOM     15  C   UNL     1      19.281   6.028  20.976  0.00  0.00    +0.006 C 
ENDROOT
BRANCH  14  16
ATOM      4  O   UNL     1      17.253   5.730  19.107  0.00  0.00    -0.271 OA
ATOM      8  N   UNL     1      16.236   7.604  20.047  0.00  0.00    -0.311 N 
ATOM     16  C   UNL     1      17.274   6.711  19.849  0.00  0.00    +0.240 C 
ATOM     28  H   UNL     1      16.346   8.406  20.658  0.00  0.00    +0.149 HD
BRANCH   8  18
ATOM     18  C   UNL     1      14.958   7.489  19.384  0.00  0.00    +0.113 C 
BRANCH  18  20
ATOM     20  C   UNL     1      13.867   6.985  20.318  0.00  0.00    +0.114 C 
BRANCH  20  22
ATOM      6  O   UNL     1      12.283   7.078  18.479  0.00  0.00    -0.276 OA
ATOM      9  N   UNL     1      11.697   5.947  20.392  0.00  0.00    -0.329 N 
ATOM     22  C   UNL     1      12.556   6.691  19.612  0.00  0.00    +0.212 C 
ATOM     29  H   UNL     1      11.943   5.639  21.328  0.00  0.00    +0.145 HD
ATOM     30  H   UNL     1      10.780   5.678  20.050  0.00  0.00    +0.145 HD
ENDBRANCH  20  22
ENDBRANCH  18  20
ENDBRANCH   8  18
ENDBRANCH  14  16
BRANCH  11   7
ATOM      5  O   UNL     1      21.904   4.266  23.252  0.00  0.00    -0.270 OA
ATOM      7  N   UNL     1      21.570   5.379  21.270  0.00  0.00    -0.302 N 
ATOM     17  C   UNL     1      22.200   4.423  22.065  0.00  0.00    +0.251 C 
ATOM     25  H   UNL     1      21.856   5.515  20.306  0.00  0.00    +0.150 HD
BRANCH  17  19
ATOM      1  S   UNL     1      24.189   4.334  20.225  0.00  0.00    -0.092 S 
ATOM     19  C   UNL     1      23.213   3.596  21.393  0.00  0.00    +0.074 A 
ATOM     21  C   UNL     1      23.469   2.286  21.597  0.00  0.00    +0.021 A 
ATOM     23  C   UNL     1      24.528   1.844  20.752  0.00  0.00    +0.008 A 
ATOM     24  C   UNL     1      25.011   2.857  19.955  0.00  0.00    +0.046 A 
ENDBRANCH  17  19
ENDBRANCH  11   7
BRANCH  10   2
ATOM      2  O   UNL     1      21.608   8.057  20.574  0.00  0.00    -0.387 OA
ATOM     26  H   UNL     1      20.961   8.563  20.054  0.00  0.00    +0.210 HD
ENDBRANCH  10   2
BRANCH  12   3
ATOM      3  O   UNL     1      19.284   8.474  23.368  0.00  0.00    -0.389 OA
ATOM     27  H   UNL     1      19.546   7.585  23.662  0.00  0.00    +0.210 HD
ENDBRANCH  12   3
TORSDOF 8
ENDMDL
MODEL 2
REMARK VINA RESULT:      -6.3      3.785      6.751
REMARK  Name = 11865678
REMARK  8 active torsions:
REMARK  status: ('A' for Active; 'I' for Inactive)
REMARK    1  A    between atoms: O_2  and  C_10
REMARK    2  A    between atoms: O_3  and  C_12
REMARK    3  A    between atoms: N_7  and  C_11
REMARK    4  A    between atoms: N_8  and  C_18
REMARK    5  A    between atoms: C_14  and  C_16
REMARK    6  A    between atoms: C_17  and  C_19
REMARK    7  A    between atoms: C_18  and  C_20
REMARK    8  A    between atoms: C_20  and  C_22
REMARK                            x       y       z     vdW  Elec       q    Type
REMARK                         _______ _______ _______ _____ _____    ______ ____
ROOT
ATOM     10  C   UNL     1      13.618   6.956  20.869  0.00  0.00    +0.167 C 
ATOM     11  C   UNL     1      14.710   6.693  19.815  0.00  0.00    +0.128 C 
ATOM     12  C   UNL     1      12.224   7.020  20.231  0.00  0.00    +0.149 C 
ATOM     13  C   UNL     1      12.148   8.073  19.111  0.00  0.00    +0.074 C 
ATOM     14  C   UNL     1      13.389   8.134  18.267  0.00  0.00    +0.015 C 
ATOM     15  C   UNL     1      14.541   7.514  18.565  0.00  0.00    +0.006 C 
ENDROOT
BRANCH  14  16
ATOM      4  O   UNL     1      12.435   8.730  16.205  0.00  0.00    -0.271 OA
ATOM      8  N   UNL     1      14.386   9.802  16.897  0.00  0.00    -0.311 N 
ATOM     16  C   UNL     1      13.339   8.905  17.021  0.00  0.00    +0.240 C 
ATOM     28  H   UNL     1      15.107   9.863  17.607  0.00  0.00    +0.149 HD
BRANCH   8  18
ATOM     18  C   UNL     1      14.550  10.670  15.755  0.00  0.00    +0.113 C 
BRANCH  18  20
ATOM     20  C   UNL     1      15.544  11.793  16.022  0.00  0.00    +0.114 C 
BRANCH  20  22
ATOM      6  O   UNL     1      17.617  12.635  15.079  0.00  0.00    -0.276 OA
ATOM      9  N   UNL     1      16.517  10.931  13.998  0.00  0.00    -0.329 N 
ATOM     22  C   UNL     1      16.674  11.851  15.011  0.00  0.00    +0.212 C 
ATOM     29  H   UNL     1      15.728  10.293  13.960  0.00  0.00    +0.145 HD
ATOM     30  H   UNL     1      17.197  10.858  13.247  0.00  0.00    +0.145 HD
ENDBRANCH  20  22
ENDBRANCH  18  20
ENDBRANCH   8  18
ENDBRANCH  14  16
BRANCH  11   7
ATOM      5  O   UNL     1      17.086   5.475  18.909  0.00  0.00    -0.270 OA
ATOM      7  N   UNL     1      16.030   6.922  20.348  0.00  0.00    -0.302 N 
ATOM     17  C   UNL     1      17.159   6.277  19.842  0.00  0.00    +0.251 C 
ATOM     25  H   UNL     1      16.110   7.550  21.140  0.00  0.00    +0.150 HD
BRANCH  17  19
ATOM      1  S   UNL     1      18.517   8.098  21.323  0.00  0.00    -0.092 S 
ATOM     19  C   UNL     1      18.438   6.639  20.469  0.00  0.00    +0.074 A 
ATOM     21  C   UNL     1      19.590   5.933  20.449  0.00  0.00    +0.021 A 
ATOM     23  C   UNL     1      20.610   6.617  21.173  0.00  0.00    +0.008 A 
ATOM     24  C   UNL     1      20.161   7.806  21.700  0.00  0.00    +0.046 A 
ENDBRANCH  17  19
ENDBRANCH  11   7
BRANCH  10   2
ATOM      2  O   UNL     1      13.878   8.196  21.530  0.00  0.00    -0.387 OA
ATOM     26  H   UNL     1      14.704   8.093  22.033  0.00  0.00    +0.210 HD
ENDBRANCH  10   2
BRANCH  12   3
ATOM      3  O   UNL     1      11.856   5.739  19.725  0.00  0.00    -0.389 OA
ATOM     27  H   UNL     1      10.947   5.809  19.386  0.00  0.00    +0.210 HD
ENDBRANCH  12   3
TORSDOF 8
ENDMDL
MODEL 3
REMARK VINA RESULT:      -6.2      8.512     10.898
REMARK  Name = 11865678
REMARK  8 active torsions:
REMARK  status: ('A' for Active; 'I' for Inactive)
REMARK    1  A    between atoms: O_2  and  C_10
REMARK    2  A    between atoms: O_3  and  C_12
REMARK    3  A    between atoms: N_7  and  C_11
REMARK    4  A    between atoms: N_8  and  C_18
REMARK    5  A    between atoms: C_14  and  C_16
REMARK    6  A    between atoms: C_17  and  C_19
REMARK    7  A    between atoms: C_18  and  C_20
REMARK    8  A    between atoms: C_20  and  C_22
REMARK                            x       y       z     vdW  Elec       q    Type
REMARK                         _______ _______ _______ _____ _____    ______ ____
ROOT
ATOM     10  C   UNL     1      11.790   8.036  20.302  0.00  0.00    +0.167 C 
ATOM     11  C   UNL     1      12.511   9.393  20.193  0.00  0.00    +0.128 C 
ATOM     12  C   UNL     1      12.402   6.996  19.355  0.00  0.00    +0.149 C 
ATOM     13  C   UNL     1      12.412   7.478  17.894  0.00  0.00    +0.074 C 
ATOM     14  C   UNL     1      12.733   8.940  17.751  0.00  0.00    +0.015 C 
ATOM     15  C   UNL     1      12.789   9.807  18.773  0.00  0.00    +0.006 C 
ENDROOT
BRANCH  14  16
ATOM      4  O   UNL     1      12.824   8.766  15.411  0.00  0.00    -0.271 OA
ATOM      8  N   UNL     1      13.532  10.742  16.424  0.00  0.00    -0.311 N 
ATOM     16  C   UNL     1      13.026   9.454  16.411  0.00  0.00    +0.240 C 
ATOM     28  H   UNL     1      13.695  11.229  17.297  0.00  0.00    +0.149 HD
BRANCH   8  18
ATOM     18  C   UNL     1      13.898  11.459  15.224  0.00  0.00    +0.113 C 
BRANCH  18  20
ATOM     20  C   UNL     1      15.273  11.056  14.709  0.00  0.00    +0.114 C 
BRANCH  20  22
ATOM      6  O   UNL     1      15.881  13.135  13.612  0.00  0.00    -0.276 OA
ATOM      9  N   UNL     1      16.044  11.169  12.433  0.00  0.00    -0.329 N 
ATOM     22  C   UNL     1      15.760  11.915  13.557  0.00  0.00    +0.212 C 
ATOM     29  H   UNL     1      15.935  10.160  12.408  0.00  0.00    +0.145 HD
ATOM     30  H   UNL     1      16.377  11.612  11.582  0.00  0.00    +0.145 HD
ENDBRANCH  20  22
ENDBRANCH  18  20
ENDBRANCH   8  18
ENDBRANCH  14  16
BRANCH  11   7
ATOM      5  O   UNL     1      13.444  10.989  22.323  0.00  0.00    -0.270 OA
ATOM      7  N   UNL     1      11.769  10.443  20.848  0.00  0.00    -0.302 N 
ATOM     17  C   UNL     1      12.305  11.189  21.897  0.00  0.00    +0.251 C 
ATOM     25  H   UNL     1      10.816  10.602  20.540  0.00  0.00    +0.150 HD
BRANCH  17  19
ATOM      1  S   UNL     1      11.003  12.151  24.072  0.00  0.00    -0.092 S 
ATOM     19  C   UNL     1      11.439  12.245  22.440  0.00  0.00    +0.074 A 
ATOM     21  C   UNL     1      10.935  13.312  21.782  0.00  0.00    +0.021 A 
ATOM     23  C   UNL     1      10.140  14.111  22.654  0.00  0.00    +0.008 A 
ATOM     24  C   UNL     1      10.093  13.594  23.929  0.00  0.00    +0.046 A 
ENDBRANCH  17  19
ENDBRANCH  11   7
BRANCH  10   2
ATOM      2  O   UNL     1      10.408   8.198  19.974  0.00  0.00    -0.387 OA
ATOM     26  H   UNL     1      10.108   7.373  19.556  0.00  0.00    +0.210 HD
ENDBRANCH  10   2
BRANCH  12   3
ATOM      3  O   UNL     1      13.727   6.672  19.772  0.00  0.00    -0.389 OA
ATOM     27  H   UNL     1      13.727   5.739  20.045  0.00  0.00    +0.210 HD
ENDBRANCH  12   3
TORSDOF 8
ENDMDL
MODEL 4
REMARK VINA RESULT:      -6.1      4.421      9.614
REMARK  Name = 11865678
REMARK  8 active torsions:
REMARK  status: ('A' for Active; 'I' for Inactive)
REMARK    1  A    between atoms: O_2  and  C_10
REMARK    2  A    between atoms: O_3  and  C_12
REMARK    3  A    between atoms: N_7  and  C_11
REMARK    4  A    between atoms: N_8  and  C_18
REMARK    5  A    between atoms: C_14  and  C_16
REMARK    6  A    between atoms: C_17  and  C_19
REMARK    7  A    between atoms: C_18  and  C_20
REMARK    8  A    between atoms: C_20  and  C_22
REMARK                            x       y       z     vdW  Elec       q    Type
REMARK                         _______ _______ _______ _____ _____    ______ ____
ROOT
ATOM     10  C   UNL     1      12.708   8.896  18.947  0.00  0.00    +0.167 C 
ATOM     11  C   UNL     1      13.102   8.243  20.285  0.00  0.00    +0.128 C 
ATOM     12  C   UNL     1      12.941   7.946  17.766  0.00  0.00    +0.149 C 
ATOM     13  C   UNL     1      14.394   7.444  17.706  0.00  0.00    +0.074 C 
ATOM     14  C   UNL     1      14.982   7.156  19.059  0.00  0.00    +0.015 C 
ATOM     15  C   UNL     1      14.409   7.500  20.222  0.00  0.00    +0.006 C 
ENDROOT
BRANCH  14  16
ATOM      4  O   UNL     1      16.542   5.585  18.274  0.00  0.00    -0.271 OA
ATOM      8  N   UNL     1      17.041   6.810  20.193  0.00  0.00    -0.311 N 
ATOM     16  C   UNL     1      16.255   6.432  19.119  0.00  0.00    +0.240 C 
ATOM     28  H   UNL     1      16.717   7.500  20.861  0.00  0.00    +0.149 HD
BRANCH   8  18
ATOM     18  C   UNL     1      18.339   6.235  20.462  0.00  0.00    +0.113 C 
BRANCH  18  20
ATOM     20  C   UNL     1      19.118   7.030  21.501  0.00  0.00    +0.114 C 
BRANCH  20  22
ATOM      6  O   UNL     1      20.284   6.204  23.464  0.00  0.00    -0.276 OA
ATOM      9  N   UNL     1      20.935   5.458  21.390  0.00  0.00    -0.329 N 
ATOM     22  C   UNL     1      20.151   6.204  22.244  0.00  0.00    +0.212 C 
ATOM     29  H   UNL     1      20.810   5.475  20.383  0.00  0.00    +0.145 HD
ATOM     30  H   UNL     1      21.672   4.858  21.747  0.00  0.00    +0.145 HD
ENDBRANCH  20  22
ENDBRANCH  18  20
ENDBRANCH   8  18
ENDBRANCH  14  16
BRANCH  11   7
ATOM      5  O   UNL     1      10.890   9.425  21.574  0.00  0.00    -0.270 OA
ATOM      7  N   UNL     1      13.167   9.211  21.352  0.00  0.00    -0.302 N 
ATOM     17  C   UNL     1      12.022   9.750  21.938  0.00  0.00    +0.251 C 
ATOM     25  H   UNL     1      14.087   9.521  21.644  0.00  0.00    +0.150 HD
BRANCH  17  19
ATOM      1  S   UNL     1      10.942  11.081  24.038  0.00  0.00    -0.092 S 
ATOM     19  C   UNL     1      12.250  10.701  23.036  0.00  0.00    +0.074 A 
ATOM     21  C   UNL     1      13.406  11.325  23.354  0.00  0.00    +0.021 A 
ATOM     23  C   UNL     1      13.224  12.171  24.486  0.00  0.00    +0.008 A 
ATOM     24  C   UNL     1      11.931  12.133  24.958  0.00  0.00    +0.046 A 
ENDBRANCH  17  19
ENDBRANCH  11   7
BRANCH  10   2
ATOM      2  O   UNL     1      13.484  10.080  18.744  0.00  0.00    -0.387 OA
ATOM     26  H   UNL     1      13.406  10.622  19.548  0.00  0.00    +0.210 HD
ENDBRANCH  10   2
BRANCH  12   3
ATOM      3  O   UNL     1      12.044   6.841  17.841  0.00  0.00    -0.389 OA
ATOM     27  H   UNL     1      11.784   6.738  18.772  0.00  0.00    +0.210 HD
ENDBRANCH  12   3
TORSDOF 8
ENDMDL
MODEL 5
REMARK VINA RESULT:      -6.1     17.342     20.296
REMARK  Name = 11865678
REMARK  8 active torsions:
REMARK  status: ('A' for Active; 'I' for Inactive)
REMARK    1  A    between atoms: O_2  and  C_10
REMARK    2  A    between atoms: O_3  and  C_12
REMARK    3  A    between atoms: N_7  and  C_11
REMARK    4  A    between atoms: N_8  and  C_18
REMARK    5  A    between atoms: C_14  and  C_16
REMARK    6  A    between atoms: C_17  and  C_19
REMARK    7  A    between atoms: C_18  and  C_20
REMARK    8  A    between atoms: C_20  and  C_22
REMARK                            x       y       z     vdW  Elec       q    Type
REMARK                         _______ _______ _______ _____ _____    ______ ____
ROOT
ATOM     10  C   UNL     1      13.050   6.906   2.001  0.00  0.00    +0.167 C 
ATOM     11  C   UNL     1      12.568   5.443   1.977  0.00  0.00    +0.128 C 
ATOM     12  C   UNL     1      13.366   7.371   3.429  0.00  0.00    +0.149 C 
ATOM     13  C   UNL     1      12.167   7.190   4.375  0.00  0.00    +0.074 C 
ATOM     14  C   UNL     1      11.397   5.924   4.126  0.00  0.00    +0.015 C 
ATOM     15  C   UNL     1      11.572   5.127   3.061  0.00  0.00    +0.006 C 
ENDROOT
BRANCH  14  16
ATOM      4  O   UNL     1       9.966   4.364   5.144  0.00  0.00    -0.271 OA
ATOM      8  N   UNL     1      10.038   6.540   5.975  0.00  0.00    -0.311 N 
ATOM     16  C   UNL     1      10.401   5.514   5.120  0.00  0.00    +0.240 C 
ATOM     28  H   UNL     1      10.425   7.470   5.869  0.00  0.00    +0.149 HD
BRANCH   8  18
ATOM     18  C   UNL     1       9.070   6.378   7.036  0.00  0.00    +0.113 C 
BRANCH  18  20
ATOM     20  C   UNL     1       9.731   6.171   8.392  0.00  0.00    +0.114 C 
BRANCH  20  22
ATOM      6  O   UNL     1       8.856   4.495   9.917  0.00  0.00    -0.276 OA
ATOM      9  N   UNL     1      10.268   3.831   8.229  0.00  0.00    -0.329 N 
ATOM     22  C   UNL     1       9.551   4.768   8.942  0.00  0.00    +0.212 C 
ATOM     29  H   UNL     1      10.839   4.079   7.427  0.00  0.00    +0.145 HD
ATOM     30  H   UNL     1      10.246   2.849   8.486  0.00  0.00    +0.145 HD
ENDBRANCH  20  22
ENDBRANCH  18  20
ENDBRANCH   8  18
ENDBRANCH  14  16
BRANCH  11   7
ATOM      5  O   UNL     1      13.050   3.058   0.553  0.00  0.00    -0.270 OA
ATOM      7  N   UNL     1      11.994   5.093   0.701  0.00  0.00    -0.302 N 
ATOM     17  C   UNL     1      12.285   3.890   0.060  0.00  0.00    +0.251 C 
ATOM     25  H   UNL     1      11.390   5.777   0.258  0.00  0.00    +0.150 HD
BRANCH  17  19
ATOM      1  S   UNL     1      10.449   4.801  -1.714  0.00  0.00    -0.092 S 
ATOM     19  C   UNL     1      11.598   3.662  -1.220  0.00  0.00    +0.074 A 
ATOM     21  C   UNL     1      11.775   2.631  -2.074  0.00  0.00    +0.021 A 
ATOM     23  C   UNL     1      10.923   2.767  -3.209  0.00  0.00    +0.008 A 
ATOM     24  C   UNL     1      10.149   3.903  -3.141  0.00  0.00    +0.046 A 
ENDBRANCH  17  19
ENDBRANCH  11   7
BRANCH  10   2
ATOM      2  O   UNL     1      12.037   7.755   1.456  0.00  0.00    -0.387 OA
ATOM     26  H   UNL     1      11.502   8.086   2.197  0.00  0.00    +0.210 HD
ENDBRANCH  10   2
BRANCH  12   3
ATOM      3  O   UNL     1      14.499   6.668   3.934  0.00  0.00    -0.389 OA
ATOM     27  H   UNL     1      15.197   7.323   4.105  0.00  0.00    +0.210 HD
ENDBRANCH  12   3
TORSDOF 8
ENDMDL
MODEL 6
REMARK VINA RESULT:      -6.1     29.338     30.831
REMARK  Name = 11865678
REMARK  8 active torsions:
REMARK  status: ('A' for Active; 'I' for Inactive)
REMARK    1  A    between atoms: O_2  and  C_10
REMARK    2  A    between atoms: O_3  and  C_12
REMARK    3  A    between atoms: N_7  and  C_11
REMARK    4  A    between atoms: N_8  and  C_18
REMARK    5  A    between atoms: C_14  and  C_16
REMARK    6  A    between atoms: C_17  and  C_19
REMARK    7  A    between atoms: C_18  and  C_20
REMARK    8  A    between atoms: C_20  and  C_22
REMARK                            x       y       z     vdW  Elec       q    Type
REMARK                         _______ _______ _______ _____ _____    ______ ____
ROOT
ATOM     10  C   UNL     1      -3.845 -11.083  16.349  0.00  0.00    +0.167 C 
ATOM     11  C   UNL     1      -5.085 -11.242  15.448  0.00  0.00    +0.128 C 
ATOM     12  C   UNL     1      -4.104 -11.618  17.763  0.00  0.00    +0.149 C 
ATOM     13  C   UNL     1      -5.327 -10.953  18.418  0.00  0.00    +0.074 C 
ATOM     14  C   UNL     1      -6.461 -10.716  17.460  0.00  0.00    +0.015 C 
ATOM     15  C   UNL     1      -6.368 -10.850  16.129  0.00  0.00    +0.006 C 
ENDROOT
BRANCH  14  16
ATOM      4  O   UNL     1      -8.068 -10.619  19.170  0.00  0.00    -0.271 OA
ATOM      8  N   UNL     1      -8.553  -9.646  17.109  0.00  0.00    -0.311 N 
ATOM     16  C   UNL     1      -7.762 -10.332  18.014  0.00  0.00    +0.240 C 
ATOM     28  H   UNL     1      -8.235  -9.475  16.162  0.00  0.00    +0.149 HD
BRANCH   8  18
ATOM     18  C   UNL     1      -9.880  -9.168  17.424  0.00  0.00    +0.113 C 
BRANCH  18  20
ATOM     20  C   UNL     1     -10.002  -7.659  17.258  0.00  0.00    +0.114 C 
BRANCH  20  22
ATOM      6  O   UNL     1     -10.101  -7.970  14.852  0.00  0.00    -0.276 OA
ATOM      9  N   UNL     1     -10.571  -5.896  15.723  0.00  0.00    -0.329 N 
ATOM     22  C   UNL     1     -10.225  -7.226  15.821  0.00  0.00    +0.212 C 
ATOM     29  H   UNL     1     -10.665  -5.298  16.539  0.00  0.00    +0.145 HD
ATOM     30  H   UNL     1     -10.747  -5.466  14.821  0.00  0.00    +0.145 HD
ENDBRANCH  20  22
ENDBRANCH  18  20
ENDBRANCH   8  18
ENDBRANCH  14  16
BRANCH  11   7
ATOM      5  O   UNL     1      -3.780 -12.110  13.104  0.00  0.00    -0.270 OA
ATOM      7  N   UNL     1      -4.956 -10.486  14.226  0.00  0.00    -0.302 N 
ATOM     17  C   UNL     1      -4.292 -10.989  13.107  0.00  0.00    +0.251 C 
ATOM     25  H   UNL     1      -5.338  -9.547  14.217  0.00  0.00    +0.150 HD
BRANCH  17  19
ATOM      1  S   UNL     1      -5.665  -9.217  11.583  0.00  0.00    -0.092 S 
ATOM     19  C   UNL     1      -4.272 -10.113  11.927  0.00  0.00    +0.074 A 
ATOM     21  C   UNL     1      -3.253  -9.929  11.060  0.00  0.00    +0.021 A 
ATOM     23  C   UNL     1      -3.621  -8.999  10.044  0.00  0.00    +0.008 A 
ATOM     24  C   UNL     1      -4.906  -8.533  10.209  0.00  0.00    +0.046 A 
ENDBRANCH  17  19
ENDBRANCH  11   7
BRANCH  10   2
ATOM      2  O   UNL     1      -3.491  -9.700  16.439  0.00  0.00    -0.387 OA
ATOM     26  H   UNL     1      -3.198  -9.416  15.557  0.00  0.00    +0.210 HD
ENDBRANCH  10   2
BRANCH  12   3
ATOM      3  O   UNL     1      -4.276 -13.033  17.728  0.00  0.00    -0.389 OA
ATOM     27  H   UNL     1      -4.185 -13.316  16.802  0.00  0.00    +0.210 HD
ENDBRANCH  12   3
TORSDOF 8
ENDMDL
MODEL 7
REMARK VINA RESULT:      -6.1     16.351     18.872
REMARK  Name = 11865678
REMARK  8 active torsions:
REMARK  status: ('A' for Active; 'I' for Inactive)
REMARK    1  A    between atoms: O_2  and  C_10
REMARK    2  A    between atoms: O_3  and  C_12
REMARK    3  A    between atoms: N_7  and  C_11
REMARK    4  A    between atoms: N_8  and  C_18
REMARK    5  A    between atoms: C_14  and  C_16
REMARK    6  A    between atoms: C_17  and  C_19
REMARK    7  A    between atoms: C_18  and  C_20
REMARK    8  A    between atoms: C_20  and  C_22
REMARK                            x       y       z     vdW  Elec       q    Type
REMARK                         _______ _______ _______ _____ _____    ______ ____
ROOT
ATOM     10  C   UNL     1      15.067   4.285   1.339  0.00  0.00    +0.167 C 
ATOM     11  C   UNL     1      14.522   5.632   1.850  0.00  0.00    +0.128 C 
ATOM     12  C   UNL     1      14.005   3.511   0.548  0.00  0.00    +0.149 C 
ATOM     13  C   UNL     1      12.721   3.290   1.366  0.00  0.00    +0.074 C 
ATOM     14  C   UNL     1      12.346   4.471   2.216  0.00  0.00    +0.015 C 
ATOM     15  C   UNL     1      13.139   5.531   2.434  0.00  0.00    +0.006 C 
ENDROOT
BRANCH  14  16
ATOM      4  O   UNL     1      10.000   4.373   2.151  0.00  0.00    -0.271 OA
ATOM      8  N   UNL     1      11.062   4.624   4.210  0.00  0.00    -0.311 N 
ATOM     16  C   UNL     1      11.017   4.482   2.835  0.00  0.00    +0.240 C 
ATOM     28  H   UNL     1      11.944   4.736   4.695  0.00  0.00    +0.149 HD
BRANCH   8  18
ATOM     18  C   UNL     1       9.879   4.665   5.039  0.00  0.00    +0.113 C 
BRANCH  18  20
ATOM     20  C   UNL     1       9.890   5.844   6.002  0.00  0.00    +0.114 C 
BRANCH  20  22
ATOM      6  O   UNL     1      12.115   6.815   5.952  0.00  0.00    -0.276 OA
ATOM      9  N   UNL     1      11.468   5.617   7.804  0.00  0.00    -0.329 N 
ATOM     22  C   UNL     1      11.268   6.160   6.553  0.00  0.00    +0.212 C 
ATOM     29  H   UNL     1      10.754   5.077   8.282  0.00  0.00    +0.145 HD
ATOM     30  H   UNL     1      12.347   5.745   8.295  0.00  0.00    +0.145 HD
ENDBRANCH  20  22
ENDBRANCH  18  20
ENDBRANCH   8  18
ENDBRANCH  14  16
BRANCH  11   7
ATOM      5  O   UNL     1      15.261   8.351   1.969  0.00  0.00    -0.270 OA
ATOM      7  N   UNL     1      15.400   6.225   2.829  0.00  0.00    -0.302 N 
ATOM     17  C   UNL     1      15.717   7.582   2.819  0.00  0.00    +0.251 C 
ATOM     25  H   UNL     1      15.816   5.606   3.517  0.00  0.00    +0.150 HD
BRANCH  17  19
ATOM      1  S   UNL     1      15.905   8.335   5.417  0.00  0.00    -0.092 S 
ATOM     19  C   UNL     1      16.598   8.043   3.901  0.00  0.00    +0.074 A 
ATOM     21  C   UNL     1      17.929   8.267   3.836  0.00  0.00    +0.021 A 
ATOM     23  C   UNL     1      18.426   8.707   5.098  0.00  0.00    +0.008 A 
ATOM     24  C   UNL     1      17.431   8.787   6.046  0.00  0.00    +0.046 A 
ENDBRANCH  17  19
ENDBRANCH  11   7
BRANCH  10   2
ATOM      2  O   UNL     1      15.487   3.485   2.448  0.00  0.00    -0.387 OA
ATOM     26  H   UNL     1      16.099   2.811   2.107  0.00  0.00    +0.210 HD
ENDBRANCH  10   2
BRANCH  12   3
ATOM      3  O   UNL     1      13.701   4.196  -0.665  0.00  0.00    -0.389 OA
ATOM     27  H   UNL     1      13.400   3.532  -1.308  0.00  0.00    +0.210 HD
ENDBRANCH  12   3
TORSDOF 8
ENDMDL
MODEL 8
REMARK VINA RESULT:      -6.0     15.955     18.363
REMARK  Name = 11865678
REMARK  8 active torsions:
REMARK  status: ('A' for Active; 'I' for Inactive)
REMARK    1  A    between atoms: O_2  and  C_10
REMARK    2  A    between atoms: O_3  and  C_12
REMARK    3  A    between atoms: N_7  and  C_11
REMARK    4  A    between atoms: N_8  and  C_18
REMARK    5  A    between atoms: C_14  and  C_16
REMARK    6  A    between atoms: C_17  and  C_19
REMARK    7  A    between atoms: C_18  and  C_20
REMARK    8  A    between atoms: C_20  and  C_22
REMARK                            x       y       z     vdW  Elec       q    Type
REMARK                         _______ _______ _______ _____ _____    ______ ____
ROOT
ATOM     10  C   UNL     1      10.184   6.482   7.313  0.00  0.00    +0.167 C 
ATOM     11  C   UNL     1      11.546   6.715   6.632  0.00  0.00    +0.128 C 
ATOM     12  C   UNL     1       9.574   5.134   6.906  0.00  0.00    +0.149 C 
ATOM     13  C   UNL     1       9.436   5.000   5.380  0.00  0.00    +0.074 C 
ATOM     14  C   UNL     1      10.594   5.586   4.622  0.00  0.00    +0.015 C 
ATOM     15  C   UNL     1      11.551   6.349   5.172  0.00  0.00    +0.006 C 
ENDROOT
BRANCH  14  16
ATOM      4  O   UNL     1      10.072   5.945   2.361  0.00  0.00    -0.271 OA
ATOM      8  N   UNL     1      11.560   4.239   2.919  0.00  0.00    -0.311 N 
ATOM     16  C   UNL     1      10.703   5.291   3.191  0.00  0.00    +0.240 C 
ATOM     28  H   UNL     1      12.020   3.734   3.667  0.00  0.00    +0.149 HD
BRANCH   8  18
ATOM     18  C   UNL     1      11.826   3.763   1.581  0.00  0.00    +0.113 C 
BRANCH  18  20
ATOM     20  C   UNL     1      13.201   3.122   1.461  0.00  0.00    +0.114 C 
BRANCH  20  22
ATOM      6  O   UNL     1      14.265   5.290   1.713  0.00  0.00    -0.276 OA
ATOM      9  N   UNL     1      15.475   3.397   2.197  0.00  0.00    -0.329 N 
ATOM     22  C   UNL     1      14.340   4.067   1.797  0.00  0.00    +0.212 C 
ATOM     29  H   UNL     1      15.516   2.384   2.257  0.00  0.00    +0.145 HD
ATOM     30  H   UNL     1      16.319   3.902   2.450  0.00  0.00    +0.145 HD
ENDBRANCH  20  22
ENDBRANCH  18  20
ENDBRANCH   8  18
ENDBRANCH  14  16
BRANCH  11   7
ATOM      5  O   UNL     1      14.225   7.581   6.777  0.00  0.00    -0.270 OA
ATOM      7  N   UNL     1      11.983   8.082   6.771  0.00  0.00    -0.302 N 
ATOM     17  C   UNL     1      13.332   8.429   6.836  0.00  0.00    +0.251 C 
ATOM     25  H   UNL     1      11.266   8.794   6.858  0.00  0.00    +0.150 HD
BRANCH  17  19
ATOM      1  S   UNL     1      15.159  10.401   6.487  0.00  0.00    -0.092 S 
ATOM     19  C   UNL     1      13.621   9.866   6.945  0.00  0.00    +0.074 A 
ATOM     21  C   UNL     1      12.788  10.840   7.374  0.00  0.00    +0.021 A 
ATOM     23  C   UNL     1      13.436  12.108   7.333  0.00  0.00    +0.008 A 
ATOM     24  C   UNL     1      14.729  12.014   6.870  0.00  0.00    +0.046 A 
ENDBRANCH  17  19
ENDBRANCH  11   7
BRANCH  10   2
ATOM      2  O   UNL     1       9.278   7.525   6.946  0.00  0.00    -0.387 OA
ATOM     26  H   UNL     1       9.685   8.370   7.206  0.00  0.00    +0.210 HD
ENDBRANCH  10   2
BRANCH  12   3
ATOM      3  O   UNL     1      10.360   4.064   7.422  0.00  0.00    -0.389 OA
ATOM     27  H   UNL     1      11.292   4.342   7.388  0.00  0.00    +0.210 HD
ENDBRANCH  12   3
TORSDOF 8
ENDMDL
MODEL 9
REMARK VINA RESULT:      -6.0     17.235     21.615
REMARK  Name = 11865678
REMARK  8 active torsions:
REMARK  status: ('A' for Active; 'I' for Inactive)
REMARK    1  A    between atoms: O_2  and  C_10
REMARK    2  A    between atoms: O_3  and  C_12
REMARK    3  A    between atoms: N_7  and  C_11
REMARK    4  A    between atoms: N_8  and  C_18
REMARK    5  A    between atoms: C_14  and  C_16
REMARK    6  A    between atoms: C_17  and  C_19
REMARK    7  A    between atoms: C_18  and  C_20
REMARK    8  A    between atoms: C_20  and  C_22
REMARK                            x       y       z     vdW  Elec       q    Type
REMARK                         _______ _______ _______ _____ _____    ______ ____
ROOT
ATOM     10  C   UNL     1      -1.071  -1.652  24.942  0.00  0.00    +0.167 C 
ATOM     11  C   UNL     1      -0.550  -0.794  23.773  0.00  0.00    +0.128 C 
ATOM     12  C   UNL     1      -2.604  -1.650  25.003  0.00  0.00    +0.149 C 
ATOM     13  C   UNL     1      -3.177  -0.225  25.091  0.00  0.00    +0.074 C 
ATOM     14  C   UNL     1      -2.435   0.770  24.244  0.00  0.00    +0.015 C 
ATOM     15  C   UNL     1      -1.262   0.525  23.641  0.00  0.00    +0.006 C 
ENDROOT
BRANCH  14  16
ATOM      4  O   UNL     1      -3.154   2.568  22.916  0.00  0.00    -0.271 OA
ATOM      8  N   UNL     1      -3.431   2.691  25.227  0.00  0.00    -0.311 N 
ATOM     16  C   UNL     1      -3.037   2.090  24.043  0.00  0.00    +0.240 C 
ATOM     28  H   UNL     1      -3.272   2.239  26.119  0.00  0.00    +0.149 HD
BRANCH   8  18
ATOM     18  C   UNL     1      -4.048   3.996  25.282  0.00  0.00    +0.113 C 
BRANCH  18  20
ATOM     20  C   UNL     1      -5.545   3.915  25.544  0.00  0.00    +0.114 C 
BRANCH  20  22
ATOM      6  O   UNL     1      -6.195   1.745  24.670  0.00  0.00    -0.276 OA
ATOM      9  N   UNL     1      -6.389   2.135  26.926  0.00  0.00    -0.329 N 
ATOM     22  C   UNL     1      -6.065   2.493  25.635  0.00  0.00    +0.212 C 
ATOM     29  H   UNL     1      -6.276   2.771  27.710  0.00  0.00    +0.145 HD
ATOM     30  H   UNL     1      -6.753   1.212  27.137  0.00  0.00    +0.145 HD
ENDBRANCH  20  22
ENDBRANCH  18  20
ENDBRANCH   8  18
ENDBRANCH  14  16
BRANCH  11   7
ATOM      5  O   UNL     1       1.230  -0.438  21.616  0.00  0.00    -0.270 OA
ATOM      7  N   UNL     1       0.867  -0.551  23.882  0.00  0.00    -0.302 N 
ATOM     17  C   UNL     1       1.681  -0.385  22.762  0.00  0.00    +0.251 C 
ATOM     25  H   UNL     1       1.268  -0.539  24.813  0.00  0.00    +0.150 HD
BRANCH  17  19
ATOM      1  S   UNL     1       4.020  -1.341  23.744  0.00  0.00    -0.092 S 
ATOM     19  C   UNL     1       3.100  -0.112  23.035  0.00  0.00    +0.074 A 
ATOM     21  C   UNL     1       3.779   1.029  22.783  0.00  0.00    +0.021 A 
ATOM     23  C   UNL     1       5.139   0.904  23.191  0.00  0.00    +0.008 A 
ATOM     24  C   UNL     1       5.405  -0.335  23.729  0.00  0.00    +0.046 A 
ENDBRANCH  17  19
ENDBRANCH  11   7
BRANCH  10   2
ATOM      2  O   UNL     1      -0.562  -1.142  26.176  0.00  0.00    -0.387 OA
ATOM     26  H   UNL     1      -0.513  -1.884  26.802  0.00  0.00    +0.210 HD
ENDBRANCH  10   2
BRANCH  12   3
ATOM      3  O   UNL     1      -3.141  -2.324  23.867  0.00  0.00    -0.389 OA
ATOM     27  H   UNL     1      -2.840  -3.248  23.906  0.00  0.00    +0.210 HD
ENDBRANCH  12   3
TORSDOF 8
ENDMDL
MODEL 10
REMARK VINA RESULT:      -5.9     33.710     36.205
REMARK  Name = 11865678
REMARK  8 active torsions:
REMARK  status: ('A' for Active; 'I' for Inactive)
REMARK    1  A    between atoms: O_2  and  C_10
REMARK    2  A    between atoms: O_3  and  C_12
REMARK    3  A    between atoms: N_7  and  C_11
REMARK    4  A    between atoms: N_8  and  C_18
REMARK    5  A    between atoms: C_14  and  C_16
REMARK    6  A    between atoms: C_17  and  C_19
REMARK    7  A    between atoms: C_18  and  C_20
REMARK    8  A    between atoms: C_20  and  C_22
REMARK                            x       y       z     vdW  Elec       q    Type
REMARK                         _______ _______ _______ _____ _____    ______ ____
ROOT
ATOM     10  C   UNL     1     -17.143   2.426  25.348  0.00  0.00    +0.167 C 
ATOM     11  C   UNL     1     -16.647   3.817  25.787  0.00  0.00    +0.128 C 
ATOM     12  C   UNL     1     -17.883   1.708  26.484  0.00  0.00    +0.149 C 
ATOM     13  C   UNL     1     -17.020   1.591  27.753  0.00  0.00    +0.074 C 
ATOM     14  C   UNL     1     -16.186   2.812  28.022  0.00  0.00    +0.015 C 
ATOM     15  C   UNL     1     -16.018   3.821  27.153  0.00  0.00    +0.006 C 
ENDROOT
BRANCH  14  16
ATOM      4  O   UNL     1     -14.866   3.920  29.618  0.00  0.00    -0.271 OA
ATOM      8  N   UNL     1     -15.737   1.821  30.135  0.00  0.00    -0.311 N 
ATOM     16  C   UNL     1     -15.527   2.924  29.326  0.00  0.00    +0.240 C 
ATOM     28  H   UNL     1     -16.274   1.027  29.805  0.00  0.00    +0.149 HD
BRANCH   8  18
ATOM     18  C   UNL     1     -15.186   1.701  31.465  0.00  0.00    +0.113 C 
BRANCH  18  20
ATOM     20  C   UNL     1     -14.854   0.259  31.822  0.00  0.00    +0.114 C 
BRANCH  20  22
ATOM      6  O   UNL     1     -14.451  -0.613  29.592  0.00  0.00    -0.276 OA
ATOM      9  N   UNL     1     -15.950  -1.700  30.954  0.00  0.00    -0.329 N 
ATOM     22  C   UNL     1     -15.038  -0.707  30.667  0.00  0.00    +0.212 C 
ATOM     29  H   UNL     1     -16.425  -1.757  31.850  0.00  0.00    +0.145 HD
ATOM     30  H   UNL     1     -16.176  -2.416  30.272  0.00  0.00    +0.145 HD
ENDBRANCH  20  22
ENDBRANCH  18  20
ENDBRANCH   8  18
ENDBRANCH  14  16
BRANCH  11   7
ATOM      5  O   UNL     1     -17.271   5.626  23.715  0.00  0.00    -0.270 OA
ATOM      7  N   UNL     1     -15.710   4.371  24.840  0.00  0.00    -0.302 N 
ATOM     17  C   UNL     1     -16.100   5.262  23.842  0.00  0.00    +0.251 C 
ATOM     25  H   UNL     1     -14.747   4.059  24.902  0.00  0.00    +0.150 HD
BRANCH  17  19
ATOM      1  S   UNL     1     -15.093   7.382  22.484  0.00  0.00    -0.092 S 
ATOM     19  C   UNL     1     -15.025   5.764  22.974  0.00  0.00    +0.074 A 
ATOM     21  C   UNL     1     -13.959   5.078  22.508  0.00  0.00    +0.021 A 
ATOM     23  C   UNL     1     -13.138   5.914  21.697  0.00  0.00    +0.008 A 
ATOM     24  C   UNL     1     -13.639   7.193  21.601  0.00  0.00    +0.046 A 
ENDBRANCH  17  19
ENDBRANCH  11   7
BRANCH  10   2
ATOM      2  O   UNL     1     -16.030   1.625  24.946  0.00  0.00    -0.387 OA
ATOM     26  H   UNL     1     -15.234   2.179  25.005  0.00  0.00    +0.210 HD
ENDBRANCH  10   2
BRANCH  12   3
ATOM      3  O   UNL     1     -19.101   2.386  26.783  0.00  0.00    -0.389 OA
ATOM     27  H   UNL     1     -18.882   3.318  26.955  0.00  0.00    +0.210 HD
ENDBRANCH  12   3
TORSDOF 8
ENDMDL
