MODEL 1
REMARK VINA RESULT:      -7.1      0.000      0.000
REMARK  Name = 45783518
REMARK  4 active torsions:
REMARK  status: ('A' for Active; 'I' for Inactive)
REMARK    1  A    between atoms: N_3  and  C_13
REMARK    2  A    between atoms: C_9  and  C_14
REMARK    3  A    between atoms: C_13  and  C_15
REMARK    4  A    between atoms: C_16  and  C_21
REMARK                            x       y       z     vdW  Elec       q    Type
REMARK                         _______ _______ _______ _____ _____    ______ ____
ROOT
ATOM      1  O   UNL     1     -17.567   2.235  22.094  0.00  0.00    -0.336 OA
ATOM      4  N   UNL     1     -17.237   3.829  23.632  0.00  0.00    -0.190 NA
ATOM      6  N   UNL     1     -17.213   1.570  23.275  0.00  0.00    -0.056 NA
ATOM     14  C   UNL     1     -17.557   3.560  22.392  0.00  0.00    +0.245 A 
ATOM     16  C   UNL     1     -17.036   2.576  24.135  0.00  0.00    +0.204 A 
ENDROOT
BRANCH  16  21
ATOM      2  O   UNL     1     -15.064   1.054  32.120  0.00  0.00    -0.377 OA
ATOM      5  N   UNL     1     -15.585   1.671  29.427  0.00  0.00    -0.311 N 
ATOM      7  N   UNL     1     -16.457   0.859  27.382  0.00  0.00    -0.240 NA
ATOM     18  C   UNL     1     -15.121   0.329  29.806  0.00  0.00    +0.134 C 
ATOM     19  C   UNL     1     -16.232   2.433  30.500  0.00  0.00    +0.134 C 
ATOM     21  C   UNL     1     -16.655   2.365  25.502  0.00  0.00    +0.041 A 
ATOM     22  C   UNL     1     -14.310   0.410  31.094  0.00  0.00    +0.178 C 
ATOM     23  C   UNL     1     -15.362   2.401  31.752  0.00  0.00    +0.178 C 
ATOM     24  C   UNL     1     -15.954   1.890  28.096  0.00  0.00    +0.121 A 
ATOM     25  C   UNL     1     -16.133   3.403  26.268  0.00  0.00    +0.016 A 
ATOM     26  C   UNL     1     -15.773   3.168  27.591  0.00  0.00    +0.044 A 
ATOM     28  C   UNL     1     -16.795   1.124  26.100  0.00  0.00    +0.124 A 
ENDBRANCH  16  21
BRANCH  14   9
ATOM      3  N   UNL     1     -16.720   5.085  20.612  0.00  0.00    -0.287 NA
ATOM      9  C   UNL     1     -17.912   4.507  21.265  0.00  0.00    +0.146 C 
ATOM     10  C   UNL     1     -18.684   3.814  20.126  0.00  0.00    +0.030 C 
ATOM     11  C   UNL     1     -17.882   4.106  18.866  0.00  0.00    +0.017 C 
ATOM     12  C   UNL     1     -17.098   5.353  19.225  0.00  0.00    +0.085 C 
BRANCH   3  13
ATOM     13  C   UNL     1     -16.219   6.277  21.284  0.00  0.00    +0.121 C 
BRANCH  13  15
ATOM      8  N   UNL     1     -12.537   5.560  21.800  0.00  0.00    -0.263 NA
ATOM     15  C   UNL     1     -14.721   6.392  21.178  0.00  0.00    -0.015 A 
ATOM     17  C   UNL     1     -14.131   7.382  20.402  0.00  0.00    +0.008 A 
ATOM     20  C   UNL     1     -13.888   5.513  21.852  0.00  0.00    +0.115 A 
ATOM     27  C   UNL     1     -12.745   7.464  20.323  0.00  0.00    +0.020 A 
ATOM     29  C   UNL     1     -11.999   6.537  21.035  0.00  0.00    +0.111 A 
ENDBRANCH  13  15
ENDBRANCH   3  13
ENDBRANCH  14   9
TORSDOF 4
ENDMDL
MODEL 2
REMARK VINA RESULT:      -7.1     17.940     19.690
REMARK  Name = 45783518
REMARK  4 active torsions:
REMARK  status: ('A' for Active; 'I' for Inactive)
REMARK    1  A    between atoms: N_3  and  C_13
REMARK    2  A    between atoms: C_9  and  C_14
REMARK    3  A    between atoms: C_13  and  C_15
REMARK    4  A    between atoms: C_16  and  C_21
REMARK                            x       y       z     vdW  Elec       q    Type
REMARK                         _______ _______ _______ _____ _____    ______ ____
ROOT
ATOM      1  O   UNL     1      -4.708 -10.742  17.416  0.00  0.00    -0.336 OA
ATOM      4  N   UNL     1      -5.629 -10.263  15.432  0.00  0.00    -0.190 NA
ATOM      6  N   UNL     1      -6.005 -10.289  17.688  0.00  0.00    -0.056 NA
ATOM     14  C   UNL     1      -4.569 -10.696  16.066  0.00  0.00    +0.245 A 
ATOM     16  C   UNL     1      -6.484 -10.027  16.469  0.00  0.00    +0.204 A 
ENDROOT
BRANCH  16  21
ATOM      2  O   UNL     1     -14.147  -7.103  14.830  0.00  0.00    -0.377 OA
ATOM      5  N   UNL     1     -11.626  -8.121  15.545  0.00  0.00    -0.311 N 
ATOM      7  N   UNL     1      -9.709  -9.277  14.777  0.00  0.00    -0.240 NA
ATOM     18  C   UNL     1     -12.492  -8.863  14.618  0.00  0.00    +0.134 C 
ATOM     19  C   UNL     1     -11.897  -6.682  15.635  0.00  0.00    +0.134 C 
ATOM     21  C   UNL     1      -7.811  -9.526  16.252  0.00  0.00    +0.041 A 
ATOM     22  C   UNL     1     -13.951  -8.516  14.887  0.00  0.00    +0.178 C 
ATOM     23  C   UNL     1     -13.389  -6.450  15.848  0.00  0.00    +0.178 C 
ATOM     24  C   UNL     1     -10.332  -8.603  15.769  0.00  0.00    +0.121 A 
ATOM     25  C   UNL     1      -8.484  -8.828  17.250  0.00  0.00    +0.016 A 
ATOM     26  C   UNL     1      -9.770  -8.355  17.011  0.00  0.00    +0.044 A 
ATOM     28  C   UNL     1      -8.461  -9.722  15.045  0.00  0.00    +0.124 A 
ENDBRANCH  16  21
BRANCH  14   9
ATOM      3  N   UNL     1      -2.920 -10.517  14.209  0.00  0.00    -0.287 NA
ATOM      9  C   UNL     1      -3.233 -11.143  15.509  0.00  0.00    +0.146 C 
ATOM     10  C   UNL     1      -2.051 -10.762  16.421  0.00  0.00    +0.030 C 
ATOM     11  C   UNL     1      -1.100  -9.975  15.531  0.00  0.00    +0.017 C 
ATOM     12  C   UNL     1      -1.463 -10.431  14.132  0.00  0.00    +0.085 C 
BRANCH   3  13
ATOM     13  C   UNL     1      -3.489 -11.235  13.075  0.00  0.00    +0.121 C 
BRANCH  13  15
ATOM      8  N   UNL     1      -5.544  -8.817  11.011  0.00  0.00    -0.263 NA
ATOM     15  C   UNL     1      -3.890 -10.301  11.965  0.00  0.00    -0.015 A 
ATOM     17  C   UNL     1      -3.036 -10.046  10.897  0.00  0.00    +0.008 A 
ATOM     20  C   UNL     1      -5.122  -9.667  11.975  0.00  0.00    +0.115 A 
ATOM     27  C   UNL     1      -3.434  -9.179   9.887  0.00  0.00    +0.020 A 
ATOM     29  C   UNL     1      -4.687  -8.595   9.989  0.00  0.00    +0.111 A 
ENDBRANCH  13  15
ENDBRANCH   3  13
ENDBRANCH  14   9
TORSDOF 4
ENDMDL
MODEL 3
REMARK VINA RESULT:      -6.9     14.425     15.991
REMARK  Name = 45783518
REMARK  4 active torsions:
REMARK  status: ('A' for Active; 'I' for Inactive)
REMARK    1  A    between atoms: N_3  and  C_13
REMARK    2  A    between atoms: C_9  and  C_14
REMARK    3  A    between atoms: C_13  and  C_15
REMARK    4  A    between atoms: C_16  and  C_21
REMARK                            x       y       z     vdW  Elec       q    Type
REMARK                         _______ _______ _______ _____ _____    ______ ____
ROOT
ATOM      1  O   UNL     1     -14.188  -5.418  13.905  0.00  0.00    -0.336 OA
ATOM      4  N   UNL     1     -11.965  -5.176  13.779  0.00  0.00    -0.190 NA
ATOM      6  N   UNL     1     -13.640  -6.433  14.699  0.00  0.00    -0.056 NA
ATOM     14  C   UNL     1     -13.133  -4.724  13.402  0.00  0.00    +0.245 A 
ATOM     16  C   UNL     1     -12.326  -6.224  14.575  0.00  0.00    +0.204 A 
ENDROOT
BRANCH  16  21
ATOM      2  O   UNL     1      -6.691 -11.281  18.127  0.00  0.00    -0.377 OA
ATOM      5  N   UNL     1      -8.522  -9.451  17.034  0.00  0.00    -0.311 N 
ATOM      7  N   UNL     1      -9.733  -8.838  15.095  0.00  0.00    -0.240 NA
ATOM     18  C   UNL     1      -7.409  -9.963  16.223  0.00  0.00    +0.134 C 
ATOM     19  C   UNL     1      -8.907 -10.296  18.169  0.00  0.00    +0.134 C 
ATOM     21  C   UNL     1     -11.349  -7.045  15.229  0.00  0.00    +0.041 A 
ATOM     22  C   UNL     1      -6.251 -10.360  17.130  0.00  0.00    +0.178 C 
ATOM     23  C   UNL     1      -7.669 -10.677  18.972  0.00  0.00    +0.178 C 
ATOM     24  C   UNL     1      -9.478  -8.644  16.408  0.00  0.00    +0.121 A 
ATOM     25  C   UNL     1     -11.059  -6.875  16.579  0.00  0.00    +0.016 A 
ATOM     26  C   UNL     1     -10.106  -7.686  17.187  0.00  0.00    +0.044 A 
ATOM     28  C   UNL     1     -10.665  -8.032  14.538  0.00  0.00    +0.124 A 
ENDBRANCH  16  21
BRANCH  14   9
ATOM      3  N   UNL     1     -13.230  -3.856  11.071  0.00  0.00    -0.287 NA
ATOM      9  C   UNL     1     -13.465  -3.555  12.497  0.00  0.00    +0.146 C 
ATOM     10  C   UNL     1     -14.949  -3.149  12.572  0.00  0.00    +0.030 C 
ATOM     11  C   UNL     1     -15.446  -3.193  11.134  0.00  0.00    +0.017 C 
ATOM     12  C   UNL     1     -14.180  -3.041  10.315  0.00  0.00    +0.085 C 
BRANCH   3  13
ATOM     13  C   UNL     1     -11.853  -3.622  10.655  0.00  0.00    +0.121 C 
BRANCH  13  15
ATOM      8  N   UNL     1     -11.298  -7.162   9.433  0.00  0.00    -0.263 NA
ATOM     15  C   UNL     1     -11.297  -4.785   9.876  0.00  0.00    -0.015 A 
ATOM     17  C   UNL     1     -10.312  -4.598   8.914  0.00  0.00    +0.008 A 
ATOM     20  C   UNL     1     -11.753  -6.075  10.096  0.00  0.00    +0.115 A 
ATOM     27  C   UNL     1      -9.818  -5.691   8.210  0.00  0.00    +0.020 A 
ATOM     29  C   UNL     1     -10.339  -6.942   8.505  0.00  0.00    +0.111 A 
ENDBRANCH  13  15
ENDBRANCH   3  13
ENDBRANCH  14   9
TORSDOF 4
ENDMDL
MODEL 4
REMARK VINA RESULT:      -6.9     32.738     36.922
REMARK  Name = 45783518
REMARK  4 active torsions:
REMARK  status: ('A' for Active; 'I' for Inactive)
REMARK    1  A    between atoms: N_3  and  C_13
REMARK    2  A    between atoms: C_9  and  C_14
REMARK    3  A    between atoms: C_13  and  C_15
REMARK    4  A    between atoms: C_16  and  C_21
REMARK                            x       y       z     vdW  Elec       q    Type
REMARK                         _______ _______ _______ _____ _____    ______ ____
ROOT
ATOM      1  O   UNL     1      20.942   6.043  23.172  0.00  0.00    -0.336 OA
ATOM      4  N   UNL     1      20.560   5.899  20.970  0.00  0.00    -0.190 NA
ATOM      6  N   UNL     1      19.646   6.534  22.969  0.00  0.00    -0.056 NA
ATOM     14  C   UNL     1      21.408   5.691  21.946  0.00  0.00    +0.245 A 
ATOM     16  C   UNL     1      19.494   6.416  21.647  0.00  0.00    +0.204 A 
ENDROOT
BRANCH  16  21
ATOM      2  O   UNL     1      12.391   8.918  18.007  0.00  0.00    -0.377 OA
ATOM      5  N   UNL     1      14.829   8.013  19.074  0.00  0.00    -0.311 N 
ATOM      7  N   UNL     1      16.528   8.433  20.668  0.00  0.00    -0.240 NA
ATOM     18  C   UNL     1      14.582   9.451  18.902  0.00  0.00    +0.134 C 
ATOM     19  C   UNL     1      13.625   7.179  19.164  0.00  0.00    +0.134 C 
ATOM     21  C   UNL     1      18.291   6.808  20.971  0.00  0.00    +0.041 A 
ATOM     22  C   UNL     1      13.581   9.669  17.773  0.00  0.00    +0.178 C 
ATOM     23  C   UNL     1      12.675   7.519  18.022  0.00  0.00    +0.178 C 
ATOM     24  C   UNL     1      16.001   7.618  19.727  0.00  0.00    +0.121 A 
ATOM     25  C   UNL     1      17.720   5.996  19.996  0.00  0.00    +0.016 A 
ATOM     26  C   UNL     1      16.553   6.402  19.357  0.00  0.00    +0.044 A 
ATOM     28  C   UNL     1      17.661   8.006  21.267  0.00  0.00    +0.124 A 
ENDBRANCH  16  21
BRANCH  14   9
ATOM      3  N   UNL     1      23.004   4.188  20.767  0.00  0.00    -0.287 NA
ATOM      9  C   UNL     1      22.810   5.122  21.895  0.00  0.00    +0.146 C 
ATOM     10  C   UNL     1      23.885   6.206  21.694  0.00  0.00    +0.030 C 
ATOM     11  C   UNL     1      24.670   5.766  20.466  0.00  0.00    +0.017 C 
ATOM     12  C   UNL     1      24.416   4.273  20.399  0.00  0.00    +0.085 C 
BRANCH   3  13
ATOM     13  C   UNL     1      22.599   2.823  21.076  0.00  0.00    +0.121 C 
BRANCH  13  15
ATOM      8  N   UNL     1      24.633   1.674  24.054  0.00  0.00    -0.263 NA
ATOM     15  C   UNL     1      23.637   2.101  21.893  0.00  0.00    -0.015 A 
ATOM     17  C   UNL     1      24.535   1.223  21.297  0.00  0.00    +0.008 A 
ATOM     20  C   UNL     1      23.727   2.291  23.263  0.00  0.00    +0.115 A 
ATOM     27  C   UNL     1      25.482   0.570  22.077  0.00  0.00    +0.020 A 
ATOM     29  C   UNL     1      25.490   0.828  23.440  0.00  0.00    +0.111 A 
ENDBRANCH  13  15
ENDBRANCH   3  13
ENDBRANCH  14   9
TORSDOF 4
ENDMDL
MODEL 5
REMARK VINA RESULT:      -6.8     31.106     35.198
REMARK  Name = 45783518
REMARK  4 active torsions:
REMARK  status: ('A' for Active; 'I' for Inactive)
REMARK    1  A    between atoms: N_3  and  C_13
REMARK    2  A    between atoms: C_9  and  C_14
REMARK    3  A    between atoms: C_13  and  C_15
REMARK    4  A    between atoms: C_16  and  C_21
REMARK                            x       y       z     vdW  Elec       q    Type
REMARK                         _______ _______ _______ _____ _____    ______ ____
ROOT
ATOM      1  O   UNL     1      20.946   7.914  21.487  0.00  0.00    -0.336 OA
ATOM      4  N   UNL     1      19.438   6.274  21.714  0.00  0.00    -0.190 NA
ATOM      6  N   UNL     1      19.695   8.503  21.267  0.00  0.00    -0.056 NA
ATOM     14  C   UNL     1      20.705   6.602  21.744  0.00  0.00    +0.245 A 
ATOM     16  C   UNL     1      18.857   7.474  21.419  0.00  0.00    +0.204 A 
ENDROOT
BRANCH  16  21
ATOM      2  O   UNL     1      10.572   7.953  20.377  0.00  0.00    -0.377 OA
ATOM      5  N   UNL     1      13.341   7.907  20.860  0.00  0.00    -0.311 N 
ATOM      7  N   UNL     1      15.300   6.579  20.811  0.00  0.00    -0.240 NA
ATOM     18  C   UNL     1      12.511   6.738  21.183  0.00  0.00    +0.134 C 
ATOM     19  C   UNL     1      12.780   8.812  19.852  0.00  0.00    +0.134 C 
ATOM     21  C   UNL     1      17.436   7.608  21.280  0.00  0.00    +0.041 A 
ATOM     22  C   UNL     1      11.082   7.185  21.467  0.00  0.00    +0.178 C 
ATOM     23  C   UNL     1      11.335   9.147  20.206  0.00  0.00    +0.178 C 
ATOM     24  C   UNL     1      14.728   7.789  20.998  0.00  0.00    +0.121 A 
ATOM     25  C   UNL     1      16.812   8.838  21.465  0.00  0.00    +0.016 A 
ATOM     26  C   UNL     1      15.432   8.938  21.323  0.00  0.00    +0.044 A 
ATOM     28  C   UNL     1      16.642   6.520  20.957  0.00  0.00    +0.124 A 
ENDBRANCH  16  21
BRANCH  14   9
ATOM      3  N   UNL     1      21.937   5.214  23.402  0.00  0.00    -0.287 NA
ATOM      9  C   UNL     1      21.915   5.734  22.020  0.00  0.00    +0.146 C 
ATOM     10  C   UNL     1      21.963   4.479  21.129  0.00  0.00    +0.030 C 
ATOM     11  C   UNL     1      22.071   3.309  22.095  0.00  0.00    +0.017 C 
ATOM     12  C   UNL     1      22.645   3.936  23.350  0.00  0.00    +0.085 C 
BRANCH   3  13
ATOM     13  C   UNL     1      22.541   6.138  24.354  0.00  0.00    +0.121 C 
BRANCH  13  15
ATOM      8  N   UNL     1      20.032   6.990  27.057  0.00  0.00    -0.263 NA
ATOM     15  C   UNL     1      21.821   6.131  25.676  0.00  0.00    -0.015 A 
ATOM     17  C   UNL     1      22.237   5.306  26.715  0.00  0.00    +0.008 A 
ATOM     20  C   UNL     1      20.723   6.947  25.895  0.00  0.00    +0.115 A 
ATOM     27  C   UNL     1      21.552   5.322  27.924  0.00  0.00    +0.020 A 
ATOM     29  C   UNL     1      20.465   6.174  28.044  0.00  0.00    +0.111 A 
ENDBRANCH  13  15
ENDBRANCH   3  13
ENDBRANCH  14   9
TORSDOF 4
ENDMDL
MODEL 6
REMARK VINA RESULT:      -6.8     18.811     19.950
REMARK  Name = 45783518
REMARK  4 active torsions:
REMARK  status: ('A' for Active; 'I' for Inactive)
REMARK    1  A    between atoms: N_3  and  C_13
REMARK    2  A    between atoms: C_9  and  C_14
REMARK    3  A    between atoms: C_13  and  C_15
REMARK    4  A    between atoms: C_16  and  C_21
REMARK                            x       y       z     vdW  Elec       q    Type
REMARK                         _______ _______ _______ _____ _____    ______ ____
ROOT
ATOM      1  O   UNL     1      -5.026  -9.900  16.067  0.00  0.00    -0.336 OA
ATOM      4  N   UNL     1      -5.145 -11.979  16.891  0.00  0.00    -0.190 NA
ATOM      6  N   UNL     1      -6.221  -9.963  16.796  0.00  0.00    -0.056 NA
ATOM     14  C   UNL     1      -4.455 -11.128  16.175  0.00  0.00    +0.245 A 
ATOM     16  C   UNL     1      -6.220 -11.219  17.251  0.00  0.00    +0.204 A 
ENDROOT
BRANCH  16  21
ATOM      2  O   UNL     1     -12.317 -14.006  22.252  0.00  0.00    -0.377 OA
ATOM      5  N   UNL     1     -10.329 -13.177  20.446  0.00  0.00    -0.311 N 
ATOM      7  N   UNL     1      -8.971 -11.368  19.748  0.00  0.00    -0.240 NA
ATOM     18  C   UNL     1     -11.416 -12.263  20.827  0.00  0.00    +0.134 C 
ATOM     19  C   UNL     1     -10.059 -14.256  21.400  0.00  0.00    +0.134 C 
ATOM     21  C   UNL     1      -7.276 -11.745  18.066  0.00  0.00    +0.041 A 
ATOM     22  C   UNL     1     -12.646 -13.067  21.230  0.00  0.00    +0.178 C 
ATOM     23  C   UNL     1     -11.362 -14.954  21.774  0.00  0.00    +0.178 C 
ATOM     24  C   UNL     1      -9.296 -12.676  19.647  0.00  0.00    +0.121 A 
ATOM     25  C   UNL     1      -7.640 -13.086  17.989  0.00  0.00    +0.016 A 
ATOM     26  C   UNL     1      -8.669 -13.568  18.791  0.00  0.00    +0.044 A 
ATOM     28  C   UNL     1      -7.967 -10.936  18.953  0.00  0.00    +0.124 A 
ENDBRANCH  16  21
BRANCH  14   9
ATOM      3  N   UNL     1      -3.043 -10.547  14.210  0.00  0.00    -0.287 NA
ATOM      9  C   UNL     1      -3.132 -11.322  15.464  0.00  0.00    +0.146 C 
ATOM     10  C   UNL     1      -1.931 -10.847  16.303  0.00  0.00    +0.030 C 
ATOM     11  C   UNL     1      -1.194  -9.853  15.416  0.00  0.00    +0.017 C 
ATOM     12  C   UNL     1      -1.628 -10.237  14.016  0.00  0.00    +0.085 C 
BRANCH   3  13
ATOM     13  C   UNL     1      -3.615 -11.243  13.064  0.00  0.00    +0.121 C 
BRANCH  13  15
ATOM      8  N   UNL     1      -5.638  -8.728  11.085  0.00  0.00    -0.263 NA
ATOM     15  C   UNL     1      -4.017 -10.287  11.972  0.00  0.00    -0.015 A 
ATOM     17  C   UNL     1      -3.193 -10.067  10.873  0.00  0.00    +0.008 A 
ATOM     20  C   UNL     1      -5.218  -9.599  12.030  0.00  0.00    +0.115 A 
ATOM     27  C   UNL     1      -3.590  -9.179   9.880  0.00  0.00    +0.020 A 
ATOM     29  C   UNL     1      -4.811  -8.540  10.031  0.00  0.00    +0.111 A 
ENDBRANCH  13  15
ENDBRANCH   3  13
ENDBRANCH  14   9
TORSDOF 4
ENDMDL
MODEL 7
REMARK VINA RESULT:      -6.8     33.389     37.495
REMARK  Name = 45783518
REMARK  4 active torsions:
REMARK  status: ('A' for Active; 'I' for Inactive)
REMARK    1  A    between atoms: N_3  and  C_13
REMARK    2  A    between atoms: C_9  and  C_14
REMARK    3  A    between atoms: C_13  and  C_15
REMARK    4  A    between atoms: C_16  and  C_21
REMARK                            x       y       z     vdW  Elec       q    Type
REMARK                         _______ _______ _______ _____ _____    ______ ____
ROOT
ATOM      1  O   UNL     1      22.486   5.171  22.983  0.00  0.00    -0.336 OA
ATOM      4  N   UNL     1      21.860   5.291  20.836  0.00  0.00    -0.190 NA
ATOM      6  N   UNL     1      21.189   5.698  22.985  0.00  0.00    -0.056 NA
ATOM     14  C   UNL     1      22.804   4.960  21.679  0.00  0.00    +0.245 A 
ATOM     16  C   UNL     1      20.888   5.737  21.684  0.00  0.00    +0.204 A 
ENDROOT
BRANCH  16  21
ATOM      2  O   UNL     1      13.465   8.686  19.200  0.00  0.00    -0.377 OA
ATOM      5  N   UNL     1      16.001   7.670  19.865  0.00  0.00    -0.311 N 
ATOM      7  N   UNL     1      17.800   7.789  21.398  0.00  0.00    -0.240 NA
ATOM     18  C   UNL     1      15.700   9.097  20.048  0.00  0.00    +0.134 C 
ATOM     19  C   UNL     1      14.832   6.785  19.837  0.00  0.00    +0.134 C 
ATOM     21  C   UNL     1      19.627   6.219  21.198  0.00  0.00    +0.041 A 
ATOM     22  C   UNL     1      14.613   9.524  19.069  0.00  0.00    +0.178 C 
ATOM     23  C   UNL     1      13.790   7.336  18.870  0.00  0.00    +0.178 C 
ATOM     24  C   UNL     1      17.229   7.190  20.330  0.00  0.00    +0.121 A 
ATOM     25  C   UNL     1      19.009   5.628  20.101  0.00  0.00    +0.016 A 
ATOM     26  C   UNL     1      17.787   6.117  19.652  0.00  0.00    +0.044 A 
ATOM     28  C   UNL     1      18.987   7.287  21.806  0.00  0.00    +0.124 A 
ENDBRANCH  16  21
BRANCH  14   9
ATOM      3  N   UNL     1      24.321   2.998  21.893  0.00  0.00    -0.287 NA
ATOM      9  C   UNL     1      24.178   4.384  21.405  0.00  0.00    +0.146 C 
ATOM     10  C   UNL     1      24.500   4.305  19.901  0.00  0.00    +0.030 C 
ATOM     11  C   UNL     1      24.869   2.850  19.649  0.00  0.00    +0.017 C 
ATOM     12  C   UNL     1      25.295   2.350  21.015  0.00  0.00    +0.085 C 
BRANCH   3  13
ATOM     13  C   UNL     1      24.709   2.920  23.295  0.00  0.00    +0.121 C 
BRANCH  13  15
ATOM      8  N   UNL     1      21.829   1.245  25.094  0.00  0.00    -0.263 NA
ATOM     15  C   UNL     1      23.910   1.884  24.041  0.00  0.00    -0.015 A 
ATOM     17  C   UNL     1      24.462   0.650  24.367  0.00  0.00    +0.008 A 
ATOM     20  C   UNL     1      22.601   2.130  24.424  0.00  0.00    +0.115 A 
ATOM     27  C   UNL     1      23.700  -0.286  25.055  0.00  0.00    +0.020 A 
ATOM     29  C   UNL     1      22.400   0.056  25.393  0.00  0.00    +0.111 A 
ENDBRANCH  13  15
ENDBRANCH   3  13
ENDBRANCH  14   9
TORSDOF 4
ENDMDL
MODEL 8
REMARK VINA RESULT:      -6.7     15.312     16.660
REMARK  Name = 45783518
REMARK  4 active torsions:
REMARK  status: ('A' for Active; 'I' for Inactive)
REMARK    1  A    between atoms: N_3  and  C_13
REMARK    2  A    between atoms: C_9  and  C_14
REMARK    3  A    between atoms: C_13  and  C_15
REMARK    4  A    between atoms: C_16  and  C_21
REMARK                            x       y       z     vdW  Elec       q    Type
REMARK                         _______ _______ _______ _____ _____    ______ ____
ROOT
ATOM      1  O   UNL     1     -12.254  -7.920  13.559  0.00  0.00    -0.336 OA
ATOM      4  N   UNL     1     -11.243  -7.236  15.437  0.00  0.00    -0.190 NA
ATOM      6  N   UNL     1     -11.159  -8.774  13.745  0.00  0.00    -0.056 NA
ATOM     14  C   UNL     1     -12.230  -7.045  14.599  0.00  0.00    +0.245 A 
ATOM     16  C   UNL     1     -10.614  -8.307  14.872  0.00  0.00    +0.204 A 
ENDROOT
BRANCH  16  21
ATOM      2  O   UNL     1      -3.765 -11.399  18.545  0.00  0.00    -0.377 OA
ATOM      5  N   UNL     1      -6.084 -10.514  17.226  0.00  0.00    -0.311 N 
ATOM      7  N   UNL     1      -8.014  -9.154  17.392  0.00  0.00    -0.240 NA
ATOM     18  C   UNL     1      -6.110 -10.793  18.668  0.00  0.00    +0.134 C 
ATOM     19  C   UNL     1      -4.759 -10.220  16.671  0.00  0.00    +0.134 C 
ATOM     21  C   UNL     1      -9.440  -8.887  15.459  0.00  0.00    +0.041 A 
ATOM     22  C   UNL     1      -5.044 -11.826  19.012  0.00  0.00    +0.178 C 
ATOM     23  C   UNL     1      -3.764 -11.284  17.122  0.00  0.00    +0.178 C 
ATOM     24  C   UNL     1      -7.225  -9.954  16.641  0.00  0.00    +0.121 A 
ATOM     25  C   UNL     1      -8.604  -9.716  14.718  0.00  0.00    +0.016 A 
ATOM     26  C   UNL     1      -7.473 -10.264  15.314  0.00  0.00    +0.044 A 
ATOM     28  C   UNL     1      -9.104  -8.640  16.780  0.00  0.00    +0.124 A 
ENDBRANCH  16  21
BRANCH  14   9
ATOM      3  N   UNL     1     -13.624  -5.451  13.291  0.00  0.00    -0.287 NA
ATOM      9  C   UNL     1     -13.328  -6.003  14.628  0.00  0.00    +0.146 C 
ATOM     10  C   UNL     1     -14.672  -6.569  15.125  0.00  0.00    +0.030 C 
ATOM     11  C   UNL     1     -15.673  -6.236  14.027  0.00  0.00    +0.017 C 
ATOM     12  C   UNL     1     -15.035  -5.066  13.306  0.00  0.00    +0.085 C 
BRANCH   3  13
ATOM     13  C   UNL     1     -12.756  -4.341  12.923  0.00  0.00    +0.121 C 
BRANCH  13  15
ATOM      8  N   UNL     1     -11.659  -5.927   9.664  0.00  0.00    -0.263 NA
ATOM     15  C   UNL     1     -12.227  -4.484  11.520  0.00  0.00    -0.015 A 
ATOM     17  C   UNL     1     -11.827  -3.372  10.787  0.00  0.00    +0.008 A 
ATOM     20  C   UNL     1     -12.124  -5.728  10.918  0.00  0.00    +0.115 A 
ATOM     27  C   UNL     1     -11.344  -3.535   9.494  0.00  0.00    +0.020 A 
ATOM     29  C   UNL     1     -11.279  -4.822   8.983  0.00  0.00    +0.111 A 
ENDBRANCH  13  15
ENDBRANCH   3  13
ENDBRANCH  14   9
TORSDOF 4
ENDMDL
MODEL 9
REMARK VINA RESULT:      -6.5     17.587     19.941
REMARK  Name = 45783518
REMARK  4 active torsions:
REMARK  status: ('A' for Active; 'I' for Inactive)
REMARK    1  A    between atoms: N_3  and  C_13
REMARK    2  A    between atoms: C_9  and  C_14
REMARK    3  A    between atoms: C_13  and  C_15
REMARK    4  A    between atoms: C_16  and  C_21
REMARK                            x       y       z     vdW  Elec       q    Type
REMARK                         _______ _______ _______ _____ _____    ______ ____
ROOT
ATOM      1  O   UNL     1      -9.710 -11.004  20.390  0.00  0.00    -0.336 OA
ATOM      4  N   UNL     1      -9.617 -11.187  18.160  0.00  0.00    -0.190 NA
ATOM      6  N   UNL     1      -8.350 -11.030  20.058  0.00  0.00    -0.056 NA
ATOM     14  C   UNL     1     -10.386 -11.101  19.215  0.00  0.00    +0.245 A 
ATOM     16  C   UNL     1      -8.376 -11.138  18.727  0.00  0.00    +0.204 A 
ENDROOT
BRANCH  16  21
ATOM      2  O   UNL     1      -1.335 -11.852  14.270  0.00  0.00    -0.377 OA
ATOM      5  N   UNL     1      -3.750 -11.481  15.660  0.00  0.00    -0.311 N 
ATOM      7  N   UNL     1      -5.465 -12.548  16.893  0.00  0.00    -0.240 NA
ATOM     18  C   UNL     1      -3.543 -12.681  14.836  0.00  0.00    +0.134 C 
ATOM     19  C   UNL     1      -2.523 -10.818  16.115  0.00  0.00    +0.134 C 
ATOM     21  C   UNL     1      -7.182 -11.203  17.934  0.00  0.00    +0.041 A 
ATOM     22  C   UNL     1      -2.545 -12.376  13.725  0.00  0.00    +0.178 C 
ATOM     23  C   UNL     1      -1.579 -10.614  14.935  0.00  0.00    +0.178 C 
ATOM     24  C   UNL     1      -4.913 -11.404  16.433  0.00  0.00    +0.121 A 
ATOM     25  C   UNL     1      -6.585 -10.046  17.443  0.00  0.00    +0.016 A 
ATOM     26  C   UNL     1      -5.428 -10.141  16.676  0.00  0.00    +0.044 A 
ATOM     28  C   UNL     1      -6.588 -12.418  17.633  0.00  0.00    +0.124 A 
ENDBRANCH  16  21
BRANCH  14   9
ATOM      3  N   UNL     1     -12.394 -11.658  20.576  0.00  0.00    -0.287 NA
ATOM      9  C   UNL     1     -11.898 -11.094  19.305  0.00  0.00    +0.146 C 
ATOM     10  C   UNL     1     -12.490  -9.674  19.249  0.00  0.00    +0.030 C 
ATOM     11  C   UNL     1     -13.351  -9.553  20.498  0.00  0.00    +0.017 C 
ATOM     12  C   UNL     1     -13.665 -10.992  20.855  0.00  0.00    +0.085 C 
BRANCH   3  13
ATOM     13  C   UNL     1     -12.529 -13.109  20.546  0.00  0.00    +0.121 C 
BRANCH  13  15
ATOM      8  N   UNL     1      -9.973 -14.901  22.688  0.00  0.00    -0.263 NA
ATOM     15  C   UNL     1     -11.881 -13.757  21.741  0.00  0.00    -0.015 A 
ATOM     17  C   UNL     1     -12.537 -13.823  22.965  0.00  0.00    +0.008 A 
ATOM     20  C   UNL     1     -10.612 -14.306  21.655  0.00  0.00    +0.115 A 
ATOM     27  C   UNL     1     -11.913 -14.427  24.050  0.00  0.00    +0.020 A 
ATOM     29  C   UNL     1     -10.642 -14.947  23.862  0.00  0.00    +0.111 A 
ENDBRANCH  13  15
ENDBRANCH   3  13
ENDBRANCH  14   9
TORSDOF 4
ENDMDL
MODEL 10
REMARK VINA RESULT:      -6.5     32.199     36.296
REMARK  Name = 45783518
REMARK  4 active torsions:
REMARK  status: ('A' for Active; 'I' for Inactive)
REMARK    1  A    between atoms: N_3  and  C_13
REMARK    2  A    between atoms: C_9  and  C_14
REMARK    3  A    between atoms: C_13  and  C_15
REMARK    4  A    between atoms: C_16  and  C_21
REMARK                            x       y       z     vdW  Elec       q    Type
REMARK                         _______ _______ _______ _____ _____    ______ ____
ROOT
ATOM      1  O   UNL     1      21.411   7.193  21.434  0.00  0.00    -0.336 OA
ATOM      4  N   UNL     1      19.666   6.675  22.738  0.00  0.00    -0.190 NA
ATOM      6  N   UNL     1      20.265   7.545  20.710  0.00  0.00    -0.056 NA
ATOM     14  C   UNL     1      20.969   6.689  22.616  0.00  0.00    +0.245 A 
ATOM     16  C   UNL     1      19.278   7.210  21.545  0.00  0.00    +0.204 A 
ENDROOT
BRANCH  16  21
ATOM      2  O   UNL     1      11.197   7.925  19.510  0.00  0.00    -0.377 OA
ATOM      5  N   UNL     1      13.898   7.837  20.281  0.00  0.00    -0.311 N 
ATOM      7  N   UNL     1      15.707   6.427  20.865  0.00  0.00    -0.240 NA
ATOM     18  C   UNL     1      12.929   6.898  20.862  0.00  0.00    +0.134 C 
ATOM     19  C   UNL     1      13.516   8.407  18.985  0.00  0.00    +0.134 C 
ATOM     21  C   UNL     1      17.894   7.395  21.216  0.00  0.00    +0.041 A 
ATOM     22  C   UNL     1      11.535   7.514  20.834  0.00  0.00    +0.178 C 
ATOM     23  C   UNL     1      12.090   8.942  19.056  0.00  0.00    +0.178 C 
ATOM     24  C   UNL     1      15.250   7.671  20.599  0.00  0.00    +0.121 A 
ATOM     25  C   UNL     1      17.387   8.661  20.937  0.00  0.00    +0.016 A 
ATOM     26  C   UNL     1      16.040   8.809  20.622  0.00  0.00    +0.044 A 
ATOM     28  C   UNL     1      17.020   6.321  21.167  0.00  0.00    +0.124 A 
ENDBRANCH  16  21
BRANCH  14   9
ATOM      3  N   UNL     1      22.881   5.154  23.043  0.00  0.00    -0.287 NA
ATOM      9  C   UNL     1      22.031   6.229  23.593  0.00  0.00    +0.146 C 
ATOM     10  C   UNL     1      23.015   7.352  23.973  0.00  0.00    +0.030 C 
ATOM     11  C   UNL     1      24.395   6.794  23.656  0.00  0.00    +0.017 C 
ATOM     12  C   UNL     1      24.187   5.293  23.685  0.00  0.00    +0.085 C 
BRANCH   3  13
ATOM     13  C   UNL     1      22.316   3.824  23.229  0.00  0.00    +0.121 C 
BRANCH  13  15
ATOM      8  N   UNL     1      24.536   0.769  22.965  0.00  0.00    -0.263 NA
ATOM     15  C   UNL     1      23.195   2.754  22.637  0.00  0.00    -0.015 A 
ATOM     17  C   UNL     1      23.485   2.735  21.278  0.00  0.00    +0.008 A 
ATOM     20  C   UNL     1      23.741   1.758  23.431  0.00  0.00    +0.115 A 
ATOM     27  C   UNL     1      24.300   1.734  20.760  0.00  0.00    +0.020 A 
ATOM     29  C   UNL     1      24.796   0.783  21.638  0.00  0.00    +0.111 A 
ENDBRANCH  13  15
ENDBRANCH   3  13
ENDBRANCH  14   9
TORSDOF 4
ENDMDL
