MODEL 1
REMARK VINA RESULT:      -7.1      0.000      0.000
REMARK  Name = 40777601
REMARK  9 active torsions:
REMARK  status: ('A' for Active; 'I' for Inactive)
REMARK    1  A    between atoms: N_2  and  C_8
REMARK    2  A    between atoms: N_3  and  C_15
REMARK    3  A    between atoms: N_5  and  C_19
REMARK    4  A    between atoms: C_6  and  C_9
REMARK    5  A    between atoms: C_12  and  C_14
REMARK    6  A    between atoms: C_13  and  C_16
REMARK    7  A    between atoms: C_15  and  C_18
REMARK    8  A    between atoms: C_19  and  C_22
REMARK    9  A    between atoms: C_19  and  C_23
REMARK                            x       y       z     vdW  Elec       q    Type
REMARK                         _______ _______ _______ _____ _____    ______ ____
ROOT
ATOM      6  C   UNL     1     -13.178   8.269  20.650  0.00  0.00    +0.047 C 
ATOM      7  C   UNL     1     -12.151   9.120  19.875  0.00  0.00    +0.039 C 
ATOM      8  C   UNL     1     -11.222   8.121  19.175  0.00  0.00    +0.098 C 
ATOM     10  C   UNL     1     -12.469   6.954  20.788  0.00  0.00    -0.021 C 
ATOM     11  C   UNL     1     -11.406   6.876  19.979  0.00  0.00    -0.009 C 
ENDROOT
BRANCH   6   9
ATOM      3  N   UNL     1     -13.814  10.191  23.703  0.00  0.00    -0.264 N 
ATOM      4  N   UNL     1     -14.734   9.234  23.914  0.00  0.00    -0.176 NA
ATOM      9  C   UNL     1     -13.608   8.895  21.956  0.00  0.00    +0.003 A 
ATOM     12  C   UNL     1     -13.112  10.033  22.544  0.00  0.00    +0.041 A 
ATOM     13  C   UNL     1     -14.604   8.447  22.844  0.00  0.00    +0.064 A 
ATOM     14  C   UNL     1     -12.054  10.969  22.116  0.00  0.00    +0.065 C 
ATOM     16  C   UNL     1     -15.465   7.258  22.711  0.00  0.00    +0.068 C 
BRANCH   3  15
ATOM     15  C   UNL     1     -13.659  11.248  24.675  0.00  0.00    +0.178 C 
BRANCH  15  18
ATOM     18  C   UNL     1     -12.778  10.865  25.839  0.00  0.00    -0.026 A 
ATOM     20  C   UNL     1     -13.341  10.641  27.095  0.00  0.00    +0.005 A 
ATOM     21  C   UNL     1     -11.402  10.734  25.658  0.00  0.00    +0.005 A 
ATOM     24  C   UNL     1     -12.527  10.287  28.171  0.00  0.00    +0.000 A 
ATOM     25  C   UNL     1     -10.588  10.380  26.734  0.00  0.00    +0.000 A 
ATOM     26  C   UNL     1     -11.150  10.157  27.991  0.00  0.00    +0.000 A 
ENDBRANCH  15  18
ENDBRANCH   3  15
ENDBRANCH   6   9
BRANCH   8   2
ATOM      1  O   UNL     1     -10.015   9.209  16.789  0.00  0.00    -0.253 OA
ATOM      2  N   UNL     1     -11.608   7.863  17.812  0.00  0.00    -0.293 N 
ATOM      5  N   UNL     1     -11.542   8.016  15.513  0.00  0.00    -0.297 N 
ATOM     17  C   UNL     1     -10.967   8.435  16.711  0.00  0.00    +0.300 C 
ATOM     27  H   UNL     1     -12.418   7.275  17.635  0.00  0.00    +0.151 HD
ATOM     28  H   UNL     1     -12.276   7.315  15.549  0.00  0.00    +0.150 HD
BRANCH   5  19
ATOM     19  C   UNL     1     -11.069   8.458  14.222  0.00  0.00    +0.068 C 
ATOM     22  C   UNL     1     -12.229   8.975  13.382  0.00  0.00    +0.027 C 
ATOM     23  C   UNL     1     -10.330   7.332  13.510  0.00  0.00    +0.027 C 
ENDBRANCH   5  19
ENDBRANCH   8   2
TORSDOF 5
ENDMDL
MODEL 2
REMARK VINA RESULT:      -6.5     28.312     30.466
REMARK  Name = 40777601
REMARK  9 active torsions:
REMARK  status: ('A' for Active; 'I' for Inactive)
REMARK    1  A    between atoms: N_2  and  C_8
REMARK    2  A    between atoms: N_3  and  C_15
REMARK    3  A    between atoms: N_5  and  C_19
REMARK    4  A    between atoms: C_6  and  C_9
REMARK    5  A    between atoms: C_12  and  C_14
REMARK    6  A    between atoms: C_13  and  C_16
REMARK    7  A    between atoms: C_15  and  C_18
REMARK    8  A    between atoms: C_19  and  C_22
REMARK    9  A    between atoms: C_19  and  C_23
REMARK                            x       y       z     vdW  Elec       q    Type
REMARK                         _______ _______ _______ _____ _____    ______ ____
ROOT
ATOM      6  C   UNL     1       1.104   5.375  -5.645  0.00  0.00    +0.047 C 
ATOM      7  C   UNL     1       1.733   4.211  -6.438  0.00  0.00    +0.039 C 
ATOM      8  C   UNL     1       1.191   2.928  -5.798  0.00  0.00    +0.098 C 
ATOM     10  C   UNL     1       0.730   4.718  -4.349  0.00  0.00    -0.021 C 
ATOM     11  C   UNL     1       0.775   3.385  -4.438  0.00  0.00    -0.009 C 
ENDROOT
BRANCH   6   9
ATOM      3  N   UNL     1       3.622   7.938  -4.929  0.00  0.00    -0.264 N 
ATOM      4  N   UNL     1       2.907   8.651  -5.816  0.00  0.00    -0.176 NA
ATOM      9  C   UNL     1       2.021   6.568  -5.508  0.00  0.00    +0.003 A 
ATOM     12  C   UNL     1       3.132   6.684  -4.708  0.00  0.00    +0.041 A 
ATOM     13  C   UNL     1       1.932   7.810  -6.166  0.00  0.00    +0.064 A 
ATOM     14  C   UNL     1       3.763   5.732  -3.773  0.00  0.00    +0.065 C 
ATOM     16  C   UNL     1       0.920   8.241  -7.147  0.00  0.00    +0.068 C 
BRANCH   3  15
ATOM     15  C   UNL     1       4.787   8.535  -4.318  0.00  0.00    +0.178 C 
BRANCH  15  18
ATOM     18  C   UNL     1       4.514   9.116  -2.952  0.00  0.00    -0.026 A 
ATOM     20  C   UNL     1       4.986   8.468  -1.812  0.00  0.00    +0.005 A 
ATOM     21  C   UNL     1       3.790  10.301  -2.831  0.00  0.00    +0.005 A 
ATOM     24  C   UNL     1       4.734   9.005  -0.549  0.00  0.00    +0.000 A 
ATOM     25  C   UNL     1       3.538  10.839  -1.568  0.00  0.00    +0.000 A 
ATOM     26  C   UNL     1       4.010  10.190  -0.427  0.00  0.00    +0.000 A 
ENDBRANCH  15  18
ENDBRANCH   3  15
ENDBRANCH   6   9
BRANCH   8   2
ATOM      1  O   UNL     1       0.201   0.217  -5.714  0.00  0.00    -0.253 OA
ATOM      2  N   UNL     1       0.044   2.401  -6.490  0.00  0.00    -0.293 N 
ATOM      5  N   UNL     1      -1.502   0.831  -7.166  0.00  0.00    -0.297 N 
ATOM     17  C   UNL     1      -0.367   1.070  -6.394  0.00  0.00    +0.300 C 
ATOM     27  H   UNL     1      -0.469   3.011  -7.121  0.00  0.00    +0.151 HD
ATOM     28  H   UNL     1      -1.944   1.618  -7.632  0.00  0.00    +0.150 HD
BRANCH   5  19
ATOM     19  C   UNL     1      -2.135  -0.464  -7.245  0.00  0.00    +0.068 C 
ATOM     22  C   UNL     1      -1.404  -1.351  -8.244  0.00  0.00    +0.027 C 
ATOM     23  C   UNL     1      -3.607  -0.319  -7.609  0.00  0.00    +0.027 C 
ENDBRANCH   5  19
ENDBRANCH   8   2
TORSDOF 5
ENDMDL
MODEL 3
REMARK VINA RESULT:      -6.5     19.455     23.866
REMARK  Name = 40777601
REMARK  9 active torsions:
REMARK  status: ('A' for Active; 'I' for Inactive)
REMARK    1  A    between atoms: N_2  and  C_8
REMARK    2  A    between atoms: N_3  and  C_15
REMARK    3  A    between atoms: N_5  and  C_19
REMARK    4  A    between atoms: C_6  and  C_9
REMARK    5  A    between atoms: C_12  and  C_14
REMARK    6  A    between atoms: C_13  and  C_16
REMARK    7  A    between atoms: C_15  and  C_18
REMARK    8  A    between atoms: C_19  and  C_22
REMARK    9  A    between atoms: C_19  and  C_23
REMARK                            x       y       z     vdW  Elec       q    Type
REMARK                         _______ _______ _______ _____ _____    ______ ____
ROOT
ATOM      6  C   UNL     1      -4.558 -10.815  16.243  0.00  0.00    +0.047 C 
ATOM      7  C   UNL     1      -5.800 -11.726  16.319  0.00  0.00    +0.039 C 
ATOM      8  C   UNL     1      -6.053 -11.967  17.812  0.00  0.00    +0.098 C 
ATOM     10  C   UNL     1      -3.902 -11.052  17.572  0.00  0.00    -0.021 C 
ATOM     11  C   UNL     1      -4.722 -11.676  18.425  0.00  0.00    -0.009 C 
ENDROOT
BRANCH   6   9
ATOM      3  N   UNL     1      -2.923 -11.686  13.083  0.00  0.00    -0.264 N 
ATOM      4  N   UNL     1      -1.823 -11.261  13.727  0.00  0.00    -0.176 NA
ATOM      9  C   UNL     1      -3.680 -11.100  15.046  0.00  0.00    +0.003 A 
ATOM     12  C   UNL     1      -4.062 -11.611  13.830  0.00  0.00    +0.041 A 
ATOM     13  C   UNL     1      -2.291 -10.904  14.925  0.00  0.00    +0.064 A 
ATOM     14  C   UNL     1      -5.383 -12.025  13.319  0.00  0.00    +0.065 C 
ATOM     16  C   UNL     1      -1.362 -10.374  15.938  0.00  0.00    +0.068 C 
BRANCH   3  15
ATOM     15  C   UNL     1      -2.806 -12.161  11.724  0.00  0.00    +0.178 C 
BRANCH  15  18
ATOM     18  C   UNL     1      -3.348 -11.190  10.703  0.00  0.00    -0.026 A 
ATOM     20  C   UNL     1      -4.197 -11.642   9.694  0.00  0.00    +0.005 A 
ATOM     21  C   UNL     1      -2.997  -9.842  10.769  0.00  0.00    +0.005 A 
ATOM     24  C   UNL     1      -4.698 -10.744   8.750  0.00  0.00    +0.000 A 
ATOM     25  C   UNL     1      -3.498  -8.945   9.825  0.00  0.00    +0.000 A 
ATOM     26  C   UNL     1      -4.347  -9.396   8.816  0.00  0.00    +0.000 A 
ENDBRANCH  15  18
ENDBRANCH   3  15
ENDBRANCH   6   9
BRANCH   8   2
ATOM      1  O   UNL     1      -8.921 -12.143  17.545  0.00  0.00    -0.253 OA
ATOM      2  N   UNL     1      -7.032 -11.068  18.364  0.00  0.00    -0.293 N 
ATOM      5  N   UNL     1      -9.125 -10.217  18.822  0.00  0.00    -0.297 N 
ATOM     17  C   UNL     1      -8.408 -11.227  18.184  0.00  0.00    +0.300 C 
ATOM     27  H   UNL     1      -6.713 -10.246  18.869  0.00  0.00    +0.151 HD
ATOM     28  H   UNL     1      -8.614  -9.547  19.391  0.00  0.00    +0.150 HD
BRANCH   5  19
ATOM     19  C   UNL     1     -10.566 -10.144  18.796  0.00  0.00    +0.068 C 
ATOM     22  C   UNL     1     -11.022  -8.975  17.932  0.00  0.00    +0.027 C 
ATOM     23  C   UNL     1     -11.123 -10.037  20.210  0.00  0.00    +0.027 C 
ENDBRANCH   5  19
ENDBRANCH   8   2
TORSDOF 5
ENDMDL
MODEL 4
REMARK VINA RESULT:      -6.4     21.658     23.862
REMARK  Name = 40777601
REMARK  9 active torsions:
REMARK  status: ('A' for Active; 'I' for Inactive)
REMARK    1  A    between atoms: N_2  and  C_8
REMARK    2  A    between atoms: N_3  and  C_15
REMARK    3  A    between atoms: N_5  and  C_19
REMARK    4  A    between atoms: C_6  and  C_9
REMARK    5  A    between atoms: C_12  and  C_14
REMARK    6  A    between atoms: C_13  and  C_16
REMARK    7  A    between atoms: C_15  and  C_18
REMARK    8  A    between atoms: C_19  and  C_22
REMARK    9  A    between atoms: C_19  and  C_23
REMARK                            x       y       z     vdW  Elec       q    Type
REMARK                         _______ _______ _______ _____ _____    ______ ____
ROOT
ATOM      6  C   UNL     1      -3.881 -10.732  11.054  0.00  0.00    +0.047 C 
ATOM      7  C   UNL     1      -5.145 -11.164  10.282  0.00  0.00    +0.039 C 
ATOM      8  C   UNL     1      -5.078 -10.444   8.931  0.00  0.00    +0.098 C 
ATOM     10  C   UNL     1      -3.507  -9.451  10.367  0.00  0.00    -0.021 C 
ATOM     11  C   UNL     1      -4.158  -9.300   9.209  0.00  0.00    -0.009 C 
ENDROOT
BRANCH   6   9
ATOM      3  N   UNL     1      -3.900 -10.696  14.717  0.00  0.00    -0.264 N 
ATOM      4  N   UNL     1      -5.092 -10.101  14.539  0.00  0.00    -0.176 NA
ATOM      9  C   UNL     1      -4.104 -10.609  12.543  0.00  0.00    +0.003 A 
ATOM     12  C   UNL     1      -3.268 -11.022  13.552  0.00  0.00    +0.041 A 
ATOM     13  C   UNL     1      -5.210 -10.050  13.210  0.00  0.00    +0.064 A 
ATOM     14  C   UNL     1      -1.949 -11.682  13.516  0.00  0.00    +0.065 C 
ATOM     16  C   UNL     1      -6.416  -9.450  12.613  0.00  0.00    +0.068 C 
BRANCH   3  15
ATOM     15  C   UNL     1      -3.419 -10.927  16.059  0.00  0.00    +0.178 C 
BRANCH  15  18
ATOM     18  C   UNL     1      -4.480 -11.462  16.990  0.00  0.00    -0.026 A 
ATOM     20  C   UNL     1      -4.907 -10.695  18.074  0.00  0.00    +0.005 A 
ATOM     21  C   UNL     1      -5.034 -12.722  16.766  0.00  0.00    +0.005 A 
ATOM     24  C   UNL     1      -5.888 -11.189  18.934  0.00  0.00    +0.000 A 
ATOM     25  C   UNL     1      -6.015 -13.216  17.626  0.00  0.00    +0.000 A 
ATOM     26  C   UNL     1      -6.441 -12.450  18.711  0.00  0.00    +0.000 A 
ENDBRANCH  15  18
ENDBRANCH   3  15
ENDBRANCH   6   9
BRANCH   8   2
ATOM      1  O   UNL     1      -5.716 -10.369   6.116  0.00  0.00    -0.253 OA
ATOM      2  N   UNL     1      -4.511 -11.261   7.890  0.00  0.00    -0.293 N 
ATOM      5  N   UNL     1      -4.179 -12.069   5.757  0.00  0.00    -0.297 N 
ATOM     17  C   UNL     1      -4.880 -11.160   6.548  0.00  0.00    +0.300 C 
ATOM     27  H   UNL     1      -3.845 -11.985   8.145  0.00  0.00    +0.151 HD
ATOM     28  H   UNL     1      -3.452 -12.629   6.194  0.00  0.00    +0.150 HD
BRANCH   5  19
ATOM     19  C   UNL     1      -4.368 -12.173   4.330  0.00  0.00    +0.068 C 
ATOM     22  C   UNL     1      -5.416 -13.231   4.011  0.00  0.00    +0.027 C 
ATOM     23  C   UNL     1      -3.046 -12.477   3.636  0.00  0.00    +0.027 C 
ENDBRANCH   5  19
ENDBRANCH   8   2
TORSDOF 5
ENDMDL
MODEL 5
REMARK VINA RESULT:      -6.4      4.033      9.084
REMARK  Name = 40777601
REMARK  9 active torsions:
REMARK  status: ('A' for Active; 'I' for Inactive)
REMARK    1  A    between atoms: N_2  and  C_8
REMARK    2  A    between atoms: N_3  and  C_15
REMARK    3  A    between atoms: N_5  and  C_19
REMARK    4  A    between atoms: C_6  and  C_9
REMARK    5  A    between atoms: C_12  and  C_14
REMARK    6  A    between atoms: C_13  and  C_16
REMARK    7  A    between atoms: C_15  and  C_18
REMARK    8  A    between atoms: C_19  and  C_22
REMARK    9  A    between atoms: C_19  and  C_23
REMARK                            x       y       z     vdW  Elec       q    Type
REMARK                         _______ _______ _______ _____ _____    ______ ____
ROOT
ATOM      6  C   UNL     1     -12.411   8.130  20.894  0.00  0.00    +0.047 C 
ATOM      7  C   UNL     1     -13.823   7.593  20.586  0.00  0.00    +0.039 C 
ATOM      8  C   UNL     1     -13.900   6.212  21.247  0.00  0.00    +0.098 C 
ATOM     10  C   UNL     1     -11.647   6.874  21.197  0.00  0.00    -0.021 C 
ATOM     11  C   UNL     1     -12.463   5.833  21.392  0.00  0.00    -0.009 C 
ENDROOT
BRANCH   6   9
ATOM      3  N   UNL     1     -10.887   9.650  17.930  0.00  0.00    -0.264 N 
ATOM      4  N   UNL     1     -11.192  10.794  18.565  0.00  0.00    -0.176 NA
ATOM      9  C   UNL     1     -11.833   8.968  19.777  0.00  0.00    +0.003 A 
ATOM     12  C   UNL     1     -11.251   8.527  18.614  0.00  0.00    +0.041 A 
ATOM     13  C   UNL     1     -11.769  10.372  19.692  0.00  0.00    +0.064 A 
ATOM     14  C   UNL     1     -11.012   7.164  18.100  0.00  0.00    +0.065 C 
ATOM     16  C   UNL     1     -12.251  11.359  20.674  0.00  0.00    +0.068 C 
BRANCH   3  15
ATOM     15  C   UNL     1     -10.236   9.709  16.642  0.00  0.00    +0.178 C 
BRANCH  15  18
ATOM     18  C   UNL     1     -11.098   9.203  15.512  0.00  0.00    -0.026 A 
ATOM     20  C   UNL     1     -10.607   8.231  14.641  0.00  0.00    +0.005 A 
ATOM     21  C   UNL     1     -12.387   9.707  15.339  0.00  0.00    +0.005 A 
ATOM     24  C   UNL     1     -11.404   7.763  13.597  0.00  0.00    +0.000 A 
ATOM     25  C   UNL     1     -13.184   9.239  14.294  0.00  0.00    +0.000 A 
ATOM     26  C   UNL     1     -12.693   8.268  13.423  0.00  0.00    +0.000 A 
ENDBRANCH  15  18
ENDBRANCH   3  15
ENDBRANCH   6   9
BRANCH   8   2
ATOM      1  O   UNL     1     -15.757   4.301  22.356  0.00  0.00    -0.253 OA
ATOM      2  N   UNL     1     -14.512   6.251  22.550  0.00  0.00    -0.293 N 
ATOM      5  N   UNL     1     -15.844   5.564  24.300  0.00  0.00    -0.297 N 
ATOM     17  C   UNL     1     -15.404   5.281  23.009  0.00  0.00    +0.300 C 
ATOM     27  H   UNL     1     -14.327   7.048  23.153  0.00  0.00    +0.151 HD
ATOM     28  H   UNL     1     -15.436   6.357  24.787  0.00  0.00    +0.150 HD
BRANCH   5  19
ATOM     19  C   UNL     1     -16.774   4.720  25.012  0.00  0.00    +0.068 C 
ATOM     22  C   UNL     1     -17.623   5.552  25.965  0.00  0.00    +0.027 C 
ATOM     23  C   UNL     1     -16.033   3.615  25.755  0.00  0.00    +0.027 C 
ENDBRANCH   5  19
ENDBRANCH   8   2
TORSDOF 5
ENDMDL
MODEL 6
REMARK VINA RESULT:      -6.4     21.090     22.856
REMARK  Name = 40777601
REMARK  9 active torsions:
REMARK  status: ('A' for Active; 'I' for Inactive)
REMARK    1  A    between atoms: N_2  and  C_8
REMARK    2  A    between atoms: N_3  and  C_15
REMARK    3  A    between atoms: N_5  and  C_19
REMARK    4  A    between atoms: C_6  and  C_9
REMARK    5  A    between atoms: C_12  and  C_14
REMARK    6  A    between atoms: C_13  and  C_16
REMARK    7  A    between atoms: C_15  and  C_18
REMARK    8  A    between atoms: C_19  and  C_22
REMARK    9  A    between atoms: C_19  and  C_23
REMARK                            x       y       z     vdW  Elec       q    Type
REMARK                         _______ _______ _______ _____ _____    ______ ____
ROOT
ATOM      6  C   UNL     1      -3.911 -10.794  11.726  0.00  0.00    +0.047 C 
ATOM      7  C   UNL     1      -4.877  -9.621  11.459  0.00  0.00    +0.039 C 
ATOM      8  C   UNL     1      -4.222  -8.782  10.356  0.00  0.00    +0.098 C 
ATOM     10  C   UNL     1      -2.609 -10.265  11.201  0.00  0.00    -0.021 C 
ATOM     11  C   UNL     1      -2.783  -9.171  10.452  0.00  0.00    -0.009 C 
ENDROOT
BRANCH   6   9
ATOM      3  N   UNL     1      -4.329 -12.132  15.111  0.00  0.00    -0.264 N 
ATOM      4  N   UNL     1      -3.201 -11.439  15.344  0.00  0.00    -0.176 NA
ATOM      9  C   UNL     1      -3.881 -11.225  13.174  0.00  0.00    +0.003 A 
ATOM     12  C   UNL     1      -4.778 -12.036  13.826  0.00  0.00    +0.041 A 
ATOM     13  C   UNL     1      -2.932 -10.887  14.158  0.00  0.00    +0.064 A 
ATOM     14  C   UNL     1      -5.998 -12.718  13.352  0.00  0.00    +0.065 C 
ATOM     16  C   UNL     1      -1.742 -10.032  14.009  0.00  0.00    +0.068 C 
BRANCH   3  15
ATOM     15  C   UNL     1      -4.934 -12.879  16.188  0.00  0.00    +0.178 C 
BRANCH  15  18
ATOM     18  C   UNL     1      -5.421 -12.008  17.320  0.00  0.00    -0.026 A 
ATOM     20  C   UNL     1      -4.962 -12.230  18.618  0.00  0.00    +0.005 A 
ATOM     21  C   UNL     1      -6.329 -10.981  17.068  0.00  0.00    +0.005 A 
ATOM     24  C   UNL     1      -5.411 -11.424  19.664  0.00  0.00    +0.000 A 
ATOM     25  C   UNL     1      -6.779 -10.175  18.114  0.00  0.00    +0.000 A 
ATOM     26  C   UNL     1      -6.321 -10.397  19.412  0.00  0.00    +0.000 A 
ENDBRANCH  15  18
ENDBRANCH   3  15
ENDBRANCH   6   9
BRANCH   8   2
ATOM      1  O   UNL     1      -6.781  -8.070   9.226  0.00  0.00    -0.253 OA
ATOM      2  N   UNL     1      -4.712  -9.109   9.042  0.00  0.00    -0.293 N 
ATOM      5  N   UNL     1      -6.188  -9.173   7.273  0.00  0.00    -0.297 N 
ATOM     17  C   UNL     1      -5.969  -8.723   8.574  0.00  0.00    +0.300 C 
ATOM     27  H   UNL     1      -4.139  -9.691   8.437  0.00  0.00    +0.151 HD
ATOM     28  H   UNL     1      -5.426  -9.639   6.789  0.00  0.00    +0.150 HD
BRANCH   5  19
ATOM     19  C   UNL     1      -7.410  -8.911   6.550  0.00  0.00    +0.068 C 
ATOM     22  C   UNL     1      -8.346 -10.108   6.642  0.00  0.00    +0.027 C 
ATOM     23  C   UNL     1      -7.107  -8.556   5.099  0.00  0.00    +0.027 C 
ENDBRANCH   5  19
ENDBRANCH   8   2
TORSDOF 5
ENDMDL
MODEL 7
REMARK VINA RESULT:      -6.4     28.993     31.844
REMARK  Name = 40777601
REMARK  9 active torsions:
REMARK  status: ('A' for Active; 'I' for Inactive)
REMARK    1  A    between atoms: N_2  and  C_8
REMARK    2  A    between atoms: N_3  and  C_15
REMARK    3  A    between atoms: N_5  and  C_19
REMARK    4  A    between atoms: C_6  and  C_9
REMARK    5  A    between atoms: C_12  and  C_14
REMARK    6  A    between atoms: C_13  and  C_16
REMARK    7  A    between atoms: C_15  and  C_18
REMARK    8  A    between atoms: C_19  and  C_22
REMARK    9  A    between atoms: C_19  and  C_23
REMARK                            x       y       z     vdW  Elec       q    Type
REMARK                         _______ _______ _______ _____ _____    ______ ____
ROOT
ATOM      6  C   UNL     1       2.056   3.441  -5.035  0.00  0.00    +0.047 C 
ATOM      7  C   UNL     1       3.083   4.218  -5.883  0.00  0.00    +0.039 C 
ATOM      8  C   UNL     1       2.990   5.677  -5.422  0.00  0.00    +0.098 C 
ATOM     10  C   UNL     1       1.120   4.525  -4.588  0.00  0.00    -0.021 C 
ATOM     11  C   UNL     1       1.635   5.742  -4.797  0.00  0.00    -0.009 C 
ENDROOT
BRANCH   6   9
ATOM      3  N   UNL     1       0.323   1.096  -7.252  0.00  0.00    -0.264 N 
ATOM      4  N   UNL     1       0.662   0.207  -6.303  0.00  0.00    -0.176 NA
ATOM      9  C   UNL     1       1.398   2.306  -5.785  0.00  0.00    +0.003 A 
ATOM     12  C   UNL     1       0.740   2.368  -6.989  0.00  0.00    +0.041 A 
ATOM     13  C   UNL     1       1.318   0.952  -5.410  0.00  0.00    +0.064 A 
ATOM     14  C   UNL     1       0.476   3.500  -7.898  0.00  0.00    +0.065 C 
ATOM     16  C   UNL     1       1.858   0.318  -4.195  0.00  0.00    +0.068 C 
BRANCH   3  15
ATOM     15  C   UNL     1      -0.416   0.646  -8.409  0.00  0.00    +0.178 C 
BRANCH  15  18
ATOM     18  C   UNL     1      -1.635  -0.172  -8.059  0.00  0.00    -0.026 A 
ATOM     20  C   UNL     1      -2.892   0.431  -8.023  0.00  0.00    +0.005 A 
ATOM     21  C   UNL     1      -1.504  -1.530  -7.771  0.00  0.00    +0.005 A 
ATOM     24  C   UNL     1      -4.019  -0.324  -7.700  0.00  0.00    +0.000 A 
ATOM     25  C   UNL     1      -2.631  -2.285  -7.448  0.00  0.00    +0.000 A 
ATOM     26  C   UNL     1      -3.889  -1.683  -7.411  0.00  0.00    +0.000 A 
ENDBRANCH  15  18
ENDBRANCH   3  15
ENDBRANCH   6   9
BRANCH   8   2
ATOM      1  O   UNL     1       3.570   8.298  -4.361  0.00  0.00    -0.253 OA
ATOM      2  N   UNL     1       3.981   6.013  -4.433  0.00  0.00    -0.293 N 
ATOM      5  N   UNL     1       5.214   7.355  -3.023  0.00  0.00    -0.297 N 
ATOM     17  C   UNL     1       4.198   7.314  -3.975  0.00  0.00    +0.300 C 
ATOM     27  H   UNL     1       4.591   5.279  -4.083  0.00  0.00    +0.151 HD
ATOM     28  H   UNL     1       5.622   6.478  -2.712  0.00  0.00    +0.150 HD
BRANCH   5  19
ATOM     19  C   UNL     1       5.639   8.578  -2.385  0.00  0.00    +0.068 C 
ATOM     22  C   UNL     1       7.113   8.496  -2.010  0.00  0.00    +0.027 C 
ATOM     23  C   UNL     1       4.774   8.875  -1.166  0.00  0.00    +0.027 C 
ENDBRANCH   5  19
ENDBRANCH   8   2
TORSDOF 5
ENDMDL
MODEL 8
REMARK VINA RESULT:      -6.3     20.903     23.064
REMARK  Name = 40777601
REMARK  9 active torsions:
REMARK  status: ('A' for Active; 'I' for Inactive)
REMARK    1  A    between atoms: N_2  and  C_8
REMARK    2  A    between atoms: N_3  and  C_15
REMARK    3  A    between atoms: N_5  and  C_19
REMARK    4  A    between atoms: C_6  and  C_9
REMARK    5  A    between atoms: C_12  and  C_14
REMARK    6  A    between atoms: C_13  and  C_16
REMARK    7  A    between atoms: C_15  and  C_18
REMARK    8  A    between atoms: C_19  and  C_22
REMARK    9  A    between atoms: C_19  and  C_23
REMARK                            x       y       z     vdW  Elec       q    Type
REMARK                         _______ _______ _______ _____ _____    ______ ____
ROOT
ATOM      6  C   UNL     1      -3.445 -11.695  13.518  0.00  0.00    +0.047 C 
ATOM      7  C   UNL     1      -3.990 -10.431  12.822  0.00  0.00    +0.039 C 
ATOM      8  C   UNL     1      -3.134 -10.244  11.563  0.00  0.00    +0.098 C 
ATOM     10  C   UNL     1      -2.059 -11.802  12.955  0.00  0.00    -0.021 C 
ATOM     11  C   UNL     1      -1.894 -11.012  11.888  0.00  0.00    -0.009 C 
ENDROOT
BRANCH   6   9
ATOM      3  N   UNL     1      -4.063 -11.879  17.124  0.00  0.00    -0.264 N 
ATOM      4  N   UNL     1      -3.009 -11.047  17.178  0.00  0.00    -0.176 NA
ATOM      9  C   UNL     1      -3.512 -11.622  15.026  0.00  0.00    +0.003 A 
ATOM     12  C   UNL     1      -4.404 -12.253  15.857  0.00  0.00    +0.041 A 
ATOM     13  C   UNL     1      -2.677 -10.893  15.894  0.00  0.00    +0.064 A 
ATOM     14  C   UNL     1      -5.530 -13.162  15.567  0.00  0.00    +0.065 C 
ATOM     16  C   UNL     1      -1.539 -10.028  15.539  0.00  0.00    +0.068 C 
BRANCH   3  15
ATOM     15  C   UNL     1      -4.707 -12.283  18.352  0.00  0.00    +0.178 C 
BRANCH  15  18
ATOM     18  C   UNL     1      -6.097 -11.717  18.512  0.00  0.00    -0.026 A 
ATOM     20  C   UNL     1      -6.393 -10.447  18.018  0.00  0.00    +0.005 A 
ATOM     21  C   UNL     1      -7.084 -12.464  19.154  0.00  0.00    +0.005 A 
ATOM     24  C   UNL     1      -7.678  -9.923  18.166  0.00  0.00    +0.000 A 
ATOM     25  C   UNL     1      -8.369 -11.940  19.302  0.00  0.00    +0.000 A 
ATOM     26  C   UNL     1      -8.665 -10.670  18.809  0.00  0.00    +0.000 A 
ENDBRANCH  15  18
ENDBRANCH   3  15
ENDBRANCH   6   9
BRANCH   8   2
ATOM      1  O   UNL     1      -4.029  -8.819   9.218  0.00  0.00    -0.253 OA
ATOM      2  N   UNL     1      -3.742 -10.806  10.387  0.00  0.00    -0.293 N 
ATOM      5  N   UNL     1      -4.707 -10.836   8.293  0.00  0.00    -0.297 N 
ATOM     17  C   UNL     1      -4.149 -10.041   9.292  0.00  0.00    +0.300 C 
ATOM     27  H   UNL     1      -3.935 -11.804  10.364  0.00  0.00    +0.151 HD
ATOM     28  H   UNL     1      -4.692 -11.845   8.414  0.00  0.00    +0.150 HD
BRANCH   5  19
ATOM     19  C   UNL     1      -5.208 -10.296   7.052  0.00  0.00    +0.068 C 
ATOM     22  C   UNL     1      -6.653  -9.844   7.215  0.00  0.00    +0.027 C 
ATOM     23  C   UNL     1      -5.072 -11.319   5.930  0.00  0.00    +0.027 C 
ENDBRANCH   5  19
ENDBRANCH   8   2
TORSDOF 5
ENDMDL
MODEL 9
REMARK VINA RESULT:      -6.2     17.134     22.815
REMARK  Name = 40777601
REMARK  9 active torsions:
REMARK  status: ('A' for Active; 'I' for Inactive)
REMARK    1  A    between atoms: N_2  and  C_8
REMARK    2  A    between atoms: N_3  and  C_15
REMARK    3  A    between atoms: N_5  and  C_19
REMARK    4  A    between atoms: C_6  and  C_9
REMARK    5  A    between atoms: C_12  and  C_14
REMARK    6  A    between atoms: C_13  and  C_16
REMARK    7  A    between atoms: C_15  and  C_18
REMARK    8  A    between atoms: C_19  and  C_22
REMARK    9  A    between atoms: C_19  and  C_23
REMARK                            x       y       z     vdW  Elec       q    Type
REMARK                         _______ _______ _______ _____ _____    ______ ____
ROOT
ATOM      6  C   UNL     1      -9.282  -8.348   7.927  0.00  0.00    +0.047 C 
ATOM      7  C   UNL     1      -9.038  -6.855   8.223  0.00  0.00    +0.039 C 
ATOM      8  C   UNL     1     -10.253  -6.111   7.655  0.00  0.00    +0.098 C 
ATOM     10  C   UNL     1     -10.265  -8.297   6.794  0.00  0.00    -0.021 C 
ATOM     11  C   UNL     1     -10.795  -7.077   6.652  0.00  0.00    -0.009 C 
ENDROOT
BRANCH   6   9
ATOM      3  N   UNL     1      -6.295 -10.458   7.721  0.00  0.00    -0.264 N 
ATOM      4  N   UNL     1      -6.140  -9.836   6.540  0.00  0.00    -0.176 NA
ATOM      9  C   UNL     1      -8.013  -9.113   7.628  0.00  0.00    +0.003 A 
ATOM     12  C   UNL     1      -7.402 -10.061   8.412  0.00  0.00    +0.041 A 
ATOM     13  C   UNL     1      -7.192  -9.016   6.489  0.00  0.00    +0.064 A 
ATOM     14  C   UNL     1      -7.764 -10.616   9.731  0.00  0.00    +0.065 C 
ATOM     16  C   UNL     1      -7.375  -8.144   5.316  0.00  0.00    +0.068 C 
BRANCH   3  15
ATOM     15  C   UNL     1      -5.323 -11.445   8.132  0.00  0.00    +0.178 C 
BRANCH  15  18
ATOM     18  C   UNL     1      -4.377 -10.944   9.197  0.00  0.00    -0.026 A 
ATOM     20  C   UNL     1      -4.012  -9.599   9.228  0.00  0.00    +0.005 A 
ATOM     21  C   UNL     1      -3.870 -11.828  10.149  0.00  0.00    +0.005 A 
ATOM     24  C   UNL     1      -3.138  -9.137  10.212  0.00  0.00    +0.000 A 
ATOM     25  C   UNL     1      -2.996 -11.365  11.133  0.00  0.00    +0.000 A 
ATOM     26  C   UNL     1      -2.630 -10.020  11.164  0.00  0.00    +0.000 A 
ENDBRANCH  15  18
ENDBRANCH   3  15
ENDBRANCH   6   9
BRANCH   8   2
ATOM      1  O   UNL     1     -10.603  -3.685   9.180  0.00  0.00    -0.253 OA
ATOM      2  N   UNL     1     -11.260  -5.849   8.649  0.00  0.00    -0.293 N 
ATOM      5  N   UNL     1     -12.420  -4.657  10.245  0.00  0.00    -0.297 N 
ATOM     17  C   UNL     1     -11.358  -4.642   9.344  0.00  0.00    +0.300 C 
ATOM     27  H   UNL     1     -11.907  -6.592   8.898  0.00  0.00    +0.151 HD
ATOM     28  H   UNL     1     -13.035  -5.466  10.253  0.00  0.00    +0.150 HD
BRANCH   5  19
ATOM     19  C   UNL     1     -12.744  -3.534  11.091  0.00  0.00    +0.068 C 
ATOM     22  C   UNL     1     -12.370  -3.833  12.537  0.00  0.00    +0.027 C 
ATOM     23  C   UNL     1     -14.221  -3.177  10.965  0.00  0.00    +0.027 C 
ENDBRANCH   5  19
ENDBRANCH   8   2
TORSDOF 5
ENDMDL
MODEL 10
REMARK VINA RESULT:      -6.2      4.595      9.261
REMARK  Name = 40777601
REMARK  9 active torsions:
REMARK  status: ('A' for Active; 'I' for Inactive)
REMARK    1  A    between atoms: N_2  and  C_8
REMARK    2  A    between atoms: N_3  and  C_15
REMARK    3  A    between atoms: N_5  and  C_19
REMARK    4  A    between atoms: C_6  and  C_9
REMARK    5  A    between atoms: C_12  and  C_14
REMARK    6  A    between atoms: C_13  and  C_16
REMARK    7  A    between atoms: C_15  and  C_18
REMARK    8  A    between atoms: C_19  and  C_22
REMARK    9  A    between atoms: C_19  and  C_23
REMARK                            x       y       z     vdW  Elec       q    Type
REMARK                         _______ _______ _______ _____ _____    ______ ____
ROOT
ATOM      6  C   UNL     1     -14.957   6.362  22.974  0.00  0.00    +0.047 C 
ATOM      7  C   UNL     1     -16.389   5.965  23.388  0.00  0.00    +0.039 C 
ATOM      8  C   UNL     1     -16.255   4.630  24.130  0.00  0.00    +0.098 C 
ATOM     10  C   UNL     1     -14.235   5.047  23.006  0.00  0.00    -0.021 C 
ATOM     11  C   UNL     1     -14.945   4.107  23.640  0.00  0.00    -0.009 C 
ENDROOT
BRANCH   6   9
ATOM      3  N   UNL     1     -14.486   8.507  20.042  0.00  0.00    -0.264 N 
ATOM      4  N   UNL     1     -15.246   7.573  19.444  0.00  0.00    -0.176 NA
ATOM      9  C   UNL     1     -14.898   7.085  21.648  0.00  0.00    +0.003 A 
ATOM     12  C   UNL     1     -14.248   8.261  21.363  0.00  0.00    +0.041 A 
ATOM     13  C   UNL     1     -15.494   6.708  20.430  0.00  0.00    +0.064 A 
ATOM     14  C   UNL     1     -13.437   9.156  22.210  0.00  0.00    +0.065 C 
ATOM     16  C   UNL     1     -16.319   5.518  20.158  0.00  0.00    +0.068 C 
BRANCH   3  15
ATOM     15  C   UNL     1     -14.011   9.631  19.270  0.00  0.00    +0.178 C 
BRANCH  15  18
ATOM     18  C   UNL     1     -12.588   9.470  18.792  0.00  0.00    -0.026 A 
ATOM     20  C   UNL     1     -11.649  10.468  19.049  0.00  0.00    +0.005 A 
ATOM     21  C   UNL     1     -12.213   8.323  18.094  0.00  0.00    +0.005 A 
ATOM     24  C   UNL     1     -10.334  10.320  18.608  0.00  0.00    +0.000 A 
ATOM     25  C   UNL     1     -10.898   8.174  17.653  0.00  0.00    +0.000 A 
ATOM     26  C   UNL     1      -9.959   9.172  17.910  0.00  0.00    +0.000 A 
ENDBRANCH  15  18
ENDBRANCH   3  15
ENDBRANCH   6   9
BRANCH   8   2
ATOM      1  O   UNL     1     -16.495   2.558  26.126  0.00  0.00    -0.253 OA
ATOM      2  N   UNL     1     -16.194   4.790  25.559  0.00  0.00    -0.293 N 
ATOM      5  N   UNL     1     -16.225   4.164  27.778  0.00  0.00    -0.297 N 
ATOM     17  C   UNL     1     -16.321   3.729  26.457  0.00  0.00    +0.300 C 
ATOM     27  H   UNL     1     -16.103   5.727  25.943  0.00  0.00    +0.151 HD
ATOM     28  H   UNL     1     -16.004   5.141  27.949  0.00  0.00    +0.150 HD
BRANCH   5  19
ATOM     19  C   UNL     1     -16.322   3.269  28.906  0.00  0.00    +0.068 C 
ATOM     22  C   UNL     1     -17.437   3.715  29.842  0.00  0.00    +0.027 C 
ATOM     23  C   UNL     1     -14.988   3.183  29.637  0.00  0.00    +0.027 C 
ENDBRANCH   5  19
ENDBRANCH   8   2
TORSDOF 5
ENDMDL
