MODEL 1
REMARK VINA RESULT:      -4.7      0.000      0.000
REMARK  Name = 75367823
REMARK  5 active torsions:
REMARK  status: ('A' for Active; 'I' for Inactive)
REMARK    1  A    between atoms: O_1  and  C_5
REMARK    2  A    between atoms: O_1  and  C_10
REMARK    3  A    between atoms: O_3  and  C_11
REMARK    4  A    between atoms: O_3  and  C_12
REMARK    5  A    between atoms: C_10  and  C_11
REMARK                            x       y       z     vdW  Elec       q    Type
REMARK                         _______ _______ _______ _____ _____    ______ ____
ROOT
ATOM      2  O   UNL     1      -0.899  -0.194  24.350  0.00  0.00    -0.376 OA
ATOM      4  N   UNL     1      -3.396  -1.791  25.336  0.00  0.00    -0.311 NA
ATOM      5  C   UNL     1      -3.227   0.423  24.043  0.00  0.00    +0.158 C 
ATOM      6  C   UNL     1      -4.073  -0.629  24.771  0.00  0.00    +0.114 C 
ATOM      7  C   UNL     1      -1.904   0.741  24.732  0.00  0.00    +0.192 C 
ATOM      8  C   UNL     1      -2.232  -2.251  24.591  0.00  0.00    +0.109 C 
ATOM      9  C   UNL     1      -0.993  -1.457  24.995  0.00  0.00    +0.175 C 
ATOM     13  H   UNL     1      -4.069  -2.550  25.434  0.00  0.00    +0.122 HD
ENDROOT
BRANCH   5   1
ATOM      1  O   UNL     1      -4.013   1.612  23.968  0.00  0.00    -0.371 OA
BRANCH   1  10
ATOM     10  C   UNL     1      -4.937   1.688  25.042  0.00  0.00    +0.188 C 
BRANCH  10  11
ATOM     11  C   UNL     1      -4.950   3.104  25.584  0.00  0.00    +0.187 C 
BRANCH  11   3
ATOM      3  O   UNL     1      -3.835   3.813  25.058  0.00  0.00    -0.381 OA
ATOM     12  C   UNL     1      -2.879   4.104  26.068  0.00  0.00    +0.194 C 
ENDBRANCH  11   3
ENDBRANCH  10  11
ENDBRANCH   1  10
ENDBRANCH   5   1
TORSDOF 4
ENDMDL
MODEL 2
REMARK VINA RESULT:      -4.7      1.721      2.424
REMARK  Name = 75367823
REMARK  5 active torsions:
REMARK  status: ('A' for Active; 'I' for Inactive)
REMARK    1  A    between atoms: O_1  and  C_5
REMARK    2  A    between atoms: O_1  and  C_10
REMARK    3  A    between atoms: O_3  and  C_11
REMARK    4  A    between atoms: O_3  and  C_12
REMARK    5  A    between atoms: C_10  and  C_11
REMARK                            x       y       z     vdW  Elec       q    Type
REMARK                         _______ _______ _______ _____ _____    ______ ____
ROOT
ATOM      2  O   UNL     1      -3.052  -1.006  24.853  0.00  0.00    -0.376 OA
ATOM      4  N   UNL     1      -0.028  -0.386  24.374  0.00  0.00    -0.311 NA
ATOM      5  C   UNL     1      -1.997   1.180  24.895  0.00  0.00    +0.158 C 
ATOM      6  C   UNL     1      -0.523   0.978  24.523  0.00  0.00    +0.114 C 
ATOM      7  C   UNL     1      -2.955   0.241  24.170  0.00  0.00    +0.192 C 
ATOM      8  C   UNL     1      -0.649  -1.368  25.253  0.00  0.00    +0.109 C 
ATOM      9  C   UNL     1      -1.950  -1.880  24.643  0.00  0.00    +0.175 C 
ATOM     13  H   UNL     1       0.983  -0.388  24.509  0.00  0.00    +0.122 HD
ENDROOT
BRANCH   5   1
ATOM      1  O   UNL     1      -2.329   2.530  24.568  0.00  0.00    -0.371 OA
BRANCH   1  10
ATOM     10  C   UNL     1      -3.733   2.709  24.480  0.00  0.00    +0.188 C 
BRANCH  10  11
ATOM     11  C   UNL     1      -4.195   3.575  25.635  0.00  0.00    +0.187 C 
BRANCH  11   3
ATOM      3  O   UNL     1      -5.470   3.124  26.073  0.00  0.00    -0.381 OA
ATOM     12  C   UNL     1      -5.932   2.030  25.292  0.00  0.00    +0.194 C 
ENDBRANCH  11   3
ENDBRANCH  10  11
ENDBRANCH   1  10
ENDBRANCH   5   1
TORSDOF 4
ENDMDL
MODEL 3
REMARK VINA RESULT:      -4.7      1.943      4.470
REMARK  Name = 75367823
REMARK  5 active torsions:
REMARK  status: ('A' for Active; 'I' for Inactive)
REMARK    1  A    between atoms: O_1  and  C_5
REMARK    2  A    between atoms: O_1  and  C_10
REMARK    3  A    between atoms: O_3  and  C_11
REMARK    4  A    between atoms: O_3  and  C_12
REMARK    5  A    between atoms: C_10  and  C_11
REMARK                            x       y       z     vdW  Elec       q    Type
REMARK                         _______ _______ _______ _____ _____    ______ ____
ROOT
ATOM      2  O   UNL     1      -2.515   2.725  24.185  0.00  0.00    -0.376 OA
ATOM      4  N   UNL     1      -5.469   2.724  25.202  0.00  0.00    -0.311 NA
ATOM      5  C   UNL     1      -3.866   0.777  24.706  0.00  0.00    +0.158 C 
ATOM      6  C   UNL     1      -5.264   1.284  25.084  0.00  0.00    +0.114 C 
ATOM      7  C   UNL     1      -3.180   1.599  23.620  0.00  0.00    +0.192 C 
ATOM      8  C   UNL     1      -4.318   3.474  25.686  0.00  0.00    +0.109 C 
ATOM      9  C   UNL     1      -3.373   3.803  24.534  0.00  0.00    +0.175 C 
ATOM     13  H   UNL     1      -6.274   2.895  25.803  0.00  0.00    +0.122 HD
ENDROOT
BRANCH   5   1
ATOM      1  O   UNL     1      -4.020  -0.567  24.249  0.00  0.00    -0.371 OA
BRANCH   1  10
ATOM     10  C   UNL     1      -3.500  -1.494  25.189  0.00  0.00    +0.188 C 
BRANCH  10  11
ATOM     11  C   UNL     1      -2.267  -2.154  24.603  0.00  0.00    +0.187 C 
BRANCH  11   3
ATOM      3  O   UNL     1      -1.110  -1.610  25.225  0.00  0.00    -0.381 OA
ATOM     12  C   UNL     1      -0.405  -0.743  24.347  0.00  0.00    +0.194 C 
ENDBRANCH  11   3
ENDBRANCH  10  11
ENDBRANCH   1  10
ENDBRANCH   5   1
TORSDOF 4
ENDMDL
MODEL 4
REMARK VINA RESULT:      -4.6      2.111      4.922
REMARK  Name = 75367823
REMARK  5 active torsions:
REMARK  status: ('A' for Active; 'I' for Inactive)
REMARK    1  A    between atoms: O_1  and  C_5
REMARK    2  A    between atoms: O_1  and  C_10
REMARK    3  A    between atoms: O_3  and  C_11
REMARK    4  A    between atoms: O_3  and  C_12
REMARK    5  A    between atoms: C_10  and  C_11
REMARK                            x       y       z     vdW  Elec       q    Type
REMARK                         _______ _______ _______ _____ _____    ______ ____
ROOT
ATOM      2  O   UNL     1      -5.211   1.324  24.743  0.00  0.00    -0.376 OA
ATOM      4  N   UNL     1      -3.515   3.714  25.824  0.00  0.00    -0.311 NA
ATOM      5  C   UNL     1      -2.973   1.948  24.038  0.00  0.00    +0.158 C 
ATOM      6  C   UNL     1      -2.537   3.130  24.913  0.00  0.00    +0.114 C 
ATOM      7  C   UNL     1      -3.843   0.926  24.763  0.00  0.00    +0.192 C 
ATOM      8  C   UNL     1      -4.892   3.689  25.351  0.00  0.00    +0.109 C 
ATOM      9  C   UNL     1      -5.542   2.346  25.674  0.00  0.00    +0.175 C 
ATOM     13  H   UNL     1      -3.237   4.671  26.038  0.00  0.00    +0.122 HD
ENDROOT
BRANCH   5   1
ATOM      1  O   UNL     1      -1.783   1.307  23.578  0.00  0.00    -0.371 OA
BRANCH   1  10
ATOM     10  C   UNL     1      -0.984   0.863  24.663  0.00  0.00    +0.188 C 
BRANCH  10  11
ATOM     11  C   UNL     1      -0.377  -0.481  24.313  0.00  0.00    +0.187 C 
BRANCH  11   3
ATOM      3  O   UNL     1      -0.894  -1.468  25.197  0.00  0.00    -0.381 OA
ATOM     12  C   UNL     1      -1.858  -2.289  24.554  0.00  0.00    +0.194 C 
ENDBRANCH  11   3
ENDBRANCH  10  11
ENDBRANCH   1  10
ENDBRANCH   5   1
TORSDOF 4
ENDMDL
MODEL 5
REMARK VINA RESULT:      -4.5      2.224      4.759
REMARK  Name = 75367823
REMARK  5 active torsions:
REMARK  status: ('A' for Active; 'I' for Inactive)
REMARK    1  A    between atoms: O_1  and  C_5
REMARK    2  A    between atoms: O_1  and  C_10
REMARK    3  A    between atoms: O_3  and  C_11
REMARK    4  A    between atoms: O_3  and  C_12
REMARK    5  A    between atoms: C_10  and  C_11
REMARK                            x       y       z     vdW  Elec       q    Type
REMARK                         _______ _______ _______ _____ _____    ______ ____
ROOT
ATOM      2  O   UNL     1      -0.613   3.789  25.291  0.00  0.00    -0.376 OA
ATOM      4  N   UNL     1      -3.623   3.117  24.796  0.00  0.00    -0.311 NA
ATOM      5  C   UNL     1      -1.570   1.582  24.963  0.00  0.00    +0.158 C 
ATOM      6  C   UNL     1      -3.064   1.775  24.678  0.00  0.00    +0.114 C 
ATOM      7  C   UNL     1      -0.681   2.684  24.394  0.00  0.00    +0.192 C 
ATOM      8  C   UNL     1      -3.013   3.953  25.821  0.00  0.00    +0.109 C 
ATOM      9  C   UNL     1      -1.758   4.631  25.277  0.00  0.00    +0.175 C 
ATOM     13  H   UNL     1      -4.627   3.044  24.958  0.00  0.00    +0.122 HD
ENDROOT
BRANCH   5   1
ATOM      1  O   UNL     1      -1.193   0.332  24.385  0.00  0.00    -0.371 OA
BRANCH   1  10
ATOM     10  C   UNL     1      -1.223  -0.711  25.347  0.00  0.00    +0.188 C 
BRANCH  10  11
ATOM     11  C   UNL     1      -2.002  -1.882  24.782  0.00  0.00    +0.187 C 
BRANCH  11   3
ATOM      3  O   UNL     1      -3.379  -1.721  25.100  0.00  0.00    -0.381 OA
ATOM     12  C   UNL     1      -4.190  -1.754  23.934  0.00  0.00    +0.194 C 
ENDBRANCH  11   3
ENDBRANCH  10  11
ENDBRANCH   1  10
ENDBRANCH   5   1
TORSDOF 4
ENDMDL
MODEL 6
REMARK VINA RESULT:      -4.3      2.358      4.806
REMARK  Name = 75367823
REMARK  5 active torsions:
REMARK  status: ('A' for Active; 'I' for Inactive)
REMARK    1  A    between atoms: O_1  and  C_5
REMARK    2  A    between atoms: O_1  and  C_10
REMARK    3  A    between atoms: O_3  and  C_11
REMARK    4  A    between atoms: O_3  and  C_12
REMARK    5  A    between atoms: C_10  and  C_11
REMARK                            x       y       z     vdW  Elec       q    Type
REMARK                         _______ _______ _______ _____ _____    ______ ____
ROOT
ATOM      2  O   UNL     1      -3.102   3.657  24.585  0.00  0.00    -0.376 OA
ATOM      4  N   UNL     1      -0.371   2.938  25.920  0.00  0.00    -0.311 NA
ATOM      5  C   UNL     1      -1.906   1.552  24.395  0.00  0.00    +0.158 C 
ATOM      6  C   UNL     1      -0.665   1.655  25.291  0.00  0.00    +0.114 C 
ATOM      7  C   UNL     1      -3.130   2.278  24.944  0.00  0.00    +0.192 C 
ATOM      8  C   UNL     1      -0.745   4.109  25.140  0.00  0.00    +0.109 C 
ATOM      9  C   UNL     1      -2.216   4.450  25.364  0.00  0.00    +0.175 C 
ATOM     13  H   UNL     1       0.622   2.974  26.148  0.00  0.00    +0.122 HD
ENDROOT
BRANCH   5   1
ATOM      1  O   UNL     1      -2.208   0.164  24.257  0.00  0.00    -0.371 OA
BRANCH   1  10
ATOM     10  C   UNL     1      -3.508  -0.132  24.742  0.00  0.00    +0.188 C 
BRANCH  10  11
ATOM     11  C   UNL     1      -3.417  -1.268  25.742  0.00  0.00    +0.187 C 
BRANCH  11   3
ATOM      3  O   UNL     1      -3.430  -2.505  25.040  0.00  0.00    -0.381 OA
ATOM     12  C   UNL     1      -4.246  -2.436  23.879  0.00  0.00    +0.194 C 
ENDBRANCH  11   3
ENDBRANCH  10  11
ENDBRANCH   1  10
ENDBRANCH   5   1
TORSDOF 4
ENDMDL
MODEL 7
REMARK VINA RESULT:      -4.2     17.651     18.720
REMARK  Name = 75367823
REMARK  5 active torsions:
REMARK  status: ('A' for Active; 'I' for Inactive)
REMARK    1  A    between atoms: O_1  and  C_5
REMARK    2  A    between atoms: O_1  and  C_10
REMARK    3  A    between atoms: O_3  and  C_11
REMARK    4  A    between atoms: O_3  and  C_12
REMARK    5  A    between atoms: C_10  and  C_11
REMARK                            x       y       z     vdW  Elec       q    Type
REMARK                         _______ _______ _______ _____ _____    ______ ____
ROOT
ATOM      2  O   UNL     1      13.875   6.789  20.428  0.00  0.00    -0.376 OA
ATOM      4  N   UNL     1      11.673   8.970  20.820  0.00  0.00    -0.311 NA
ATOM      5  C   UNL     1      12.158   7.417  18.831  0.00  0.00    +0.158 C 
ATOM      6  C   UNL     1      11.373   8.583  19.445  0.00  0.00    +0.114 C 
ATOM      7  C   UNL     1      13.644   7.420  19.172  0.00  0.00    +0.192 C 
ATOM      8  C   UNL     1      12.066   7.876  21.698  0.00  0.00    +0.109 C 
ATOM      9  C   UNL     1      13.559   7.592  21.558  0.00  0.00    +0.175 C 
ATOM     13  H   UNL     1      10.866   9.457  21.209  0.00  0.00    +0.122 HD
ENDROOT
BRANCH   5   1
ATOM      1  O   UNL     1      12.002   7.510  17.415  0.00  0.00    -0.371 OA
BRANCH   1  10
ATOM     10  C   UNL     1      11.298   8.685  17.049  0.00  0.00    +0.188 C 
BRANCH  10  11
ATOM     11  C   UNL     1      11.863   9.216  15.746  0.00  0.00    +0.187 C 
BRANCH  11   3
ATOM      3  O   UNL     1      13.112   8.587  15.492  0.00  0.00    -0.381 OA
ATOM     12  C   UNL     1      14.197   9.480  15.701  0.00  0.00    +0.194 C 
ENDBRANCH  11   3
ENDBRANCH  10  11
ENDBRANCH   1  10
ENDBRANCH   5   1
TORSDOF 4
ENDMDL
MODEL 8
REMARK VINA RESULT:      -4.0     17.181     18.364
REMARK  Name = 75367823
REMARK  5 active torsions:
REMARK  status: ('A' for Active; 'I' for Inactive)
REMARK    1  A    between atoms: O_1  and  C_5
REMARK    2  A    between atoms: O_1  and  C_10
REMARK    3  A    between atoms: O_3  and  C_11
REMARK    4  A    between atoms: O_3  and  C_12
REMARK    5  A    between atoms: C_10  and  C_11
REMARK                            x       y       z     vdW  Elec       q    Type
REMARK                         _______ _______ _______ _____ _____    ______ ____
ROOT
ATOM      2  O   UNL     1      12.122   9.755  22.383  0.00  0.00    -0.376 OA
ATOM      4  N   UNL     1      10.280   7.984  20.585  0.00  0.00    -0.311 NA
ATOM      5  C   UNL     1      12.442   9.258  20.029  0.00  0.00    +0.158 C 
ATOM      6  C   UNL     1      11.238   8.422  19.575  0.00  0.00    +0.114 C 
ATOM      7  C   UNL     1      12.105  10.316  21.074  0.00  0.00    +0.192 C 
ATOM      8  C   UNL     1      10.849   7.703  21.896  0.00  0.00    +0.109 C 
ATOM      9  C   UNL     1      10.970   8.987  22.711  0.00  0.00    +0.175 C 
ATOM     13  H   UNL     1       9.784   7.164  20.237  0.00  0.00    +0.122 HD
ENDROOT
BRANCH   5   1
ATOM      1  O   UNL     1      12.966   9.899  18.866  0.00  0.00    -0.371 OA
BRANCH   1  10
ATOM     10  C   UNL     1      13.136   8.977  17.801  0.00  0.00    +0.188 C 
BRANCH  10  11
ATOM     11  C   UNL     1      12.969   9.708  16.483  0.00  0.00    +0.187 C 
BRANCH  11   3
ATOM      3  O   UNL     1      12.198   8.903  15.600  0.00  0.00    -0.381 OA
ATOM     12  C   UNL     1      10.808   9.009  15.879  0.00  0.00    +0.194 C 
ENDBRANCH  11   3
ENDBRANCH  10  11
ENDBRANCH   1  10
ENDBRANCH   5   1
TORSDOF 4
ENDMDL
MODEL 9
REMARK VINA RESULT:      -4.0     17.321     18.742
REMARK  Name = 75367823
REMARK  5 active torsions:
REMARK  status: ('A' for Active; 'I' for Inactive)
REMARK    1  A    between atoms: O_1  and  C_5
REMARK    2  A    between atoms: O_1  and  C_10
REMARK    3  A    between atoms: O_3  and  C_11
REMARK    4  A    between atoms: O_3  and  C_12
REMARK    5  A    between atoms: C_10  and  C_11
REMARK                            x       y       z     vdW  Elec       q    Type
REMARK                         _______ _______ _______ _____ _____    ______ ____
ROOT
ATOM      2  O   UNL     1      12.442   9.594  21.760  0.00  0.00    -0.376 OA
ATOM      4  N   UNL     1      10.356   7.276  21.567  0.00  0.00    -0.311 NA
ATOM      5  C   UNL     1      12.914   7.253  21.322  0.00  0.00    +0.158 C 
ATOM      6  C   UNL     1      11.565   6.527  21.242  0.00  0.00    +0.114 C 
ATOM      7  C   UNL     1      12.888   8.674  20.768  0.00  0.00    +0.192 C 
ATOM      8  C   UNL     1      10.519   8.298  22.592  0.00  0.00    +0.109 C 
ATOM      9  C   UNL     1      11.036   9.594  21.973  0.00  0.00    +0.175 C 
ATOM     13  H   UNL     1       9.625   6.621  21.842  0.00  0.00    +0.122 HD
ENDROOT
BRANCH   5   1
ATOM      1  O   UNL     1      13.851   6.477  20.575  0.00  0.00    -0.371 OA
BRANCH   1  10
ATOM     10  C   UNL     1      14.213   7.126  19.367  0.00  0.00    +0.188 C 
BRANCH  10  11
ATOM     11  C   UNL     1      15.637   6.750  19.010  0.00  0.00    +0.187 C 
BRANCH  11   3
ATOM      3  O   UNL     1      16.440   6.808  20.183  0.00  0.00    -0.381 OA
ATOM     12  C   UNL     1      17.750   6.312  19.942  0.00  0.00    +0.194 C 
ENDBRANCH  11   3
ENDBRANCH  10  11
ENDBRANCH   1  10
ENDBRANCH   5   1
TORSDOF 4
ENDMDL
MODEL 10
REMARK VINA RESULT:      -4.0     18.559     19.802
REMARK  Name = 75367823
REMARK  5 active torsions:
REMARK  status: ('A' for Active; 'I' for Inactive)
REMARK    1  A    between atoms: O_1  and  C_5
REMARK    2  A    between atoms: O_1  and  C_10
REMARK    3  A    between atoms: O_3  and  C_11
REMARK    4  A    between atoms: O_3  and  C_12
REMARK    5  A    between atoms: C_10  and  C_11
REMARK                            x       y       z     vdW  Elec       q    Type
REMARK                         _______ _______ _______ _____ _____    ______ ____
ROOT
ATOM      2  O   UNL     1      12.039   7.204  17.678  0.00  0.00    -0.376 OA
ATOM      4  N   UNL     1      13.320  10.050  17.817  0.00  0.00    -0.311 NA
ATOM      5  C   UNL     1      14.349   7.729  18.210  0.00  0.00    +0.158 C 
ATOM      6  C   UNL     1      14.472   9.258  18.233  0.00  0.00    +0.114 C 
ATOM      7  C   UNL     1      13.011   7.206  18.721  0.00  0.00    +0.192 C 
ATOM      8  C   UNL     1      12.500   9.449  16.774  0.00  0.00    +0.109 C 
ATOM      9  C   UNL     1      11.489   8.482  17.384  0.00  0.00    +0.175 C 
ATOM     13  H   UNL     1      13.642  10.971  17.520  0.00  0.00    +0.122 HD
ENDROOT
BRANCH   5   1
ATOM      1  O   UNL     1      15.397   7.214  19.032  0.00  0.00    -0.371 OA
BRANCH   1  10
ATOM     10  C   UNL     1      14.880   6.574  20.187  0.00  0.00    +0.188 C 
BRANCH  10  11
ATOM     11  C   UNL     1      15.632   7.070  21.406  0.00  0.00    +0.187 C 
BRANCH  11   3
ATOM      3  O   UNL     1      14.727   7.752  22.264  0.00  0.00    -0.381 OA
ATOM     12  C   UNL     1      14.895   9.161  22.183  0.00  0.00    +0.194 C 
ENDBRANCH  11   3
ENDBRANCH  10  11
ENDBRANCH   1  10
ENDBRANCH   5   1
TORSDOF 4
ENDMDL
