MODEL 1
REMARK VINA RESULT:      -7.3      0.000      0.000
REMARK  Name = 40777542
REMARK  6 active torsions:
REMARK  status: ('A' for Active; 'I' for Inactive)
REMARK    1  A    between atoms: N_2  and  C_9
REMARK    2  A    between atoms: N_5  and  C_20
REMARK    3  A    between atoms: C_7  and  C_10
REMARK    4  A    between atoms: C_13  and  C_15
REMARK    5  A    between atoms: C_14  and  C_16
REMARK    6  A    between atoms: C_20  and  C_21
REMARK                            x       y       z     vdW  Elec       q    Type
REMARK                         _______ _______ _______ _____ _____    ______ ____
ROOT
ATOM      7  C   UNL     1      -4.918  -9.534   9.992  0.00  0.00    +0.047 C 
ATOM      8  C   UNL     1      -4.815 -10.852  10.787  0.00  0.00    +0.039 C 
ATOM      9  C   UNL     1      -3.470 -10.794  11.521  0.00  0.00    +0.098 C 
ATOM     11  C   UNL     1      -3.482  -9.108   9.885  0.00  0.00    -0.021 C 
ATOM     12  C   UNL     1      -2.699  -9.794  10.723  0.00  0.00    -0.009 C 
ENDROOT
BRANCH   7  10
ATOM      3  N   UNL     1      -6.961  -9.447   6.952  0.00  0.00    -0.218 N 
ATOM      4  N   UNL     1      -6.207 -10.507   6.615  0.00  0.00    -0.170 NA
ATOM      6  N   UNL     1      -8.244  -7.672   6.093  0.00  0.00    -0.236 NA
ATOM     10  C   UNL     1      -5.632  -9.688   8.669  0.00  0.00    +0.003 A 
ATOM     13  C   UNL     1      -6.656  -8.920   8.173  0.00  0.00    +0.048 A 
ATOM     14  C   UNL     1      -5.397 -10.650   7.667  0.00  0.00    +0.064 A 
ATOM     15  C   UNL     1      -7.353  -7.752   8.749  0.00  0.00    +0.066 C 
ATOM     16  C   UNL     1      -4.399 -11.735   7.671  0.00  0.00    +0.068 C 
ATOM     18  C   UNL     1      -7.946  -8.991   6.075  0.00  0.00    +0.154 A 
ATOM     19  C   UNL     1      -8.556  -9.913   5.242  0.00  0.00    +0.048 A 
ATOM     22  C   UNL     1      -9.535  -9.454   4.369  0.00  0.00    +0.005 A 
ATOM     23  C   UNL     1      -9.202  -7.263   5.231  0.00  0.00    +0.113 A 
ATOM     24  C   UNL     1      -9.870  -8.105   4.356  0.00  0.00    +0.020 A 
ENDBRANCH   7  10
BRANCH   9   2
ATOM      1  O   UNL     1      -2.703 -12.189  13.928  0.00  0.00    -0.253 OA
ATOM      2  N   UNL     1      -3.594 -10.321  12.874  0.00  0.00    -0.293 N 
ATOM      5  N   UNL     1      -3.430 -10.371  15.173  0.00  0.00    -0.295 N 
ATOM     17  C   UNL     1      -3.197 -11.064  13.988  0.00  0.00    +0.300 C 
ATOM     30  H   UNL     1      -4.036  -9.421  13.041  0.00  0.00    +0.151 HD
ATOM     31  H   UNL     1      -3.820  -9.434  15.123  0.00  0.00    +0.151 HD
BRANCH   5  20
ATOM     20  C   UNL     1      -3.109 -10.913  16.473  0.00  0.00    +0.141 C 
BRANCH  20  21
ATOM     21  C   UNL     1      -4.297 -10.909  17.392  0.00  0.00    -0.030 A 
ATOM     25  C   UNL     1      -4.251 -11.616  18.594  0.00  0.00    +0.005 A 
ATOM     26  C   UNL     1      -5.445 -10.197  17.045  0.00  0.00    +0.005 A 
ATOM     27  C   UNL     1      -5.354 -11.612  19.447  0.00  0.00    +0.000 A 
ATOM     28  C   UNL     1      -6.548 -10.193  17.898  0.00  0.00    +0.000 A 
ATOM     29  C   UNL     1      -6.503 -10.900  19.100  0.00  0.00    +0.000 A 
ENDBRANCH  20  21
ENDBRANCH   5  20
ENDBRANCH   9   2
TORSDOF 4
ENDMDL
MODEL 2
REMARK VINA RESULT:      -7.3      1.216      2.388
REMARK  Name = 40777542
REMARK  6 active torsions:
REMARK  status: ('A' for Active; 'I' for Inactive)
REMARK    1  A    between atoms: N_2  and  C_9
REMARK    2  A    between atoms: N_5  and  C_20
REMARK    3  A    between atoms: C_7  and  C_10
REMARK    4  A    between atoms: C_13  and  C_15
REMARK    5  A    between atoms: C_14  and  C_16
REMARK    6  A    between atoms: C_20  and  C_21
REMARK                            x       y       z     vdW  Elec       q    Type
REMARK                         _______ _______ _______ _____ _____    ______ ____
ROOT
ATOM      7  C   UNL     1      -5.115  -9.447   9.968  0.00  0.00    +0.047 C 
ATOM      8  C   UNL     1      -4.965 -10.775  10.738  0.00  0.00    +0.039 C 
ATOM      9  C   UNL     1      -3.579 -10.724  11.393  0.00  0.00    +0.098 C 
ATOM     11  C   UNL     1      -3.689  -9.017   9.784  0.00  0.00    -0.021 C 
ATOM     12  C   UNL     1      -2.857  -9.712  10.565  0.00  0.00    -0.009 C 
ENDROOT
BRANCH   7  10
ATOM      3  N   UNL     1      -6.619 -10.167   6.705  0.00  0.00    -0.218 N 
ATOM      4  N   UNL     1      -7.537  -9.277   7.117  0.00  0.00    -0.170 NA
ATOM      6  N   UNL     1      -6.258 -12.017   5.296  0.00  0.00    -0.236 NA
ATOM     10  C   UNL     1      -5.904  -9.586   8.686  0.00  0.00    +0.003 A 
ATOM     13  C   UNL     1      -5.620 -10.388   7.608  0.00  0.00    +0.048 A 
ATOM     14  C   UNL     1      -7.095  -8.925   8.327  0.00  0.00    +0.064 A 
ATOM     15  C   UNL     1      -4.505 -11.327   7.371  0.00  0.00    +0.066 C 
ATOM     16  C   UNL     1      -7.855  -7.939   9.118  0.00  0.00    +0.068 C 
ATOM     18  C   UNL     1      -6.749 -10.767   5.452  0.00  0.00    +0.154 A 
ATOM     19  C   UNL     1      -7.373 -10.048   4.446  0.00  0.00    +0.048 A 
ATOM     22  C   UNL     1      -7.503 -10.649   3.200  0.00  0.00    +0.005 A 
ATOM     23  C   UNL     1      -6.402 -12.569   4.070  0.00  0.00    +0.113 A 
ATOM     24  C   UNL     1      -7.011 -11.934   3.000  0.00  0.00    +0.020 A 
ENDBRANCH   7  10
BRANCH   9   2
ATOM      1  O   UNL     1      -2.776 -12.192  13.745  0.00  0.00    -0.253 OA
ATOM      2  N   UNL     1      -3.626 -10.269  12.758  0.00  0.00    -0.293 N 
ATOM      5  N   UNL     1      -3.368 -10.365  15.046  0.00  0.00    -0.295 N 
ATOM     17  C   UNL     1      -3.216 -11.048  13.842  0.00  0.00    +0.300 C 
ATOM     30  H   UNL     1      -4.020  -9.353  12.956  0.00  0.00    +0.151 HD
ATOM     31  H   UNL     1      -3.718  -9.411  15.027  0.00  0.00    +0.151 HD
BRANCH   5  20
ATOM     20  C   UNL     1      -3.019 -10.943  16.323  0.00  0.00    +0.141 C 
BRANCH  20  21
ATOM     21  C   UNL     1      -4.180 -10.946  17.275  0.00  0.00    -0.030 A 
ATOM     25  C   UNL     1      -4.082 -11.621  18.492  0.00  0.00    +0.005 A 
ATOM     26  C   UNL     1      -5.356 -10.273  16.944  0.00  0.00    +0.005 A 
ATOM     27  C   UNL     1      -5.160 -11.623  19.377  0.00  0.00    +0.000 A 
ATOM     28  C   UNL     1      -6.434 -10.276  17.828  0.00  0.00    +0.000 A 
ATOM     29  C   UNL     1      -6.336 -10.950  19.045  0.00  0.00    +0.000 A 
ENDBRANCH  20  21
ENDBRANCH   5  20
ENDBRANCH   9   2
TORSDOF 4
ENDMDL
MODEL 3
REMARK VINA RESULT:      -7.3     21.232     22.600
REMARK  Name = 40777542
REMARK  6 active torsions:
REMARK  status: ('A' for Active; 'I' for Inactive)
REMARK    1  A    between atoms: N_2  and  C_9
REMARK    2  A    between atoms: N_5  and  C_20
REMARK    3  A    between atoms: C_7  and  C_10
REMARK    4  A    between atoms: C_13  and  C_15
REMARK    5  A    between atoms: C_14  and  C_16
REMARK    6  A    between atoms: C_20  and  C_21
REMARK                            x       y       z     vdW  Elec       q    Type
REMARK                         _______ _______ _______ _____ _____    ______ ____
ROOT
ATOM      7  C   UNL     1     -14.480   6.289  22.177  0.00  0.00    +0.047 C 
ATOM      8  C   UNL     1     -15.214   6.772  23.445  0.00  0.00    +0.039 C 
ATOM      9  C   UNL     1     -16.247   5.686  23.770  0.00  0.00    +0.098 C 
ATOM     11  C   UNL     1     -15.460   5.316  21.588  0.00  0.00    -0.021 C 
ATOM     12  C   UNL     1     -16.418   4.988  22.461  0.00  0.00    -0.009 C 
ENDROOT
BRANCH   7  10
ATOM      3  N   UNL     1     -12.972   8.780  19.955  0.00  0.00    -0.218 N 
ATOM      4  N   UNL     1     -14.215   9.291  19.957  0.00  0.00    -0.170 NA
ATOM      6  N   UNL     1     -10.977   8.631  18.717  0.00  0.00    -0.236 NA
ATOM     10  C   UNL     1     -14.076   7.416  21.255  0.00  0.00    +0.003 A 
ATOM     13  C   UNL     1     -12.837   7.657  20.716  0.00  0.00    +0.048 A 
ATOM     14  C   UNL     1     -14.885   8.454  20.752  0.00  0.00    +0.064 A 
ATOM     15  C   UNL     1     -11.562   6.924  20.861  0.00  0.00    +0.066 C 
ATOM     16  C   UNL     1     -16.318   8.688  21.008  0.00  0.00    +0.068 C 
ATOM     18  C   UNL     1     -11.968   9.404  19.213  0.00  0.00    +0.154 A 
ATOM     19  C   UNL     1     -12.047  10.775  19.031  0.00  0.00    +0.048 A 
ATOM     22  C   UNL     1     -11.046  11.392  18.290  0.00  0.00    +0.005 A 
ATOM     23  C   UNL     1     -10.020   9.266  18.002  0.00  0.00    +0.113 A 
ATOM     24  C   UNL     1     -10.009  10.631  17.762  0.00  0.00    +0.020 A 
ENDBRANCH   7  10
BRANCH   9   2
ATOM      1  O   UNL     1     -17.851   4.044  25.519  0.00  0.00    -0.253 OA
ATOM      2  N   UNL     1     -15.775   4.743  24.749  0.00  0.00    -0.293 N 
ATOM      5  N   UNL     1     -15.905   3.156  26.415  0.00  0.00    -0.295 N 
ATOM     17  C   UNL     1     -16.624   3.986  25.558  0.00  0.00    +0.300 C 
ATOM     30  H   UNL     1     -14.774   4.652  24.899  0.00  0.00    +0.151 HD
ATOM     31  H   UNL     1     -14.891   3.157  26.360  0.00  0.00    +0.151 HD
BRANCH   5  20
ATOM     20  C   UNL     1     -16.540   2.266  27.359  0.00  0.00    +0.141 C 
BRANCH  20  21
ATOM     21  C   UNL     1     -15.788   2.192  28.656  0.00  0.00    -0.030 A 
ATOM     25  C   UNL     1     -15.782   1.008  29.393  0.00  0.00    +0.005 A 
ATOM     26  C   UNL     1     -15.093   3.307  29.124  0.00  0.00    +0.005 A 
ATOM     27  C   UNL     1     -15.083   0.939  30.597  0.00  0.00    +0.000 A 
ATOM     28  C   UNL     1     -14.393   3.239  30.328  0.00  0.00    +0.000 A 
ATOM     29  C   UNL     1     -14.388   2.054  31.065  0.00  0.00    +0.000 A 
ENDBRANCH  20  21
ENDBRANCH   5  20
ENDBRANCH   9   2
TORSDOF 4
ENDMDL
MODEL 4
REMARK VINA RESULT:      -7.1     29.559     32.342
REMARK  Name = 40777542
REMARK  6 active torsions:
REMARK  status: ('A' for Active; 'I' for Inactive)
REMARK    1  A    between atoms: N_2  and  C_9
REMARK    2  A    between atoms: N_5  and  C_20
REMARK    3  A    between atoms: C_7  and  C_10
REMARK    4  A    between atoms: C_13  and  C_15
REMARK    5  A    between atoms: C_14  and  C_16
REMARK    6  A    between atoms: C_20  and  C_21
REMARK                            x       y       z     vdW  Elec       q    Type
REMARK                         _______ _______ _______ _____ _____    ______ ____
ROOT
ATOM      7  C   UNL     1      19.092   6.589  21.211  0.00  0.00    +0.047 C 
ATOM      8  C   UNL     1      20.413   6.863  20.464  0.00  0.00    +0.039 C 
ATOM      9  C   UNL     1      21.531   6.415  21.413  0.00  0.00    +0.098 C 
ATOM     11  C   UNL     1      19.535   6.543  22.644  0.00  0.00    -0.021 C 
ATOM     12  C   UNL     1      20.864   6.444  22.749  0.00  0.00    -0.009 C 
ENDROOT
BRANCH   7  10
ATOM      3  N   UNL     1      16.209   8.622  20.223  0.00  0.00    -0.218 N 
ATOM      4  N   UNL     1      16.885   9.593  20.859  0.00  0.00    -0.170 NA
ATOM      6  N   UNL     1      14.063   7.912  19.569  0.00  0.00    -0.236 NA
ATOM     10  C   UNL     1      18.016   7.608  20.914  0.00  0.00    +0.003 A 
ATOM     13  C   UNL     1      16.843   7.414  20.228  0.00  0.00    +0.048 A 
ATOM     14  C   UNL     1      17.989   8.968  21.279  0.00  0.00    +0.064 A 
ATOM     15  C   UNL     1      16.285   6.203  19.592  0.00  0.00    +0.066 C 
ATOM     16  C   UNL     1      19.004   9.721  22.038  0.00  0.00    +0.068 C 
ATOM     18  C   UNL     1      14.975   8.908  19.637  0.00  0.00    +0.154 A 
ATOM     19  C   UNL     1      14.759  10.191  19.164  0.00  0.00    +0.048 A 
ATOM     22  C   UNL     1      13.527  10.473  18.584  0.00  0.00    +0.005 A 
ATOM     23  C   UNL     1      12.878   8.222  18.996  0.00  0.00    +0.113 A 
ATOM     24  C   UNL     1      12.563   9.475  18.494  0.00  0.00    +0.020 A 
ENDBRANCH   7  10
BRANCH   9   2
ATOM      1  O   UNL     1      24.100   5.635  20.353  0.00  0.00    -0.253 OA
ATOM      2  N   UNL     1      21.988   5.078  21.144  0.00  0.00    -0.293 N 
ATOM      5  N   UNL     1      23.434   3.416  20.464  0.00  0.00    -0.295 N 
ATOM     17  C   UNL     1      23.253   4.787  20.628  0.00  0.00    +0.300 C 
ATOM     30  H   UNL     1      21.348   4.302  21.289  0.00  0.00    +0.151 HD
ATOM     31  H   UNL     1      22.686   2.787  20.742  0.00  0.00    +0.151 HD
BRANCH   5  20
ATOM     20  C   UNL     1      24.655   2.844  19.946  0.00  0.00    +0.141 C 
BRANCH  20  21
ATOM     21  C   UNL     1      25.398   2.065  20.992  0.00  0.00    -0.030 A 
ATOM     25  C   UNL     1      26.684   2.454  21.368  0.00  0.00    +0.005 A 
ATOM     26  C   UNL     1      24.804   0.953  21.589  0.00  0.00    +0.005 A 
ATOM     27  C   UNL     1      27.375   1.731  22.340  0.00  0.00    +0.000 A 
ATOM     28  C   UNL     1      25.494   0.230  22.560  0.00  0.00    +0.000 A 
ATOM     29  C   UNL     1      26.780   0.619  22.937  0.00  0.00    +0.000 A 
ENDBRANCH  20  21
ENDBRANCH   5  20
ENDBRANCH   9   2
TORSDOF 4
ENDMDL
MODEL 5
REMARK VINA RESULT:      -7.1      4.885      9.185
REMARK  Name = 40777542
REMARK  6 active torsions:
REMARK  status: ('A' for Active; 'I' for Inactive)
REMARK    1  A    between atoms: N_2  and  C_9
REMARK    2  A    between atoms: N_5  and  C_20
REMARK    3  A    between atoms: C_7  and  C_10
REMARK    4  A    between atoms: C_13  and  C_15
REMARK    5  A    between atoms: C_14  and  C_16
REMARK    6  A    between atoms: C_20  and  C_21
REMARK                            x       y       z     vdW  Elec       q    Type
REMARK                         _______ _______ _______ _____ _____    ______ ____
ROOT
ATOM      7  C   UNL     1      -8.037  -8.536   9.258  0.00  0.00    +0.047 C 
ATOM      8  C   UNL     1      -7.974  -7.163   8.556  0.00  0.00    +0.039 C 
ATOM      9  C   UNL     1      -9.162  -7.133   7.587  0.00  0.00    +0.098 C 
ATOM     11  C   UNL     1      -8.855  -9.351   8.299  0.00  0.00    -0.021 C 
ATOM     12  C   UNL     1      -9.469  -8.582   7.394  0.00  0.00    -0.009 C 
ENDROOT
BRANCH   7  10
ATOM      3  N   UNL     1      -4.864  -9.810  10.574  0.00  0.00    -0.218 N 
ATOM      4  N   UNL     1      -4.615 -10.056   9.277  0.00  0.00    -0.170 NA
ATOM      6  N   UNL     1      -4.344 -10.473  12.771  0.00  0.00    -0.236 NA
ATOM     10  C   UNL     1      -6.674  -9.109   9.572  0.00  0.00    +0.003 A 
ATOM     13  C   UNL     1      -6.084  -9.244  10.804  0.00  0.00    +0.048 A 
ATOM     14  C   UNL     1      -5.724  -9.625   8.669  0.00  0.00    +0.064 A 
ATOM     15  C   UNL     1      -6.572  -8.889  12.153  0.00  0.00    +0.066 C 
ATOM     16  C   UNL     1      -5.833  -9.728   7.203  0.00  0.00    +0.068 C 
ATOM     18  C   UNL     1      -3.908 -10.136  11.537  0.00  0.00    +0.154 A 
ATOM     19  C   UNL     1      -2.573 -10.096  11.169  0.00  0.00    +0.048 A 
ATOM     22  C   UNL     1      -1.624 -10.424  12.130  0.00  0.00    +0.005 A 
ATOM     23  C   UNL     1      -3.392 -10.784  13.680  0.00  0.00    +0.113 A 
ATOM     24  C   UNL     1      -2.032 -10.776  13.412  0.00  0.00    +0.020 A 
ENDBRANCH   7  10
BRANCH   9   2
ATOM      1  O   UNL     1      -9.297  -4.452   8.646  0.00  0.00    -0.253 OA
ATOM      2  N   UNL     1     -10.316  -6.477   8.142  0.00  0.00    -0.293 N 
ATOM      5  N   UNL     1     -11.545  -4.786   9.112  0.00  0.00    -0.295 N 
ATOM     17  C   UNL     1     -10.295  -5.171   8.635  0.00  0.00    +0.300 C 
ATOM     30  H   UNL     1     -11.184  -7.000   8.226  0.00  0.00    +0.151 HD
ATOM     31  H   UNL     1     -12.319  -5.439   9.039  0.00  0.00    +0.151 HD
BRANCH   5  20
ATOM     20  C   UNL     1     -11.799  -3.481   9.678  0.00  0.00    +0.141 C 
BRANCH  20  21
ATOM     21  C   UNL     1     -12.787  -3.541  10.806  0.00  0.00    -0.030 A 
ATOM     25  C   UNL     1     -12.374  -3.949  12.074  0.00  0.00    +0.005 A 
ATOM     26  C   UNL     1     -14.119  -3.187  10.588  0.00  0.00    +0.005 A 
ATOM     27  C   UNL     1     -13.292  -4.004  13.123  0.00  0.00    +0.000 A 
ATOM     28  C   UNL     1     -15.036  -3.242  11.636  0.00  0.00    +0.000 A 
ATOM     29  C   UNL     1     -14.623  -3.650  12.904  0.00  0.00    +0.000 A 
ENDBRANCH  20  21
ENDBRANCH   5  20
ENDBRANCH   9   2
TORSDOF 4
ENDMDL
MODEL 6
REMARK VINA RESULT:      -6.8     29.143     32.552
REMARK  Name = 40777542
REMARK  6 active torsions:
REMARK  status: ('A' for Active; 'I' for Inactive)
REMARK    1  A    between atoms: N_2  and  C_9
REMARK    2  A    between atoms: N_5  and  C_20
REMARK    3  A    between atoms: C_7  and  C_10
REMARK    4  A    between atoms: C_13  and  C_15
REMARK    5  A    between atoms: C_14  and  C_16
REMARK    6  A    between atoms: C_20  and  C_21
REMARK                            x       y       z     vdW  Elec       q    Type
REMARK                         _______ _______ _______ _____ _____    ______ ____
ROOT
ATOM      7  C   UNL     1      20.633   7.143  20.707  0.00  0.00    +0.047 C 
ATOM      8  C   UNL     1      19.415   6.234  20.445  0.00  0.00    +0.039 C 
ATOM      9  C   UNL     1      18.267   6.823  21.274  0.00  0.00    +0.098 C 
ATOM     11  C   UNL     1      20.274   7.795  22.010  0.00  0.00    -0.021 C 
ATOM     12  C   UNL     1      18.984   7.622  22.312  0.00  0.00    -0.009 C 
ENDROOT
BRANCH   7  10
ATOM      3  N   UNL     1      23.498   4.867  20.893  0.00  0.00    -0.218 N 
ATOM      4  N   UNL     1      24.180   5.959  20.507  0.00  0.00    -0.170 NA
ATOM      6  N   UNL     1      23.511   2.514  20.886  0.00  0.00    -0.236 NA
ATOM     10  C   UNL     1      21.946   6.393  20.716  0.00  0.00    +0.003 A 
ATOM     13  C   UNL     1      22.158   5.074  21.032  0.00  0.00    +0.048 A 
ATOM     14  C   UNL     1      23.226   6.888  20.400  0.00  0.00    +0.064 A 
ATOM     15  C   UNL     1      21.212   4.017  21.446  0.00  0.00    +0.066 C 
ATOM     16  C   UNL     1      23.590   8.256  19.986  0.00  0.00    +0.068 C 
ATOM     18  C   UNL     1      24.179   3.668  21.111  0.00  0.00    +0.154 A 
ATOM     19  C   UNL     1      25.493   3.733  21.542  0.00  0.00    +0.048 A 
ATOM     22  C   UNL     1      26.168   2.536  21.755  0.00  0.00    +0.005 A 
ATOM     23  C   UNL     1      24.199   1.371  21.106  0.00  0.00    +0.113 A 
ATOM     24  C   UNL     1      25.515   1.328  21.536  0.00  0.00    +0.020 A 
ENDBRANCH   7  10
BRANCH   9   2
ATOM      1  O   UNL     1      15.664   6.211  20.189  0.00  0.00    -0.253 OA
ATOM      2  N   UNL     1      17.419   7.697  20.509  0.00  0.00    -0.293 N 
ATOM      5  N   UNL     1      15.562   8.356  19.313  0.00  0.00    -0.295 N 
ATOM     17  C   UNL     1      16.167   7.320  20.019  0.00  0.00    +0.300 C 
ATOM     30  H   UNL     1      17.760   8.624  20.267  0.00  0.00    +0.151 HD
ATOM     31  H   UNL     1      16.043   9.248  19.244  0.00  0.00    +0.151 HD
BRANCH   5  20
ATOM     20  C   UNL     1      14.259   8.230  18.701  0.00  0.00    +0.141 C 
BRANCH  20  21
ATOM     21  C   UNL     1      13.158   8.644  19.632  0.00  0.00    -0.030 A 
ATOM     25  C   UNL     1      13.385   9.639  20.583  0.00  0.00    +0.005 A 
ATOM     26  C   UNL     1      11.906   8.035  19.548  0.00  0.00    +0.005 A 
ATOM     27  C   UNL     1      12.362  10.024  21.449  0.00  0.00    +0.000 A 
ATOM     28  C   UNL     1      10.883   8.419  20.413  0.00  0.00    +0.000 A 
ATOM     29  C   UNL     1      11.110   9.414  21.364  0.00  0.00    +0.000 A 
ENDBRANCH  20  21
ENDBRANCH   5  20
ENDBRANCH   9   2
TORSDOF 4
ENDMDL
MODEL 7
REMARK VINA RESULT:      -6.8     23.729     25.528
REMARK  Name = 40777542
REMARK  6 active torsions:
REMARK  status: ('A' for Active; 'I' for Inactive)
REMARK    1  A    between atoms: N_2  and  C_9
REMARK    2  A    between atoms: N_5  and  C_20
REMARK    3  A    between atoms: C_7  and  C_10
REMARK    4  A    between atoms: C_13  and  C_15
REMARK    5  A    between atoms: C_14  and  C_16
REMARK    6  A    between atoms: C_20  and  C_21
REMARK                            x       y       z     vdW  Elec       q    Type
REMARK                         _______ _______ _______ _____ _____    ______ ____
ROOT
ATOM      7  C   UNL     1      13.366   4.398   0.012  0.00  0.00    +0.047 C 
ATOM      8  C   UNL     1      12.133   5.171   0.522  0.00  0.00    +0.039 C 
ATOM      9  C   UNL     1      11.771   4.538   1.872  0.00  0.00    +0.098 C 
ATOM     11  C   UNL     1      13.278   3.108   0.774  0.00  0.00    -0.021 C 
ATOM     12  C   UNL     1      12.411   3.191   1.788  0.00  0.00    -0.009 C 
ENDROOT
BRANCH   7  10
ATOM      3  N   UNL     1      12.904   3.787  -3.571  0.00  0.00    -0.218 N 
ATOM      4  N   UNL     1      14.125   4.343  -3.654  0.00  0.00    -0.170 NA
ATOM      6  N   UNL     1      10.907   3.395  -4.750  0.00  0.00    -0.236 NA
ATOM     10  C   UNL     1      13.394   4.243  -1.492  0.00  0.00    +0.003 A 
ATOM     13  C   UNL     1      12.422   3.705  -2.298  0.00  0.00    +0.048 A 
ATOM     14  C   UNL     1      14.419   4.620  -2.381  0.00  0.00    +0.064 A 
ATOM     15  C   UNL     1      11.101   3.132  -1.967  0.00  0.00    +0.066 C 
ATOM     16  C   UNL     1      15.710   5.253  -2.057  0.00  0.00    +0.068 C 
ATOM     18  C   UNL     1      12.258   3.359  -4.731  0.00  0.00    +0.154 A 
ATOM     19  C   UNL     1      13.038   2.926  -5.791  0.00  0.00    +0.048 A 
ATOM     22  C   UNL     1      12.390   2.503  -6.945  0.00  0.00    +0.005 A 
ATOM     23  C   UNL     1      10.311   2.975  -5.890  0.00  0.00    +0.113 A 
ATOM     24  C   UNL     1      11.001   2.525  -7.004  0.00  0.00    +0.020 A 
ENDBRANCH   7  10
BRANCH   9   2
ATOM      1  O   UNL     1      10.479   6.587   3.440  0.00  0.00    -0.253 OA
ATOM      2  N   UNL     1      12.327   5.255   2.989  0.00  0.00    -0.293 N 
ATOM      5  N   UNL     1      12.401   6.768   4.726  0.00  0.00    -0.295 N 
ATOM     17  C   UNL     1      11.629   6.237   3.696  0.00  0.00    +0.300 C 
ATOM     30  H   UNL     1      13.292   5.078   3.255  0.00  0.00    +0.151 HD
ATOM     31  H   UNL     1      13.335   6.399   4.879  0.00  0.00    +0.151 HD
BRANCH   5  20
ATOM     20  C   UNL     1      11.918   7.802   5.612  0.00  0.00    +0.141 C 
BRANCH  20  21
ATOM     21  C   UNL     1      10.947   7.267   6.624  0.00  0.00    -0.030 A 
ATOM     25  C   UNL     1      11.316   6.207   7.452  0.00  0.00    +0.005 A 
ATOM     26  C   UNL     1       9.676   7.829   6.737  0.00  0.00    +0.005 A 
ATOM     27  C   UNL     1      10.415   5.710   8.393  0.00  0.00    +0.000 A 
ATOM     28  C   UNL     1       8.774   7.333   7.677  0.00  0.00    +0.000 A 
ATOM     29  C   UNL     1       9.143   6.273   8.506  0.00  0.00    +0.000 A 
ENDBRANCH  20  21
ENDBRANCH   5  20
ENDBRANCH   9   2
TORSDOF 4
ENDMDL
MODEL 8
REMARK VINA RESULT:      -6.7      6.089      9.321
REMARK  Name = 40777542
REMARK  6 active torsions:
REMARK  status: ('A' for Active; 'I' for Inactive)
REMARK    1  A    between atoms: N_2  and  C_9
REMARK    2  A    between atoms: N_5  and  C_20
REMARK    3  A    between atoms: C_7  and  C_10
REMARK    4  A    between atoms: C_13  and  C_15
REMARK    5  A    between atoms: C_14  and  C_16
REMARK    6  A    between atoms: C_20  and  C_21
REMARK                            x       y       z     vdW  Elec       q    Type
REMARK                         _______ _______ _______ _____ _____    ______ ____
ROOT
ATOM      7  C   UNL     1      -2.924 -13.931   4.611  0.00  0.00    +0.047 C 
ATOM      8  C   UNL     1      -3.367 -12.488   4.931  0.00  0.00    +0.039 C 
ATOM      9  C   UNL     1      -4.850 -12.579   5.310  0.00  0.00    +0.098 C 
ATOM     11  C   UNL     1      -4.228 -14.606   4.299  0.00  0.00    -0.021 C 
ATOM     12  C   UNL     1      -5.273 -13.868   4.685  0.00  0.00    -0.009 C 
ENDROOT
BRANCH   7  10
ATOM      3  N   UNL     1      -0.074 -14.347   2.347  0.00  0.00    -0.218 N 
ATOM      4  N   UNL     1      -0.923 -13.818   1.449  0.00  0.00    -0.170 NA
ATOM      6  N   UNL     1       1.814 -15.728   2.598  0.00  0.00    -0.236 NA
ATOM     10  C   UNL     1      -1.892 -14.008   3.509  0.00  0.00    +0.003 A 
ATOM     13  C   UNL     1      -0.607 -14.482   3.595  0.00  0.00    +0.048 A 
ATOM     14  C   UNL     1      -2.032 -13.613   2.165  0.00  0.00    +0.064 A 
ATOM     15  C   UNL     1       0.141 -15.042   4.740  0.00  0.00    +0.066 C 
ATOM     16  C   UNL     1      -3.217 -13.029   1.512  0.00  0.00    +0.068 C 
ATOM     18  C   UNL     1       1.218 -14.699   1.955  0.00  0.00    +0.154 A 
ATOM     19  C   UNL     1       1.809 -13.977   0.932  0.00  0.00    +0.048 A 
ATOM     22  C   UNL     1       3.095 -14.332   0.543  0.00  0.00    +0.005 A 
ATOM     23  C   UNL     1       3.065 -16.044   2.194  0.00  0.00    +0.113 A 
ATOM     24  C   UNL     1       3.743 -15.384   1.180  0.00  0.00    +0.020 A 
ENDBRANCH   7  10
BRANCH   9   2
ATOM      1  O   UNL     1      -4.987 -10.375   7.167  0.00  0.00    -0.253 OA
ATOM      2  N   UNL     1      -5.058 -12.655   6.731  0.00  0.00    -0.293 N 
ATOM      5  N   UNL     1      -5.321 -11.891   8.890  0.00  0.00    -0.295 N 
ATOM     17  C   UNL     1      -5.111 -11.533   7.561  0.00  0.00    +0.300 C 
ATOM     30  H   UNL     1      -5.124 -13.569   7.170  0.00  0.00    +0.151 HD
ATOM     31  H   UNL     1      -5.437 -12.873   9.120  0.00  0.00    +0.151 HD
BRANCH   5  20
ATOM     20  C   UNL     1      -5.417 -10.921   9.957  0.00  0.00    +0.141 C 
BRANCH  20  21
ATOM     21  C   UNL     1      -4.077 -10.619  10.564  0.00  0.00    -0.030 A 
ATOM     25  C   UNL     1      -3.519 -11.497  11.493  0.00  0.00    +0.005 A 
ATOM     26  C   UNL     1      -3.389  -9.463  10.198  0.00  0.00    +0.005 A 
ATOM     27  C   UNL     1      -2.275 -11.218  12.057  0.00  0.00    +0.000 A 
ATOM     28  C   UNL     1      -2.145  -9.183  10.761  0.00  0.00    +0.000 A 
ATOM     29  C   UNL     1      -1.587 -10.061  11.691  0.00  0.00    +0.000 A 
ENDBRANCH  20  21
ENDBRANCH   5  20
ENDBRANCH   9   2
TORSDOF 4
ENDMDL
MODEL 9
REMARK VINA RESULT:      -6.6      7.467     10.836
REMARK  Name = 40777542
REMARK  6 active torsions:
REMARK  status: ('A' for Active; 'I' for Inactive)
REMARK    1  A    between atoms: N_2  and  C_9
REMARK    2  A    between atoms: N_5  and  C_20
REMARK    3  A    between atoms: C_7  and  C_10
REMARK    4  A    between atoms: C_13  and  C_15
REMARK    5  A    between atoms: C_14  and  C_16
REMARK    6  A    between atoms: C_20  and  C_21
REMARK                            x       y       z     vdW  Elec       q    Type
REMARK                         _______ _______ _______ _____ _____    ______ ____
ROOT
ATOM      7  C   UNL     1      -2.066 -14.124   2.670  0.00  0.00    +0.047 C 
ATOM      8  C   UNL     1      -2.485 -12.706   3.108  0.00  0.00    +0.039 C 
ATOM      9  C   UNL     1      -4.003 -12.764   3.318  0.00  0.00    +0.098 C 
ATOM     11  C   UNL     1      -3.353 -14.694   2.148  0.00  0.00    -0.021 C 
ATOM     12  C   UNL     1      -4.405 -13.953   2.507  0.00  0.00    -0.009 C 
ENDROOT
BRANCH   7  10
ATOM      3  N   UNL     1       1.027 -14.319   0.716  0.00  0.00    -0.218 N 
ATOM      4  N   UNL     1       0.228 -13.903  -0.281  0.00  0.00    -0.170 NA
ATOM      6  N   UNL     1       3.005 -15.496   1.206  0.00  0.00    -0.236 NA
ATOM     10  C   UNL     1      -0.924 -14.130   1.679  0.00  0.00    +0.003 A 
ATOM     13  C   UNL     1       0.386 -14.470   1.910  0.00  0.00    +0.048 A 
ATOM     14  C   UNL     1      -0.963 -13.789   0.313  0.00  0.00    +0.064 A 
ATOM     15  C   UNL     1       1.064 -14.919   3.144  0.00  0.00    +0.066 C 
ATOM     16  C   UNL     1      -2.126 -13.346  -0.476  0.00  0.00    +0.068 C 
ATOM     18  C   UNL     1       2.381 -14.552   0.467  0.00  0.00    +0.154 A 
ATOM     19  C   UNL     1       3.001 -13.803  -0.519  0.00  0.00    +0.048 A 
ATOM     22  C   UNL     1       4.348 -14.040  -0.765  0.00  0.00    +0.005 A 
ATOM     23  C   UNL     1       4.315 -15.698   0.940  0.00  0.00    +0.113 A 
ATOM     24  C   UNL     1       5.026 -15.003  -0.026  0.00  0.00    +0.020 A 
ENDBRANCH   7  10
BRANCH   9   2
ATOM      1  O   UNL     1      -5.448 -10.963   5.048  0.00  0.00    -0.253 OA
ATOM      2  N   UNL     1      -4.367 -12.987   4.692  0.00  0.00    -0.293 N 
ATOM      5  N   UNL     1      -5.288 -12.526   6.754  0.00  0.00    -0.295 N 
ATOM     17  C   UNL     1      -5.070 -12.057   5.461  0.00  0.00    +0.300 C 
ATOM     30  H   UNL     1      -4.060 -13.841   5.148  0.00  0.00    +0.151 HD
ATOM     31  H   UNL     1      -4.960 -13.456   6.999  0.00  0.00    +0.151 HD
BRANCH   5  20
ATOM     20  C   UNL     1      -5.993 -11.761   7.756  0.00  0.00    +0.141 C 
BRANCH  20  21
ATOM     21  C   UNL     1      -5.054 -10.994   8.641  0.00  0.00    -0.030 A 
ATOM     25  C   UNL     1      -4.354 -11.652   9.652  0.00  0.00    +0.005 A 
ATOM     26  C   UNL     1      -4.879  -9.623   8.451  0.00  0.00    +0.005 A 
ATOM     27  C   UNL     1      -3.480 -10.939  10.474  0.00  0.00    +0.000 A 
ATOM     28  C   UNL     1      -4.006  -8.910   9.272  0.00  0.00    +0.000 A 
ATOM     29  C   UNL     1      -3.306  -9.569  10.284  0.00  0.00    +0.000 A 
ENDBRANCH  20  21
ENDBRANCH   5  20
ENDBRANCH   9   2
TORSDOF 4
ENDMDL
MODEL 10
REMARK VINA RESULT:      -6.6     22.905     26.501
REMARK  Name = 40777542
REMARK  6 active torsions:
REMARK  status: ('A' for Active; 'I' for Inactive)
REMARK    1  A    between atoms: N_2  and  C_9
REMARK    2  A    between atoms: N_5  and  C_20
REMARK    3  A    between atoms: C_7  and  C_10
REMARK    4  A    between atoms: C_13  and  C_15
REMARK    5  A    between atoms: C_14  and  C_16
REMARK    6  A    between atoms: C_20  and  C_21
REMARK                            x       y       z     vdW  Elec       q    Type
REMARK                         _______ _______ _______ _____ _____    ______ ____
ROOT
ATOM      7  C   UNL     1      10.035   4.610  -4.287  0.00  0.00    +0.047 C 
ATOM      8  C   UNL     1       8.738   4.414  -3.475  0.00  0.00    +0.039 C 
ATOM      9  C   UNL     1       7.783   5.521  -3.937  0.00  0.00    +0.098 C 
ATOM     11  C   UNL     1       9.940   6.048  -4.705  0.00  0.00    -0.021 C 
ATOM     12  C   UNL     1       8.711   6.538  -4.517  0.00  0.00    -0.009 C 
ENDROOT
BRANCH   7  10
ATOM      3  N   UNL     1      12.754   3.899  -1.937  0.00  0.00    -0.218 N 
ATOM      4  N   UNL     1      13.418   3.580  -3.060  0.00  0.00    -0.170 NA
ATOM      6  N   UNL     1      12.630   3.505   0.380  0.00  0.00    -0.236 NA
ATOM     10  C   UNL     1      11.284   4.258  -3.512  0.00  0.00    +0.003 A 
ATOM     13  C   UNL     1      11.471   4.311  -2.154  0.00  0.00    +0.048 A 
ATOM     14  C   UNL     1      12.516   3.801  -4.019  0.00  0.00    +0.064 A 
ATOM     15  C   UNL     1      10.553   4.710  -1.067  0.00  0.00    +0.066 C 
ATOM     16  C   UNL     1      12.880   3.557  -5.427  0.00  0.00    +0.068 C 
ATOM     18  C   UNL     1      13.391   3.791  -0.700  0.00  0.00    +0.154 A 
ATOM     19  C   UNL     1      14.762   3.981  -0.654  0.00  0.00    +0.048 A 
ATOM     22  C   UNL     1      15.394   3.871   0.579  0.00  0.00    +0.005 A 
ATOM     23  C   UNL     1      13.279   3.407   1.562  0.00  0.00    +0.113 A 
ATOM     24  C   UNL     1      14.645   3.578   1.713  0.00  0.00    +0.020 A 
ENDBRANCH   7  10
BRANCH   9   2
ATOM      1  O   UNL     1       5.015   6.276  -4.242  0.00  0.00    -0.253 OA
ATOM      2  N   UNL     1       6.871   5.079  -4.958  0.00  0.00    -0.293 N 
ATOM      5  N   UNL     1       4.885   4.915  -6.116  0.00  0.00    -0.295 N 
ATOM     17  C   UNL     1       5.541   5.496  -5.033  0.00  0.00    +0.300 C 
ATOM     30  H   UNL     1       7.190   4.393  -5.636  0.00  0.00    +0.151 HD
ATOM     31  H   UNL     1       5.408   4.300  -6.732  0.00  0.00    +0.151 HD
BRANCH   5  20
ATOM     20  C   UNL     1       3.498   5.177  -6.423  0.00  0.00    +0.141 C 
BRANCH  20  21
ATOM     21  C   UNL     1       2.584   4.159  -5.806  0.00  0.00    -0.030 A 
ATOM     25  C   UNL     1       2.682   2.818  -6.176  0.00  0.00    +0.005 A 
ATOM     26  C   UNL     1       1.637   4.553  -4.861  0.00  0.00    +0.005 A 
ATOM     27  C   UNL     1       1.833   1.872  -5.602  0.00  0.00    +0.000 A 
ATOM     28  C   UNL     1       0.788   3.608  -4.287  0.00  0.00    +0.000 A 
ATOM     29  C   UNL     1       0.886   2.267  -4.657  0.00  0.00    +0.000 A 
ENDBRANCH  20  21
ENDBRANCH   5  20
ENDBRANCH   9   2
TORSDOF 4
ENDMDL
