MODEL 1
REMARK VINA RESULT:      -6.7      0.000      0.000
REMARK  Name = 71693114
REMARK  12 active torsions:
REMARK  status: ('A' for Active; 'I' for Inactive)
REMARK    1  A    between atoms: O_3  and  C_30
REMARK    2  A    between atoms: N_5  and  C_15
REMARK    3  A    between atoms: C_8  and  C_12
REMARK    4  A    between atoms: C_9  and  C_15
REMARK    5  A    between atoms: C_11  and  C_16
REMARK    6  A    between atoms: C_12  and  C_17
REMARK    7  A    between atoms: C_12  and  C_18
REMARK    8  A    between atoms: C_13  and  C_19
REMARK    9  A    between atoms: C_16  and  C_20
REMARK   10  A    between atoms: C_21  and  C_24
REMARK   11  A    between atoms: C_24  and  C_27
REMARK   12  A    between atoms: C_27  and  C_30
REMARK                            x       y       z     vdW  Elec       q    Type
REMARK                         _______ _______ _______ _____ _____    ______ ____
ROOT
ATOM      8  C   UNL     1      -9.405  -9.421  16.864  0.00  0.00    +0.000 C 
ATOM      9  C   UNL     1      -9.892 -10.807  17.353  0.00  0.00    +0.032 C 
ATOM     10  C   UNL     1      -9.180  -9.436  15.345  0.00  0.00    +0.012 C 
ATOM     11  C   UNL     1      -8.144 -10.493  14.920  0.00  0.00    +0.022 C 
ATOM     13  C   UNL     1      -8.404 -11.833  15.580  0.00  0.00    -0.073 C 
ATOM     14  C   UNL     1      -9.200 -11.956  16.658  0.00  0.00    -0.022 C 
ATOM     19  C   UNL     1      -7.767 -13.037  14.943  0.00  0.00    +0.039 C 
ENDROOT
BRANCH   8  12
ATOM     12  C   UNL     1     -10.393  -8.308  17.231  0.00  0.00    -0.013 C 
ATOM     17  C   UNL     1     -10.219  -7.112  16.301  0.00  0.00    +0.007 C 
ATOM     18  C   UNL     1     -11.826  -8.832  17.177  0.00  0.00    +0.007 C 
ENDBRANCH   8  12
BRANCH   9  15
ATOM     15  C   UNL     1      -9.721 -10.951  18.869  0.00  0.00    +0.112 C 
BRANCH  15   5
ATOM      2  O   UNL     1      -7.786 -12.874  19.835  0.00  0.00    -0.276 OA
ATOM      5  N   UNL     1      -8.368 -10.697  19.254  0.00  0.00    -0.315 N 
ATOM     21  C   UNL     1      -7.496 -11.687  19.711  0.00  0.00    +0.214 C 
ATOM     31  H   UNL     1      -8.006  -9.755  19.136  0.00  0.00    +0.149 HD
BRANCH  21  24
ATOM     24  C   UNL     1      -6.125 -11.129  20.047  0.00  0.00    +0.107 C 
BRANCH  24  27
ATOM     27  C   UNL     1      -5.137 -11.274  18.894  0.00  0.00    +0.129 C 
BRANCH  27  30
ATOM      4  O   UNL     1      -3.138 -12.209  19.919  0.00  0.00    -0.251 OA
ATOM     30  C   UNL     1      -4.097 -12.334  19.169  0.00  0.00    +0.305 C 
BRANCH  30   3
ATOM      3  O   UNL     1      -4.351 -13.473  18.473  0.00  0.00    -0.481 OA
ATOM     33  H   UNL     1      -4.602 -13.284  17.543  0.00  0.00    +0.295 HD
ENDBRANCH  30   3
ENDBRANCH  27  30
ENDBRANCH  24  27
ENDBRANCH  21  24
ENDBRANCH  15   5
ENDBRANCH   9  15
BRANCH  11  16
ATOM     16  C   UNL     1      -6.716 -10.013  15.201  0.00  0.00    +0.082 C 
BRANCH  16  20
ATOM      1  F   UNL     1      -4.028  -8.532   8.627  0.00  0.00    -0.205 F 
ATOM      6  N   UNL     1      -6.310  -9.134  12.894  0.00  0.00    -0.342 N 
ATOM      7  N   UNL     1      -4.782 -10.547  13.678  0.00  0.00    -0.232 NA
ATOM     20  C   UNL     1      -5.909  -9.922  13.938  0.00  0.00    +0.109 A 
ATOM     22  C   UNL     1      -5.379  -9.258  11.895  0.00  0.00    +0.069 A 
ATOM     23  C   UNL     1      -4.436 -10.145  12.408  0.00  0.00    +0.089 A 
ATOM     25  C   UNL     1      -5.283  -8.689  10.626  0.00  0.00    +0.066 A 
ATOM     26  C   UNL     1      -3.326 -10.496  11.621  0.00  0.00    +0.032 A 
ATOM     28  C   UNL     1      -4.171  -9.048   9.856  0.00  0.00    +0.125 A 
ATOM     29  C   UNL     1      -3.209  -9.937  10.343  0.00  0.00    +0.040 A 
ATOM     32  H   UNL     1      -7.142  -8.561  12.864  0.00  0.00    +0.167 HD
ENDBRANCH  16  20
ENDBRANCH  11  16
TORSDOF 9
ENDMDL
MODEL 2
REMARK VINA RESULT:      -6.6     23.666     27.232
REMARK  Name = 71693114
REMARK  12 active torsions:
REMARK  status: ('A' for Active; 'I' for Inactive)
REMARK    1  A    between atoms: O_3  and  C_30
REMARK    2  A    between atoms: N_5  and  C_15
REMARK    3  A    between atoms: C_8  and  C_12
REMARK    4  A    between atoms: C_9  and  C_15
REMARK    5  A    between atoms: C_11  and  C_16
REMARK    6  A    between atoms: C_12  and  C_17
REMARK    7  A    between atoms: C_12  and  C_18
REMARK    8  A    between atoms: C_13  and  C_19
REMARK    9  A    between atoms: C_16  and  C_20
REMARK   10  A    between atoms: C_21  and  C_24
REMARK   11  A    between atoms: C_24  and  C_27
REMARK   12  A    between atoms: C_27  and  C_30
REMARK                            x       y       z     vdW  Elec       q    Type
REMARK                         _______ _______ _______ _____ _____    ______ ____
ROOT
ATOM      8  C   UNL     1      11.790   8.374   4.699  0.00  0.00    +0.000 C 
ATOM      9  C   UNL     1      11.050   9.447   5.535  0.00  0.00    +0.032 C 
ATOM     10  C   UNL     1      11.235   8.333   3.267  0.00  0.00    +0.012 C 
ATOM     11  C   UNL     1       9.727   8.022   3.235  0.00  0.00    +0.022 C 
ATOM     13  C   UNL     1       8.958   8.862   4.236  0.00  0.00    -0.073 C 
ATOM     14  C   UNL     1       9.568   9.503   5.249  0.00  0.00    -0.022 C 
ATOM     19  C   UNL     1       7.475   8.986   4.017  0.00  0.00    +0.039 C 
ENDROOT
BRANCH   8  12
ATOM     12  C   UNL     1      13.302   8.622   4.664  0.00  0.00    -0.013 C 
ATOM     17  C   UNL     1      14.039   7.356   4.240  0.00  0.00    +0.007 C 
ATOM     18  C   UNL     1      13.627   9.779   3.723  0.00  0.00    +0.007 C 
ENDBRANCH   8  12
BRANCH   9  15
ATOM     15  C   UNL     1      11.272   9.229   7.037  0.00  0.00    +0.112 C 
BRANCH  15   5
ATOM      2  O   UNL     1      11.375   6.379   7.523  0.00  0.00    -0.276 OA
ATOM      5  N   UNL     1      10.240   8.409   7.588  0.00  0.00    -0.315 N 
ATOM     21  C   UNL     1      10.371   7.033   7.791  0.00  0.00    +0.214 C 
ATOM     31  H   UNL     1       9.384   8.860   7.898  0.00  0.00    +0.149 HD
BRANCH  21  24
ATOM     24  C   UNL     1       9.117   6.422   8.388  0.00  0.00    +0.107 C 
BRANCH  24  27
ATOM     27  C   UNL     1       9.293   4.947   8.731  0.00  0.00    +0.129 C 
BRANCH  27  30
ATOM      4  O   UNL     1      10.434   4.562  10.846  0.00  0.00    -0.251 OA
ATOM     30  C   UNL     1       9.394   4.720  10.221  0.00  0.00    +0.305 C 
BRANCH  30   3
ATOM      3  O   UNL     1       8.167   4.711  10.807  0.00  0.00    -0.481 OA
ATOM     33  H   UNL     1       8.067   5.441  11.455  0.00  0.00    +0.295 HD
ENDBRANCH  30   3
ENDBRANCH  27  30
ENDBRANCH  24  27
ENDBRANCH  21  24
ENDBRANCH  15   5
ENDBRANCH   9  15
BRANCH  11  16
ATOM     16  C   UNL     1       9.466   6.529   3.457  0.00  0.00    +0.082 C 
BRANCH  16  20
ATOM      1  F   UNL     1      12.776   2.948  -1.915  0.00  0.00    -0.205 F 
ATOM      6  N   UNL     1      10.150   5.566   1.252  0.00  0.00    -0.342 N 
ATOM      7  N   UNL     1      11.400   4.982   2.995  0.00  0.00    -0.232 NA
ATOM     20  C   UNL     1      10.360   5.682   2.598  0.00  0.00    +0.109 A 
ATOM     22  C   UNL     1      11.118   4.736   0.747  0.00  0.00    +0.069 A 
ATOM     23  C   UNL     1      11.885   4.385   1.855  0.00  0.00    +0.089 A 
ATOM     25  C   UNL     1      11.380   4.276  -0.543  0.00  0.00    +0.066 A 
ATOM     26  C   UNL     1      12.983   3.525   1.683  0.00  0.00    +0.032 A 
ATOM     28  C   UNL     1      12.477   3.422  -0.696  0.00  0.00    +0.125 A 
ATOM     29  C   UNL     1      13.266   3.051   0.396  0.00  0.00    +0.040 A 
ATOM     32  H   UNL     1       9.413   6.012   0.722  0.00  0.00    +0.167 HD
ENDBRANCH  16  20
ENDBRANCH  11  16
TORSDOF 9
ENDMDL
MODEL 3
REMARK VINA RESULT:      -6.5     28.468     30.233
REMARK  Name = 71693114
REMARK  12 active torsions:
REMARK  status: ('A' for Active; 'I' for Inactive)
REMARK    1  A    between atoms: O_3  and  C_30
REMARK    2  A    between atoms: N_5  and  C_15
REMARK    3  A    between atoms: C_8  and  C_12
REMARK    4  A    between atoms: C_9  and  C_15
REMARK    5  A    between atoms: C_11  and  C_16
REMARK    6  A    between atoms: C_12  and  C_17
REMARK    7  A    between atoms: C_12  and  C_18
REMARK    8  A    between atoms: C_13  and  C_19
REMARK    9  A    between atoms: C_16  and  C_20
REMARK   10  A    between atoms: C_21  and  C_24
REMARK   11  A    between atoms: C_24  and  C_27
REMARK   12  A    between atoms: C_27  and  C_30
REMARK                            x       y       z     vdW  Elec       q    Type
REMARK                         _______ _______ _______ _____ _____    ______ ____
ROOT
ATOM      8  C   UNL     1      13.032   8.536  20.993  0.00  0.00    +0.000 C 
ATOM      9  C   UNL     1      12.928   9.995  21.499  0.00  0.00    +0.032 C 
ATOM     10  C   UNL     1      14.072   7.757  21.813  0.00  0.00    +0.012 C 
ATOM     11  C   UNL     1      15.470   8.399  21.739  0.00  0.00    +0.022 C 
ATOM     13  C   UNL     1      15.415   9.897  21.964  0.00  0.00    -0.073 C 
ATOM     14  C   UNL     1      14.267  10.591  21.866  0.00  0.00    -0.022 C 
ATOM     19  C   UNL     1      16.701  10.571  22.351  0.00  0.00    +0.039 C 
ENDROOT
BRANCH   8  12
ATOM     12  C   UNL     1      11.681   7.815  21.052  0.00  0.00    -0.013 C 
ATOM     17  C   UNL     1      11.878   6.305  20.970  0.00  0.00    +0.007 C 
ATOM     18  C   UNL     1      10.931   8.196  22.325  0.00  0.00    +0.007 C 
ENDBRANCH   8  12
BRANCH   9  15
ATOM     15  C   UNL     1      12.238  10.892  20.465  0.00  0.00    +0.112 C 
BRANCH  15   5
ATOM      2  O   UNL     1      14.063  12.473  18.871  0.00  0.00    -0.276 OA
ATOM      5  N   UNL     1      12.708  10.602  19.147  0.00  0.00    -0.315 N 
ATOM     21  C   UNL     1      13.593  11.422  18.444  0.00  0.00    +0.214 C 
ATOM     31  H   UNL     1      12.425   9.724  18.721  0.00  0.00    +0.149 HD
BRANCH  21  24
ATOM     24  C   UNL     1      13.918  10.866  17.070  0.00  0.00    +0.107 C 
BRANCH  24  27
ATOM     27  C   UNL     1      14.302   9.391  17.113  0.00  0.00    +0.129 C 
BRANCH  27  30
ATOM      4  O   UNL     1      12.931   8.713  15.221  0.00  0.00    -0.251 OA
ATOM     30  C   UNL     1      13.314   8.526  16.367  0.00  0.00    +0.305 C 
BRANCH  30   3
ATOM      3  O   UNL     1      12.886   7.487  17.132  0.00  0.00    -0.481 OA
ATOM     33  H   UNL     1      13.635   7.002  17.541  0.00  0.00    +0.295 HD
ENDBRANCH  30   3
ENDBRANCH  27  30
ENDBRANCH  24  27
ENDBRANCH  21  24
ENDBRANCH  15   5
ENDBRANCH   9  15
BRANCH  11  16
ATOM     16  C   UNL     1      16.161   8.069  20.412  0.00  0.00    +0.082 C 
BRANCH  16  20
ATOM      1  F   UNL     1      22.323   5.087  22.816  0.00  0.00    -0.205 F 
ATOM      6  N   UNL     1      18.212   7.467  21.711  0.00  0.00    -0.342 N 
ATOM      7  N   UNL     1      17.859   6.293  19.856  0.00  0.00    -0.232 NA
ATOM     20  C   UNL     1      17.405   7.256  20.627  0.00  0.00    +0.109 A 
ATOM     22  C   UNL     1      19.257   6.581  21.633  0.00  0.00    +0.069 A 
ATOM     23  C   UNL     1      19.013   5.860  20.467  0.00  0.00    +0.089 A 
ATOM     25  C   UNL     1      20.359   6.356  22.457  0.00  0.00    +0.066 A 
ATOM     26  C   UNL     1      19.913   4.851  20.085  0.00  0.00    +0.032 A 
ATOM     28  C   UNL     1      21.244   5.347  22.062  0.00  0.00    +0.125 A 
ATOM     29  C   UNL     1      21.027   4.607  20.897  0.00  0.00    +0.040 A 
ATOM     32  H   UNL     1      18.066   8.152  22.440  0.00  0.00    +0.167 HD
ENDBRANCH  16  20
ENDBRANCH  11  16
TORSDOF 9
ENDMDL
MODEL 4
REMARK VINA RESULT:      -6.4     25.371     27.335
REMARK  Name = 71693114
REMARK  12 active torsions:
REMARK  status: ('A' for Active; 'I' for Inactive)
REMARK    1  A    between atoms: O_3  and  C_30
REMARK    2  A    between atoms: N_5  and  C_15
REMARK    3  A    between atoms: C_8  and  C_12
REMARK    4  A    between atoms: C_9  and  C_15
REMARK    5  A    between atoms: C_11  and  C_16
REMARK    6  A    between atoms: C_12  and  C_17
REMARK    7  A    between atoms: C_12  and  C_18
REMARK    8  A    between atoms: C_13  and  C_19
REMARK    9  A    between atoms: C_16  and  C_20
REMARK   10  A    between atoms: C_21  and  C_24
REMARK   11  A    between atoms: C_24  and  C_27
REMARK   12  A    between atoms: C_27  and  C_30
REMARK                            x       y       z     vdW  Elec       q    Type
REMARK                         _______ _______ _______ _____ _____    ______ ____
ROOT
ATOM      8  C   UNL     1       8.767   8.320   5.208  0.00  0.00    +0.000 C 
ATOM      9  C   UNL     1       8.533   7.581   6.548  0.00  0.00    +0.032 C 
ATOM     10  C   UNL     1       8.504   7.378   4.023  0.00  0.00    +0.012 C 
ATOM     11  C   UNL     1       9.408   6.132   4.058  0.00  0.00    +0.022 C 
ATOM     13  C   UNL     1       9.441   5.497   5.434  0.00  0.00    -0.073 C 
ATOM     14  C   UNL     1       9.032   6.156   6.533  0.00  0.00    -0.022 C 
ATOM     19  C   UNL     1       9.908   4.071   5.510  0.00  0.00    +0.039 C 
ENDROOT
BRANCH   8  12
ATOM     12  C   UNL     1       7.886   9.568   5.084  0.00  0.00    -0.013 C 
ATOM     17  C   UNL     1       8.749  10.823   5.000  0.00  0.00    +0.007 C 
ATOM     18  C   UNL     1       6.975   9.455   3.866  0.00  0.00    +0.007 C 
ENDBRANCH   8  12
BRANCH   9  15
ATOM     15  C   UNL     1       9.180   8.335   7.716  0.00  0.00    +0.112 C 
BRANCH  15   5
ATOM      2  O   UNL     1      10.711  10.780   7.932  0.00  0.00    -0.276 OA
ATOM      5  N   UNL     1      10.583   8.498   7.500  0.00  0.00    -0.315 N 
ATOM     21  C   UNL     1      11.248   9.719   7.626  0.00  0.00    +0.214 C 
ATOM     31  H   UNL     1      11.135   7.669   7.298  0.00  0.00    +0.149 HD
BRANCH  21  24
ATOM     24  C   UNL     1      12.733   9.593   7.337  0.00  0.00    +0.107 C 
BRANCH  24  27
ATOM     27  C   UNL     1      13.021   8.674   6.155  0.00  0.00    +0.129 C 
BRANCH  27  30
ATOM      4  O   UNL     1      14.967   7.316   6.692  0.00  0.00    -0.251 OA
ATOM     30  C   UNL     1      13.754   7.422   6.575  0.00  0.00    +0.305 C 
BRANCH  30   3
ATOM      3  O   UNL     1      12.893   6.399   6.816  0.00  0.00    -0.481 OA
ATOM     33  H   UNL     1      12.007   6.723   7.087  0.00  0.00    +0.295 HD
ENDBRANCH  30   3
ENDBRANCH  27  30
ENDBRANCH  24  27
ENDBRANCH  21  24
ENDBRANCH  15   5
ENDBRANCH   9  15
BRANCH  11  16
ATOM     16  C   UNL     1      10.824   6.464   3.574  0.00  0.00    +0.082 C 
BRANCH  16  20
ATOM      1  F   UNL     1      11.322   3.146  -2.859  0.00  0.00    -0.205 F 
ATOM      6  N   UNL     1      10.470   5.660   1.232  0.00  0.00    -0.342 N 
ATOM      7  N   UNL     1      12.233   4.816   2.291  0.00  0.00    -0.232 NA
ATOM     20  C   UNL     1      11.206   5.632   2.384  0.00  0.00    +0.109 A 
ATOM     22  C   UNL     1      11.061   4.805   0.337  0.00  0.00    +0.069 A 
ATOM     23  C   UNL     1      12.158   4.291   1.022  0.00  0.00    +0.089 A 
ATOM     25  C   UNL     1      10.739   4.448  -0.973  0.00  0.00    +0.066 A 
ATOM     26  C   UNL     1      12.996   3.365   0.377  0.00  0.00    +0.032 A 
ATOM     28  C   UNL     1      11.584   3.526  -1.599  0.00  0.00    +0.125 A 
ATOM     29  C   UNL     1      12.692   2.992  -0.938  0.00  0.00    +0.040 A 
ATOM     32  H   UNL     1       9.638   6.212   1.068  0.00  0.00    +0.167 HD
ENDBRANCH  16  20
ENDBRANCH  11  16
TORSDOF 9
ENDMDL
MODEL 5
REMARK VINA RESULT:      -6.4     24.959     27.437
REMARK  Name = 71693114
REMARK  12 active torsions:
REMARK  status: ('A' for Active; 'I' for Inactive)
REMARK    1  A    between atoms: O_3  and  C_30
REMARK    2  A    between atoms: N_5  and  C_15
REMARK    3  A    between atoms: C_8  and  C_12
REMARK    4  A    between atoms: C_9  and  C_15
REMARK    5  A    between atoms: C_11  and  C_16
REMARK    6  A    between atoms: C_12  and  C_17
REMARK    7  A    between atoms: C_12  and  C_18
REMARK    8  A    between atoms: C_13  and  C_19
REMARK    9  A    between atoms: C_16  and  C_20
REMARK   10  A    between atoms: C_21  and  C_24
REMARK   11  A    between atoms: C_24  and  C_27
REMARK   12  A    between atoms: C_27  and  C_30
REMARK                            x       y       z     vdW  Elec       q    Type
REMARK                         _______ _______ _______ _____ _____    ______ ____
ROOT
ATOM      8  C   UNL     1       9.116   8.190   5.053  0.00  0.00    +0.000 C 
ATOM      9  C   UNL     1       8.757   8.964   6.345  0.00  0.00    +0.032 C 
ATOM     10  C   UNL     1       8.538   6.768   5.102  0.00  0.00    +0.012 C 
ATOM     11  C   UNL     1       9.060   5.968   6.310  0.00  0.00    +0.022 C 
ATOM     13  C   UNL     1       8.986   6.773   7.593  0.00  0.00    -0.073 C 
ATOM     14  C   UNL     1       8.836   8.109   7.588  0.00  0.00    -0.022 C 
ATOM     19  C   UNL     1       9.041   6.000   8.881  0.00  0.00    +0.039 C 
ENDROOT
BRANCH   8  12
ATOM     12  C   UNL     1       8.614   8.912   3.798  0.00  0.00    -0.013 C 
ATOM     17  C   UNL     1       8.816   8.039   2.564  0.00  0.00    +0.007 C 
ATOM     18  C   UNL     1       7.145   9.292   3.958  0.00  0.00    +0.007 C 
ENDBRANCH   8  12
BRANCH   9  15
ATOM     15  C   UNL     1       9.649  10.199   6.517  0.00  0.00    +0.112 C 
BRANCH  15   5
ATOM      2  O   UNL     1      11.748  10.500   8.486  0.00  0.00    -0.276 OA
ATOM      5  N   UNL     1      11.028   9.853   6.371  0.00  0.00    -0.315 N 
ATOM     21  C   UNL     1      11.981  10.031   7.375  0.00  0.00    +0.214 C 
ATOM     31  H   UNL     1      11.319   9.402   5.508  0.00  0.00    +0.149 HD
BRANCH  21  24
ATOM     24  C   UNL     1      13.362   9.577   6.940  0.00  0.00    +0.107 C 
BRANCH  24  27
ATOM     27  C   UNL     1      13.313   8.610   5.762  0.00  0.00    +0.129 C 
BRANCH  27  30
ATOM      4  O   UNL     1      15.435   7.443   5.523  0.00  0.00    -0.251 OA
ATOM     30  C   UNL     1      14.282   7.463   5.930  0.00  0.00    +0.305 C 
BRANCH  30   3
ATOM      3  O   UNL     1      13.714   6.427   6.603  0.00  0.00    -0.481 OA
ATOM     33  H   UNL     1      12.736   6.436   6.529  0.00  0.00    +0.295 HD
ENDBRANCH  30   3
ENDBRANCH  27  30
ENDBRANCH  24  27
ENDBRANCH  21  24
ENDBRANCH  15   5
ENDBRANCH   9  15
BRANCH  11  16
ATOM     16  C   UNL     1      10.484   5.459   6.063  0.00  0.00    +0.082 C 
BRANCH  16  20
ATOM      1  F   UNL     1      13.056   5.609  -0.719  0.00  0.00    -0.205 F 
ATOM      6  N   UNL     1      11.801   5.906   3.984  0.00  0.00    -0.342 N 
ATOM      7  N   UNL     1      10.068   4.532   3.759  0.00  0.00    -0.232 NA
ATOM     20  C   UNL     1      10.755   5.275   4.597  0.00  0.00    +0.109 A 
ATOM     22  C   UNL     1      11.789   5.545   2.661  0.00  0.00    +0.069 A 
ATOM     23  C   UNL     1      10.698   4.688   2.545  0.00  0.00    +0.089 A 
ATOM     25  C   UNL     1      12.612   5.885   1.588  0.00  0.00    +0.066 A 
ATOM     26  C   UNL     1      10.396   4.127   1.293  0.00  0.00    +0.032 A 
ATOM     28  C   UNL     1      12.298   5.317   0.348  0.00  0.00    +0.125 A 
ATOM     29  C   UNL     1      11.210   4.454   0.201  0.00  0.00    +0.040 A 
ATOM     32  H   UNL     1      12.467   6.526   4.425  0.00  0.00    +0.167 HD
ENDBRANCH  16  20
ENDBRANCH  11  16
TORSDOF 9
ENDMDL
MODEL 6
REMARK VINA RESULT:      -6.3     29.824     31.719
REMARK  Name = 71693114
REMARK  12 active torsions:
REMARK  status: ('A' for Active; 'I' for Inactive)
REMARK    1  A    between atoms: O_3  and  C_30
REMARK    2  A    between atoms: N_5  and  C_15
REMARK    3  A    between atoms: C_8  and  C_12
REMARK    4  A    between atoms: C_9  and  C_15
REMARK    5  A    between atoms: C_11  and  C_16
REMARK    6  A    between atoms: C_12  and  C_17
REMARK    7  A    between atoms: C_12  and  C_18
REMARK    8  A    between atoms: C_13  and  C_19
REMARK    9  A    between atoms: C_16  and  C_20
REMARK   10  A    between atoms: C_21  and  C_24
REMARK   11  A    between atoms: C_24  and  C_27
REMARK   12  A    between atoms: C_27  and  C_30
REMARK                            x       y       z     vdW  Elec       q    Type
REMARK                         _______ _______ _______ _____ _____    ______ ____
ROOT
ATOM      8  C   UNL     1      18.183   8.865  21.783  0.00  0.00    +0.000 C 
ATOM      9  C   UNL     1      17.002   8.351  20.924  0.00  0.00    +0.032 C 
ATOM     10  C   UNL     1      19.521   8.550  21.097  0.00  0.00    +0.012 C 
ATOM     11  C   UNL     1      19.713   7.041  20.858  0.00  0.00    +0.022 C 
ATOM     13  C   UNL     1      18.476   6.405  20.254  0.00  0.00    -0.073 C 
ATOM     14  C   UNL     1      17.276   7.012  20.280  0.00  0.00    -0.022 C 
ATOM     19  C   UNL     1      18.661   5.076  19.575  0.00  0.00    +0.039 C 
ENDROOT
BRANCH   8  12
ATOM     12  C   UNL     1      18.080  10.369  22.053  0.00  0.00    -0.013 C 
ATOM     17  C   UNL     1      19.295  10.855  22.836  0.00  0.00    +0.007 C 
ATOM     18  C   UNL     1      17.939  11.135  20.740  0.00  0.00    +0.007 C 
ENDBRANCH   8  12
BRANCH   9  15
ATOM     15  C   UNL     1      15.713   8.265  21.750  0.00  0.00    +0.112 C 
BRANCH  15   5
ATOM      2  O   UNL     1      13.529   6.783  20.565  0.00  0.00    -0.276 OA
ATOM      5  N   UNL     1      14.606   8.795  21.020  0.00  0.00    -0.315 N 
ATOM     21  C   UNL     1      13.588   8.006  20.478  0.00  0.00    +0.214 C 
ATOM     31  H   UNL     1      14.526   9.804  20.937  0.00  0.00    +0.149 HD
BRANCH  21  24
ATOM     24  C   UNL     1      12.545   8.839  19.755  0.00  0.00    +0.107 C 
BRANCH  24  27
ATOM     27  C   UNL     1      11.561   9.502  20.712  0.00  0.00    +0.129 C 
BRANCH  27  30
ATOM      4  O   UNL     1      10.884   8.557  22.850  0.00  0.00    -0.251 OA
ATOM     30  C   UNL     1      10.898   8.500  21.628  0.00  0.00    +0.305 C 
BRANCH  30   3
ATOM      3  O   UNL     1      10.303   7.501  20.924  0.00  0.00    -0.481 OA
ATOM     33  H   UNL     1       9.967   6.791  21.512  0.00  0.00    +0.295 HD
ENDBRANCH  30   3
ENDBRANCH  27  30
ENDBRANCH  24  27
ENDBRANCH  21  24
ENDBRANCH  15   5
ENDBRANCH   9  15
BRANCH  11  16
ATOM     16  C   UNL     1      20.122   6.324  22.149  0.00  0.00    +0.082 C 
BRANCH  16  20
ATOM      1  F   UNL     1      25.981   2.806  19.711  0.00  0.00    -0.205 F 
ATOM      6  N   UNL     1      22.124   5.562  20.856  0.00  0.00    -0.342 N 
ATOM      7  N   UNL     1      21.611   4.355  22.652  0.00  0.00    -0.232 NA
ATOM     20  C   UNL     1      21.277   5.393  21.917  0.00  0.00    +0.109 A 
ATOM     22  C   UNL     1      23.067   4.568  20.911  0.00  0.00    +0.069 A 
ATOM     23  C   UNL     1      22.725   3.828  22.040  0.00  0.00    +0.089 A 
ATOM     25  C   UNL     1      24.155   4.261  20.095  0.00  0.00    +0.066 A 
ATOM     26  C   UNL     1      23.505   2.713  22.391  0.00  0.00    +0.032 A 
ATOM     28  C   UNL     1      24.922   3.149  20.459  0.00  0.00    +0.125 A 
ATOM     29  C   UNL     1      24.604   2.387  21.586  0.00  0.00    +0.040 A 
ATOM     32  H   UNL     1      22.066   6.289  20.156  0.00  0.00    +0.167 HD
ENDBRANCH  16  20
ENDBRANCH  11  16
TORSDOF 9
ENDMDL
MODEL 7
REMARK VINA RESULT:      -6.3      3.854      7.414
REMARK  Name = 71693114
REMARK  12 active torsions:
REMARK  status: ('A' for Active; 'I' for Inactive)
REMARK    1  A    between atoms: O_3  and  C_30
REMARK    2  A    between atoms: N_5  and  C_15
REMARK    3  A    between atoms: C_8  and  C_12
REMARK    4  A    between atoms: C_9  and  C_15
REMARK    5  A    between atoms: C_11  and  C_16
REMARK    6  A    between atoms: C_12  and  C_17
REMARK    7  A    between atoms: C_12  and  C_18
REMARK    8  A    between atoms: C_13  and  C_19
REMARK    9  A    between atoms: C_16  and  C_20
REMARK   10  A    between atoms: C_21  and  C_24
REMARK   11  A    between atoms: C_24  and  C_27
REMARK   12  A    between atoms: C_27  and  C_30
REMARK                            x       y       z     vdW  Elec       q    Type
REMARK                         _______ _______ _______ _____ _____    ______ ____
ROOT
ATOM      8  C   UNL     1      -5.739 -10.670  17.637  0.00  0.00    +0.000 C 
ATOM      9  C   UNL     1      -5.186 -11.016  16.233  0.00  0.00    +0.032 C 
ATOM     10  C   UNL     1      -7.244 -10.967  17.710  0.00  0.00    +0.012 C 
ATOM     11  C   UNL     1      -8.046 -10.173  16.661  0.00  0.00    +0.022 C 
ATOM     13  C   UNL     1      -7.406 -10.247  15.289  0.00  0.00    -0.073 C 
ATOM     14  C   UNL     1      -6.132 -10.640  15.116  0.00  0.00    -0.022 C 
ATOM     19  C   UNL     1      -8.281  -9.905  14.115  0.00  0.00    +0.039 C 
ENDROOT
BRANCH   8  12
ATOM     12  C   UNL     1      -5.005 -11.436  18.743  0.00  0.00    -0.013 C 
ATOM     17  C   UNL     1      -5.753 -11.310  20.065  0.00  0.00    +0.007 C 
ATOM     18  C   UNL     1      -4.838 -12.902  18.352  0.00  0.00    +0.007 C 
ENDBRANCH   8  12
BRANCH   9  15
ATOM     15  C   UNL     1      -3.825 -10.352  15.994  0.00  0.00    +0.112 C 
BRANCH  15   5
ATOM      2  O   UNL     1      -1.181  -9.882  14.917  0.00  0.00    -0.276 OA
ATOM      5  N   UNL     1      -3.393 -10.551  14.647  0.00  0.00    -0.315 N 
ATOM     21  C   UNL     1      -2.092 -10.299  14.207  0.00  0.00    +0.214 C 
ATOM     31  H   UNL     1      -4.054 -10.949  13.986  0.00  0.00    +0.149 HD
BRANCH  21  24
ATOM     24  C   UNL     1      -1.921 -10.599  12.729  0.00  0.00    +0.107 C 
BRANCH  24  27
ATOM     27  C   UNL     1      -3.249 -10.868  12.030  0.00  0.00    +0.129 C 
BRANCH  27  30
ATOM      4  O   UNL     1      -2.894  -9.250  10.248  0.00  0.00    -0.251 OA
ATOM     30  C   UNL     1      -3.629  -9.751  11.087  0.00  0.00    +0.305 C 
BRANCH  30   3
ATOM      3  O   UNL     1      -4.915  -9.354  11.280  0.00  0.00    -0.481 OA
ATOM     33  H   UNL     1      -5.208  -8.720  10.591  0.00  0.00    +0.295 HD
ENDBRANCH  30   3
ENDBRANCH  27  30
ENDBRANCH  24  27
ENDBRANCH  21  24
ENDBRANCH  15   5
ENDBRANCH   9  15
BRANCH  11  16
ATOM     16  C   UNL     1      -8.238  -8.717  17.098  0.00  0.00    +0.082 C 
BRANCH  16  20
ATOM      1  F   UNL     1     -13.704  -4.966  14.152  0.00  0.00    -0.205 F 
ATOM      6  N   UNL     1      -9.646  -7.064  15.856  0.00  0.00    -0.342 N 
ATOM      7  N   UNL     1     -10.750  -8.671  16.925  0.00  0.00    -0.232 NA
ATOM     20  C   UNL     1      -9.564  -8.178  16.645  0.00  0.00    +0.109 A 
ATOM     22  C   UNL     1     -10.973  -6.821  15.611  0.00  0.00    +0.069 A 
ATOM     23  C   UNL     1     -11.642  -7.837  16.288  0.00  0.00    +0.089 A 
ATOM     25  C   UNL     1     -11.626  -5.831  14.878  0.00  0.00    +0.066 A 
ATOM     26  C   UNL     1     -13.045  -7.883  16.242  0.00  0.00    +0.032 A 
ATOM     28  C   UNL     1     -13.023  -5.893  14.841  0.00  0.00    +0.125 A 
ATOM     29  C   UNL     1     -13.722  -6.900  15.512  0.00  0.00    +0.040 A 
ATOM     32  H   UNL     1      -8.868  -6.516  15.514  0.00  0.00    +0.167 HD
ENDBRANCH  16  20
ENDBRANCH  11  16
TORSDOF 9
ENDMDL
MODEL 8
REMARK VINA RESULT:      -6.3     24.827     27.163
REMARK  Name = 71693114
REMARK  12 active torsions:
REMARK  status: ('A' for Active; 'I' for Inactive)
REMARK    1  A    between atoms: O_3  and  C_30
REMARK    2  A    between atoms: N_5  and  C_15
REMARK    3  A    between atoms: C_8  and  C_12
REMARK    4  A    between atoms: C_9  and  C_15
REMARK    5  A    between atoms: C_11  and  C_16
REMARK    6  A    between atoms: C_12  and  C_17
REMARK    7  A    between atoms: C_12  and  C_18
REMARK    8  A    between atoms: C_13  and  C_19
REMARK    9  A    between atoms: C_16  and  C_20
REMARK   10  A    between atoms: C_21  and  C_24
REMARK   11  A    between atoms: C_24  and  C_27
REMARK   12  A    between atoms: C_27  and  C_30
REMARK                            x       y       z     vdW  Elec       q    Type
REMARK                         _______ _______ _______ _____ _____    ______ ____
ROOT
ATOM      8  C   UNL     1       9.170   8.218   5.205  0.00  0.00    +0.000 C 
ATOM      9  C   UNL     1       8.808   8.921   6.537  0.00  0.00    +0.032 C 
ATOM     10  C   UNL     1       8.608   6.788   5.184  0.00  0.00    +0.012 C 
ATOM     11  C   UNL     1       9.145   5.934   6.348  0.00  0.00    +0.022 C 
ATOM     13  C   UNL     1       9.068   6.672   7.670  0.00  0.00    -0.073 C 
ATOM     14  C   UNL     1       8.903   8.005   7.734  0.00  0.00    -0.022 C 
ATOM     19  C   UNL     1       9.138   5.835   8.917  0.00  0.00    +0.039 C 
ENDROOT
BRANCH   8  12
ATOM     12  C   UNL     1       8.652   8.997   3.991  0.00  0.00    -0.013 C 
ATOM     17  C   UNL     1       8.892   8.206   2.710  0.00  0.00    +0.007 C 
ATOM     18  C   UNL     1       7.171   9.320   4.160  0.00  0.00    +0.007 C 
ENDBRANCH   8  12
BRANCH   9  15
ATOM     15  C   UNL     1       9.687  10.156   6.768  0.00  0.00    +0.112 C 
BRANCH  15   5
ATOM      2  O   UNL     1      11.824  10.992   8.529  0.00  0.00    -0.276 OA
ATOM      5  N   UNL     1       9.566  10.620   8.113  0.00  0.00    -0.315 N 
ATOM     21  C   UNL     1      10.654  11.007   8.899  0.00  0.00    +0.214 C 
ATOM     31  H   UNL     1       8.632  10.726   8.500  0.00  0.00    +0.149 HD
BRANCH  21  24
ATOM     24  C   UNL     1      10.227  11.455  10.285  0.00  0.00    +0.107 C 
BRANCH  24  27
ATOM     27  C   UNL     1       8.711  11.464  10.454  0.00  0.00    +0.129 C 
BRANCH  27  30
ATOM      4  O   UNL     1       8.269  13.800  10.969  0.00  0.00    -0.251 OA
ATOM     30  C   UNL     1       8.243  12.623  11.301  0.00  0.00    +0.305 C 
BRANCH  30   3
ATOM      3  O   UNL     1       7.776  12.202  12.506  0.00  0.00    -0.481 OA
ATOM     33  H   UNL     1       8.447  12.307  13.215  0.00  0.00    +0.295 HD
ENDBRANCH  30   3
ENDBRANCH  27  30
ENDBRANCH  24  27
ENDBRANCH  21  24
ENDBRANCH  15   5
ENDBRANCH   9  15
BRANCH  11  16
ATOM     16  C   UNL     1      10.573   5.456   6.069  0.00  0.00    +0.082 C 
BRANCH  16  20
ATOM      1  F   UNL     1      12.932   5.811  -0.784  0.00  0.00    -0.205 F 
ATOM      6  N   UNL     1      11.785   6.012   3.952  0.00  0.00    -0.342 N 
ATOM      7  N   UNL     1      10.181   4.483   3.778  0.00  0.00    -0.232 NA
ATOM     20  C   UNL     1      10.819   5.290   4.596  0.00  0.00    +0.109 A 
ATOM     22  C   UNL     1      11.770   5.646   2.631  0.00  0.00    +0.069 A 
ATOM     23  C   UNL     1      10.760   4.691   2.548  0.00  0.00    +0.089 A 
ATOM     25  C   UNL     1      12.528   6.056   1.534  0.00  0.00    +0.066 A 
ATOM     26  C   UNL     1      10.477   4.099   1.305  0.00  0.00    +0.032 A 
ATOM     28  C   UNL     1      12.234   5.455   0.305  0.00  0.00    +0.125 A 
ATOM     29  C   UNL     1      11.226   4.495   0.191  0.00  0.00    +0.040 A 
ATOM     32  H   UNL     1      12.402   6.694   4.373  0.00  0.00    +0.167 HD
ENDBRANCH  16  20
ENDBRANCH  11  16
TORSDOF 9
ENDMDL
MODEL 9
REMARK VINA RESULT:      -6.2      3.401      6.523
REMARK  Name = 71693114
REMARK  12 active torsions:
REMARK  status: ('A' for Active; 'I' for Inactive)
REMARK    1  A    between atoms: O_3  and  C_30
REMARK    2  A    between atoms: N_5  and  C_15
REMARK    3  A    between atoms: C_8  and  C_12
REMARK    4  A    between atoms: C_9  and  C_15
REMARK    5  A    between atoms: C_11  and  C_16
REMARK    6  A    between atoms: C_12  and  C_17
REMARK    7  A    between atoms: C_12  and  C_18
REMARK    8  A    between atoms: C_13  and  C_19
REMARK    9  A    between atoms: C_16  and  C_20
REMARK   10  A    between atoms: C_21  and  C_24
REMARK   11  A    between atoms: C_24  and  C_27
REMARK   12  A    between atoms: C_27  and  C_30
REMARK                            x       y       z     vdW  Elec       q    Type
REMARK                         _______ _______ _______ _____ _____    ______ ____
ROOT
ATOM      8  C   UNL     1      -3.112 -12.146  13.191  0.00  0.00    +0.000 C 
ATOM      9  C   UNL     1      -1.871 -11.224  13.272  0.00  0.00    +0.032 C 
ATOM     10  C   UNL     1      -3.469 -12.438  11.726  0.00  0.00    +0.012 C 
ATOM     11  C   UNL     1      -3.766 -11.151  10.932  0.00  0.00    +0.022 C 
ATOM     13  C   UNL     1      -2.716 -10.085  11.174  0.00  0.00    -0.073 C 
ATOM     14  C   UNL     1      -1.868 -10.142  12.217  0.00  0.00    -0.022 C 
ATOM     19  C   UNL     1      -2.631  -8.977  10.161  0.00  0.00    +0.039 C 
ENDROOT
BRANCH   8  12
ATOM     12  C   UNL     1      -2.892 -13.463  13.943  0.00  0.00    -0.013 C 
ATOM     17  C   UNL     1      -4.080 -14.398  13.739  0.00  0.00    +0.007 C 
ATOM     18  C   UNL     1      -1.596 -14.126  13.484  0.00  0.00    +0.007 C 
ENDBRANCH   8  12
BRANCH   9  15
ATOM     15  C   UNL     1      -1.746 -10.583  14.659  0.00  0.00    +0.112 C 
BRANCH  15   5
ATOM      2  O   UNL     1      -2.629 -11.196  17.345  0.00  0.00    -0.276 OA
ATOM      5  N   UNL     1      -3.036 -10.336  15.221  0.00  0.00    -0.315 N 
ATOM     21  C   UNL     1      -3.383 -10.665  16.534  0.00  0.00    +0.214 C 
ATOM     31  H   UNL     1      -3.721  -9.847  14.652  0.00  0.00    +0.149 HD
BRANCH  21  24
ATOM     24  C   UNL     1      -4.817 -10.289  16.856  0.00  0.00    +0.107 C 
BRANCH  24  27
ATOM     27  C   UNL     1      -5.234 -10.723  18.257  0.00  0.00    +0.129 C 
BRANCH  27  30
ATOM      4  O   UNL     1      -7.548 -10.098  17.838  0.00  0.00    -0.251 OA
ATOM     30  C   UNL     1      -6.614 -10.226  18.618  0.00  0.00    +0.305 C 
BRANCH  30   3
ATOM      3  O   UNL     1      -6.705  -9.927  19.941  0.00  0.00    -0.481 OA
ATOM     33  H   UNL     1      -5.823  -9.883  20.367  0.00  0.00    +0.295 HD
ENDBRANCH  30   3
ENDBRANCH  27  30
ENDBRANCH  24  27
ENDBRANCH  21  24
ENDBRANCH  15   5
ENDBRANCH   9  15
BRANCH  11  16
ATOM     16  C   UNL     1      -5.169 -10.620  11.245  0.00  0.00    +0.082 C 
BRANCH  16  20
ATOM      1  F   UNL     1      -8.849  -6.547   6.501  0.00  0.00    -0.205 F 
ATOM      6  N   UNL     1      -6.593  -8.888  10.136  0.00  0.00    -0.342 N 
ATOM      7  N   UNL     1      -5.697 -10.415   8.791  0.00  0.00    -0.232 NA
ATOM     20  C   UNL     1      -5.804 -10.000  10.034  0.00  0.00    +0.109 A 
ATOM     22  C   UNL     1      -7.023  -8.563   8.874  0.00  0.00    +0.069 A 
ATOM     23  C   UNL     1      -6.450  -9.531   8.054  0.00  0.00    +0.089 A 
ATOM     25  C   UNL     1      -7.838  -7.538   8.396  0.00  0.00    +0.066 A 
ATOM     26  C   UNL     1      -6.696  -9.489   6.671  0.00  0.00    +0.032 A 
ATOM     28  C   UNL     1      -8.071  -7.510   7.017  0.00  0.00    +0.125 A 
ATOM     29  C   UNL     1      -7.511  -8.468   6.168  0.00  0.00    +0.040 A 
ATOM     32  H   UNL     1      -6.819  -8.392  10.987  0.00  0.00    +0.167 HD
ENDBRANCH  16  20
ENDBRANCH  11  16
TORSDOF 9
ENDMDL
MODEL 10
REMARK VINA RESULT:      -6.1      3.323      6.497
REMARK  Name = 71693114
REMARK  12 active torsions:
REMARK  status: ('A' for Active; 'I' for Inactive)
REMARK    1  A    between atoms: O_3  and  C_30
REMARK    2  A    between atoms: N_5  and  C_15
REMARK    3  A    between atoms: C_8  and  C_12
REMARK    4  A    between atoms: C_9  and  C_15
REMARK    5  A    between atoms: C_11  and  C_16
REMARK    6  A    between atoms: C_12  and  C_17
REMARK    7  A    between atoms: C_12  and  C_18
REMARK    8  A    between atoms: C_13  and  C_19
REMARK    9  A    between atoms: C_16  and  C_20
REMARK   10  A    between atoms: C_21  and  C_24
REMARK   11  A    between atoms: C_24  and  C_27
REMARK   12  A    between atoms: C_27  and  C_30
REMARK                            x       y       z     vdW  Elec       q    Type
REMARK                         _______ _______ _______ _____ _____    ______ ____
ROOT
ATOM      8  C   UNL     1      -3.073 -12.305  13.701  0.00  0.00    +0.000 C 
ATOM      9  C   UNL     1      -1.869 -11.452  14.171  0.00  0.00    +0.032 C 
ATOM     10  C   UNL     1      -2.976 -12.586  12.194  0.00  0.00    +0.012 C 
ATOM     11  C   UNL     1      -2.942 -11.291  11.361  0.00  0.00    +0.022 C 
ATOM     13  C   UNL     1      -1.961 -10.283  11.927  0.00  0.00    -0.073 C 
ATOM     14  C   UNL     1      -1.482 -10.379  13.180  0.00  0.00    -0.022 C 
ATOM     19  C   UNL     1      -1.507  -9.188  11.002  0.00  0.00    +0.039 C 
ENDROOT
BRANCH   8  12
ATOM     12  C   UNL     1      -3.169 -13.627  14.470  0.00  0.00    -0.013 C 
ATOM     17  C   UNL     1      -4.628 -14.017  14.681  0.00  0.00    +0.007 C 
ATOM     18  C   UNL     1      -2.416 -14.728  13.729  0.00  0.00    +0.007 C 
ENDBRANCH   8  12
BRANCH   9  15
ATOM     15  C   UNL     1      -2.145 -10.810  15.536  0.00  0.00    +0.112 C 
BRANCH  15   5
ATOM      2  O   UNL     1      -4.279 -11.238  17.442  0.00  0.00    -0.276 OA
ATOM      5  N   UNL     1      -3.429 -10.182  15.551  0.00  0.00    -0.315 N 
ATOM     21  C   UNL     1      -4.407 -10.447  16.512  0.00  0.00    +0.214 C 
ATOM     31  H   UNL     1      -3.619  -9.465  14.857  0.00  0.00    +0.149 HD
BRANCH  21  24
ATOM     24  C   UNL     1      -5.669  -9.637  16.279  0.00  0.00    +0.107 C 
BRANCH  24  27
ATOM     27  C   UNL     1      -6.928 -10.380  16.715  0.00  0.00    +0.129 C 
BRANCH  27  30
ATOM      4  O   UNL     1      -6.954 -10.319  19.147  0.00  0.00    -0.251 OA
ATOM     30  C   UNL     1      -7.405  -9.934  18.077  0.00  0.00    +0.305 C 
BRANCH  30   3
ATOM      3  O   UNL     1      -8.418  -9.034  17.979  0.00  0.00    -0.481 OA
ATOM     33  H   UNL     1      -8.757  -8.964  17.061  0.00  0.00    +0.295 HD
ENDBRANCH  30   3
ENDBRANCH  27  30
ENDBRANCH  24  27
ENDBRANCH  21  24
ENDBRANCH  15   5
ENDBRANCH   9  15
BRANCH  11  16
ATOM     16  C   UNL     1      -4.342 -10.681  11.232  0.00  0.00    +0.082 C 
BRANCH  16  20
ATOM      1  F   UNL     1      -5.380 -11.583   4.108  0.00  0.00    -0.205 F 
ATOM      6  N   UNL     1      -4.272 -11.459   8.855  0.00  0.00    -0.342 N 
ATOM      7  N   UNL     1      -5.642  -9.761   9.280  0.00  0.00    -0.232 NA
ATOM     20  C   UNL     1      -4.776 -10.604   9.796  0.00  0.00    +0.109 A 
ATOM     22  C   UNL     1      -4.852 -11.147   7.652  0.00  0.00    +0.069 A 
ATOM     23  C   UNL     1      -5.703 -10.084   7.944  0.00  0.00    +0.089 A 
ATOM     25  C   UNL     1      -4.710 -11.686   6.374  0.00  0.00    +0.066 A 
ATOM     26  C   UNL     1      -6.465  -9.513   6.911  0.00  0.00    +0.032 A 
ATOM     28  C   UNL     1      -5.477 -11.106   5.358  0.00  0.00    +0.125 A 
ATOM     29  C   UNL     1      -6.339 -10.038   5.619  0.00  0.00    +0.040 A 
ATOM     32  H   UNL     1      -3.594 -12.192   9.016  0.00  0.00    +0.167 HD
ENDBRANCH  16  20
ENDBRANCH  11  16
TORSDOF 9
ENDMDL
