MODEL 1
REMARK VINA RESULT:      -6.2      0.000      0.000
REMARK  Name = 38027859
REMARK  15 active torsions:
REMARK  status: ('A' for Active; 'I' for Inactive)
REMARK    1  A    between atoms: O_3  and  C_22
REMARK    2  A    between atoms: O_3  and  C_26
REMARK    3  A    between atoms: O_4  and  C_29
REMARK    4  A    between atoms: O_4  and  C_30
REMARK    5  A    between atoms: N_5  and  C_14
REMARK    6  A    between atoms: N_6  and  C_21
REMARK    7  A    between atoms: C_7  and  C_11
REMARK    8  A    between atoms: C_8  and  C_14
REMARK    9  A    between atoms: C_10  and  C_15
REMARK   10  A    between atoms: C_11  and  C_16
REMARK   11  A    between atoms: C_11  and  C_17
REMARK   12  A    between atoms: C_12  and  C_18
REMARK   13  A    between atoms: C_15  and  C_19
REMARK   14  A    between atoms: C_20  and  C_22
REMARK   15  A    between atoms: C_21  and  C_23
REMARK                            x       y       z     vdW  Elec       q    Type
REMARK                         _______ _______ _______ _____ _____    ______ ____
ROOT
ATOM      7  C   UNL     1      -5.963 -10.590  15.296  0.00  0.00    +0.000 C 
ATOM      8  C   UNL     1      -6.757 -10.658  16.625  0.00  0.00    +0.032 C 
ATOM      9  C   UNL     1      -4.961 -11.751  15.209  0.00  0.00    +0.012 C 
ATOM     10  C   UNL     1      -3.959 -11.745  16.378  0.00  0.00    +0.023 C 
ATOM     12  C   UNL     1      -4.650 -11.546  17.712  0.00  0.00    -0.073 C 
ATOM     13  C   UNL     1      -5.905 -11.072  17.802  0.00  0.00    -0.022 C 
ATOM     18  C   UNL     1      -3.880 -11.948  18.940  0.00  0.00    +0.039 C 
ENDROOT
BRANCH   7  11
ATOM     11  C   UNL     1      -6.890 -10.611  14.077  0.00  0.00    -0.013 C 
ATOM     16  C   UNL     1      -6.285  -9.804  12.934  0.00  0.00    +0.007 C 
ATOM     17  C   UNL     1      -7.162 -12.047  13.641  0.00  0.00    +0.007 C 
ENDBRANCH   7  11
BRANCH   8  14
ATOM     14  C   UNL     1      -7.438  -9.320  16.933  0.00  0.00    +0.112 C 
BRANCH  14   5
ATOM      2  O   UNL     1     -10.150 -10.316  16.815  0.00  0.00    -0.273 OA
ATOM      5  N   UNL     1      -8.355  -9.455  18.021  0.00  0.00    -0.313 N 
ATOM     20  C   UNL     1      -9.652  -9.946  17.875  0.00  0.00    +0.239 C 
ATOM     31  H   UNL     1      -8.026  -9.230  18.955  0.00  0.00    +0.149 HD
BRANCH  20  22
ATOM     22  C   UNL     1     -10.403  -9.981  19.189  0.00  0.00    +0.255 C 
BRANCH  22   3
ATOM      3  O   UNL     1      -9.682 -10.715  20.156  0.00  0.00    -0.374 OA
ATOM     26  C   UNL     1     -10.034 -12.095  20.145  0.00  0.00    +0.194 C 
ENDBRANCH  22   3
ENDBRANCH  20  22
ENDBRANCH  14   5
ENDBRANCH   8  14
BRANCH  10  15
ATOM     15  C   UNL     1      -2.866 -10.692  16.164  0.00  0.00    +0.103 C 
BRANCH  15  19
ATOM      1  O   UNL     1      -1.197 -11.910  14.907  0.00  0.00    -0.276 OA
ATOM      6  N   UNL     1      -2.279 -10.105  13.921  0.00  0.00    -0.311 N 
ATOM     19  C   UNL     1      -2.013 -10.994  14.952  0.00  0.00    +0.214 C 
ATOM     32  H   UNL     1      -2.977  -9.380  14.053  0.00  0.00    +0.149 HD
BRANCH   6  21
ATOM     21  C   UNL     1      -1.608 -10.158  12.643  0.00  0.00    +0.139 C 
BRANCH  21  23
ATOM     23  C   UNL     1      -2.572 -10.358  11.509  0.00  0.00    -0.030 A 
ATOM     24  C   UNL     1      -3.198 -11.592  11.335  0.00  0.00    +0.009 A 
ATOM     25  C   UNL     1      -2.841  -9.310  10.629  0.00  0.00    +0.009 A 
ATOM     27  C   UNL     1      -4.093 -11.778  10.283  0.00  0.00    +0.046 A 
ATOM     28  C   UNL     1      -3.737  -9.495   9.576  0.00  0.00    +0.046 A 
ATOM     29  C   UNL     1      -4.364 -10.730   9.403  0.00  0.00    +0.120 A 
BRANCH  29   4
ATOM      4  O   UNL     1      -5.238 -10.911   8.376  0.00  0.00    -0.495 OA
ATOM     30  C   UNL     1      -6.130  -9.835   8.085  0.00  0.00    +0.277 C 
ENDBRANCH  29   4
ENDBRANCH  21  23
ENDBRANCH   6  21
ENDBRANCH  15  19
ENDBRANCH  10  15
TORSDOF 10
ENDMDL
MODEL 2
REMARK VINA RESULT:      -6.0      1.576      2.198
REMARK  Name = 38027859
REMARK  15 active torsions:
REMARK  status: ('A' for Active; 'I' for Inactive)
REMARK    1  A    between atoms: O_3  and  C_22
REMARK    2  A    between atoms: O_3  and  C_26
REMARK    3  A    between atoms: O_4  and  C_29
REMARK    4  A    between atoms: O_4  and  C_30
REMARK    5  A    between atoms: N_5  and  C_14
REMARK    6  A    between atoms: N_6  and  C_21
REMARK    7  A    between atoms: C_7  and  C_11
REMARK    8  A    between atoms: C_8  and  C_14
REMARK    9  A    between atoms: C_10  and  C_15
REMARK   10  A    between atoms: C_11  and  C_16
REMARK   11  A    between atoms: C_11  and  C_17
REMARK   12  A    between atoms: C_12  and  C_18
REMARK   13  A    between atoms: C_15  and  C_19
REMARK   14  A    between atoms: C_20  and  C_22
REMARK   15  A    between atoms: C_21  and  C_23
REMARK                            x       y       z     vdW  Elec       q    Type
REMARK                         _______ _______ _______ _____ _____    ______ ____
ROOT
ATOM      7  C   UNL     1      -5.935 -10.331  15.288  0.00  0.00    +0.000 C 
ATOM      8  C   UNL     1      -6.786 -10.447  16.578  0.00  0.00    +0.032 C 
ATOM      9  C   UNL     1      -4.963 -11.515  15.177  0.00  0.00    +0.012 C 
ATOM     10  C   UNL     1      -4.010 -11.601  16.384  0.00  0.00    +0.023 C 
ATOM     12  C   UNL     1      -4.750 -11.454  17.698  0.00  0.00    -0.073 C 
ATOM     13  C   UNL     1      -5.994 -10.949  17.764  0.00  0.00    -0.022 C 
ATOM     18  C   UNL     1      -4.043 -11.943  18.931  0.00  0.00    +0.039 C 
ENDROOT
BRANCH   7  11
ATOM     11  C   UNL     1      -6.811 -10.259  14.034  0.00  0.00    -0.013 C 
ATOM     16  C   UNL     1      -6.011  -9.715  12.855  0.00  0.00    +0.007 C 
ATOM     17  C   UNL     1      -7.387 -11.634  13.708  0.00  0.00    +0.007 C 
ENDBRANCH   7  11
BRANCH   8  14
ATOM     14  C   UNL     1      -7.442  -9.108  16.931  0.00  0.00    +0.112 C 
BRANCH  14   5
ATOM      2  O   UNL     1      -9.865  -7.643  17.519  0.00  0.00    -0.273 OA
ATOM      5  N   UNL     1      -8.512  -8.813  16.030  0.00  0.00    -0.313 N 
ATOM     20  C   UNL     1      -9.651  -8.098  16.398  0.00  0.00    +0.239 C 
ATOM     31  H   UNL     1      -8.411  -9.095  15.059  0.00  0.00    +0.149 HD
BRANCH  20  22
ATOM     22  C   UNL     1     -10.620  -7.932  15.247  0.00  0.00    +0.255 C 
BRANCH  22   3
ATOM      3  O   UNL     1     -11.715  -7.129  15.630  0.00  0.00    -0.374 OA
ATOM     26  C   UNL     1     -11.740  -5.893  14.923  0.00  0.00    +0.194 C 
ENDBRANCH  22   3
ENDBRANCH  20  22
ENDBRANCH  14   5
ENDBRANCH   8  14
BRANCH  10  15
ATOM     15  C   UNL     1      -2.881 -10.570  16.271  0.00  0.00    +0.103 C 
BRANCH  15  19
ATOM      1  O   UNL     1      -1.001 -11.637  15.187  0.00  0.00    -0.276 OA
ATOM      6  N   UNL     1      -2.324 -10.153  13.983  0.00  0.00    -0.311 N 
ATOM     19  C   UNL     1      -1.954 -10.866  15.114  0.00  0.00    +0.214 C 
ATOM     32  H   UNL     1      -3.132  -9.539  14.021  0.00  0.00    +0.149 HD
BRANCH   6  21
ATOM     21  C   UNL     1      -1.614 -10.239  12.729  0.00  0.00    +0.139 C 
BRANCH  21  23
ATOM     23  C   UNL     1      -2.546 -10.417  11.565  0.00  0.00    -0.030 A 
ATOM     24  C   UNL     1      -3.166 -11.647  11.350  0.00  0.00    +0.009 A 
ATOM     25  C   UNL     1      -2.791  -9.351  10.699  0.00  0.00    +0.009 A 
ATOM     27  C   UNL     1      -4.033 -11.812  10.269  0.00  0.00    +0.046 A 
ATOM     28  C   UNL     1      -3.657  -9.515   9.619  0.00  0.00    +0.046 A 
ATOM     29  C   UNL     1      -4.279 -10.746   9.403  0.00  0.00    +0.120 A 
BRANCH  29   4
ATOM      4  O   UNL     1      -5.124 -10.906   8.350  0.00  0.00    -0.495 OA
ATOM     30  C   UNL     1      -5.713  -9.726   7.804  0.00  0.00    +0.277 C 
ENDBRANCH  29   4
ENDBRANCH  21  23
ENDBRANCH   6  21
ENDBRANCH  15  19
ENDBRANCH  10  15
TORSDOF 10
ENDMDL
MODEL 3
REMARK VINA RESULT:      -6.0      2.284      8.132
REMARK  Name = 38027859
REMARK  15 active torsions:
REMARK  status: ('A' for Active; 'I' for Inactive)
REMARK    1  A    between atoms: O_3  and  C_22
REMARK    2  A    between atoms: O_3  and  C_26
REMARK    3  A    between atoms: O_4  and  C_29
REMARK    4  A    between atoms: O_4  and  C_30
REMARK    5  A    between atoms: N_5  and  C_14
REMARK    6  A    between atoms: N_6  and  C_21
REMARK    7  A    between atoms: C_7  and  C_11
REMARK    8  A    between atoms: C_8  and  C_14
REMARK    9  A    between atoms: C_10  and  C_15
REMARK   10  A    between atoms: C_11  and  C_16
REMARK   11  A    between atoms: C_11  and  C_17
REMARK   12  A    between atoms: C_12  and  C_18
REMARK   13  A    between atoms: C_15  and  C_19
REMARK   14  A    between atoms: C_20  and  C_22
REMARK   15  A    between atoms: C_21  and  C_23
REMARK                            x       y       z     vdW  Elec       q    Type
REMARK                         _______ _______ _______ _____ _____    ______ ____
ROOT
ATOM      7  C   UNL     1      -4.978 -10.641  10.842  0.00  0.00    +0.000 C 
ATOM      8  C   UNL     1      -4.483  -9.707   9.709  0.00  0.00    +0.032 C 
ATOM      9  C   UNL     1      -4.432 -10.174  12.199  0.00  0.00    +0.012 C 
ATOM     10  C   UNL     1      -2.892 -10.145  12.229  0.00  0.00    +0.023 C 
ATOM     12  C   UNL     1      -2.318  -9.470  11.000  0.00  0.00    -0.073 C 
ATOM     13  C   UNL     1      -3.047  -9.270   9.888  0.00  0.00    -0.022 C 
ATOM     18  C   UNL     1      -0.897  -8.987  11.095  0.00  0.00    +0.039 C 
ENDROOT
BRANCH   7  11
ATOM     11  C   UNL     1      -6.507 -10.711  10.893  0.00  0.00    -0.013 C 
ATOM     16  C   UNL     1      -6.963 -11.526  12.099  0.00  0.00    +0.007 C 
ATOM     17  C   UNL     1      -7.103  -9.306  10.933  0.00  0.00    +0.007 C 
ENDBRANCH   7  11
BRANCH   8  14
ATOM     14  C   UNL     1      -4.648 -10.367   8.335  0.00  0.00    +0.112 C 
BRANCH  14   5
ATOM      2  O   UNL     1      -6.241 -11.217   6.076  0.00  0.00    -0.273 OA
ATOM      5  N   UNL     1      -5.421  -9.538   7.463  0.00  0.00    -0.313 N 
ATOM     20  C   UNL     1      -6.163 -10.032   6.392  0.00  0.00    +0.239 C 
ATOM     31  H   UNL     1      -5.473  -8.544   7.669  0.00  0.00    +0.149 HD
BRANCH  20  22
ATOM     22  C   UNL     1      -6.883  -8.935   5.638  0.00  0.00    +0.255 C 
BRANCH  22   3
ATOM      3  O   UNL     1      -8.086  -8.589   6.290  0.00  0.00    -0.374 OA
ATOM     26  C   UNL     1      -8.583  -7.327   5.854  0.00  0.00    +0.194 C 
ENDBRANCH  22   3
ENDBRANCH  20  22
ENDBRANCH  14   5
ENDBRANCH   8  14
BRANCH  10  15
ATOM     15  C   UNL     1      -2.316 -11.555  12.400  0.00  0.00    +0.103 C 
BRANCH  15  19
ATOM      1  O   UNL     1      -2.379 -13.192  14.179  0.00  0.00    -0.276 OA
ATOM      6  N   UNL     1      -2.336 -10.929  14.708  0.00  0.00    -0.311 N 
ATOM     19  C   UNL     1      -2.347 -12.012  13.841  0.00  0.00    +0.214 C 
ATOM     32  H   UNL     1      -2.306  -9.987  14.331  0.00  0.00    +0.149 HD
BRANCH   6  21
ATOM     21  C   UNL     1      -2.361 -11.070  16.145  0.00  0.00    +0.139 C 
BRANCH  21  23
ATOM     23  C   UNL     1      -3.731 -10.826  16.710  0.00  0.00    -0.030 A 
ATOM     24  C   UNL     1      -4.060 -11.313  17.975  0.00  0.00    +0.009 A 
ATOM     25  C   UNL     1      -4.673 -10.112  15.970  0.00  0.00    +0.009 A 
ATOM     27  C   UNL     1      -5.332 -11.086  18.500  0.00  0.00    +0.046 A 
ATOM     28  C   UNL     1      -5.945  -9.884  16.495  0.00  0.00    +0.046 A 
ATOM     29  C   UNL     1      -6.275 -10.371  17.761  0.00  0.00    +0.120 A 
BRANCH  29   4
ATOM      4  O   UNL     1      -7.515 -10.149  18.274  0.00  0.00    -0.495 OA
ATOM     30  C   UNL     1      -8.441  -9.440  17.450  0.00  0.00    +0.277 C 
ENDBRANCH  29   4
ENDBRANCH  21  23
ENDBRANCH   6  21
ENDBRANCH  15  19
ENDBRANCH  10  15
TORSDOF 10
ENDMDL
MODEL 4
REMARK VINA RESULT:      -5.9     27.606     29.928
REMARK  Name = 38027859
REMARK  15 active torsions:
REMARK  status: ('A' for Active; 'I' for Inactive)
REMARK    1  A    between atoms: O_3  and  C_22
REMARK    2  A    between atoms: O_3  and  C_26
REMARK    3  A    between atoms: O_4  and  C_29
REMARK    4  A    between atoms: O_4  and  C_30
REMARK    5  A    between atoms: N_5  and  C_14
REMARK    6  A    between atoms: N_6  and  C_21
REMARK    7  A    between atoms: C_7  and  C_11
REMARK    8  A    between atoms: C_8  and  C_14
REMARK    9  A    between atoms: C_10  and  C_15
REMARK   10  A    between atoms: C_11  and  C_16
REMARK   11  A    between atoms: C_11  and  C_17
REMARK   12  A    between atoms: C_12  and  C_18
REMARK   13  A    between atoms: C_15  and  C_19
REMARK   14  A    between atoms: C_20  and  C_22
REMARK   15  A    between atoms: C_21  and  C_23
REMARK                            x       y       z     vdW  Elec       q    Type
REMARK                         _______ _______ _______ _____ _____    ______ ____
ROOT
ATOM      7  C   UNL     1      12.145  11.804  22.426  0.00  0.00    +0.000 C 
ATOM      8  C   UNL     1      10.941  11.407  23.318  0.00  0.00    +0.032 C 
ATOM      9  C   UNL     1      12.051  11.111  21.059  0.00  0.00    +0.012 C 
ATOM     10  C   UNL     1      12.021   9.577  21.185  0.00  0.00    +0.023 C 
ATOM     12  C   UNL     1      11.041   9.117  22.245  0.00  0.00    -0.073 C 
ATOM     13  C   UNL     1      10.559   9.952  23.182  0.00  0.00    -0.022 C 
ATOM     18  C   UNL     1      10.592   7.683  22.175  0.00  0.00    +0.039 C 
ENDROOT
BRANCH   7  11
ATOM     11  C   UNL     1      12.235  13.321  22.235  0.00  0.00    -0.013 C 
ATOM     16  C   UNL     1      13.687  13.782  22.308  0.00  0.00    +0.007 C 
ATOM     17  C   UNL     1      11.605  13.728  20.907  0.00  0.00    +0.007 C 
ENDBRANCH   7  11
BRANCH   8  14
ATOM     14  C   UNL     1      11.215  11.728  24.792  0.00  0.00    +0.112 C 
BRANCH  14   5
ATOM      2  O   UNL     1      13.240  13.423  25.971  0.00  0.00    -0.273 OA
ATOM      5  N   UNL     1      12.548  11.357  25.153  0.00  0.00    -0.313 N 
ATOM     20  C   UNL     1      13.465  12.242  25.719  0.00  0.00    +0.239 C 
ATOM     31  H   UNL     1      12.822  10.385  25.040  0.00  0.00    +0.149 HD
BRANCH  20  22
ATOM     22  C   UNL     1      14.799  11.584  26.000  0.00  0.00    +0.255 C 
BRANCH  22   3
ATOM      3  O   UNL     1      14.753  10.864  27.213  0.00  0.00    -0.374 OA
ATOM     26  C   UNL     1      15.891  11.127  28.029  0.00  0.00    +0.194 C 
ENDBRANCH  22   3
ENDBRANCH  20  22
ENDBRANCH  14   5
ENDBRANCH   8  14
BRANCH  10  15
ATOM     15  C   UNL     1      13.422   9.017  21.453  0.00  0.00    +0.103 C 
BRANCH  15  19
ATOM      1  O   UNL     1      13.123   7.610  19.508  0.00  0.00    -0.276 OA
ATOM      6  N   UNL     1      15.226   7.781  20.484  0.00  0.00    -0.311 N 
ATOM     19  C   UNL     1      13.873   8.064  20.368  0.00  0.00    +0.214 C 
ATOM     32  H   UNL     1      15.765   8.208  21.231  0.00  0.00    +0.149 HD
BRANCH   6  21
ATOM     21  C   UNL     1      15.926   6.896  19.582  0.00  0.00    +0.139 C 
BRANCH  21  23
ATOM     23  C   UNL     1      17.315   6.587  20.062  0.00  0.00    -0.030 A 
ATOM     24  C   UNL     1      18.050   5.567  19.459  0.00  0.00    +0.009 A 
ATOM     25  C   UNL     1      17.869   7.321  21.110  0.00  0.00    +0.009 A 
ATOM     27  C   UNL     1      19.340   5.280  19.904  0.00  0.00    +0.046 A 
ATOM     28  C   UNL     1      19.160   7.035  21.556  0.00  0.00    +0.046 A 
ATOM     29  C   UNL     1      19.896   6.014  20.952  0.00  0.00    +0.120 A 
BRANCH  29   4
ATOM      4  O   UNL     1      21.155   5.735  21.386  0.00  0.00    -0.495 OA
ATOM     30  C   UNL     1      22.010   5.030  20.486  0.00  0.00    +0.277 C 
ENDBRANCH  29   4
ENDBRANCH  21  23
ENDBRANCH   6  21
ENDBRANCH  15  19
ENDBRANCH  10  15
TORSDOF 10
ENDMDL
MODEL 5
REMARK VINA RESULT:      -5.7     27.526     30.533
REMARK  Name = 38027859
REMARK  15 active torsions:
REMARK  status: ('A' for Active; 'I' for Inactive)
REMARK    1  A    between atoms: O_3  and  C_22
REMARK    2  A    between atoms: O_3  and  C_26
REMARK    3  A    between atoms: O_4  and  C_29
REMARK    4  A    between atoms: O_4  and  C_30
REMARK    5  A    between atoms: N_5  and  C_14
REMARK    6  A    between atoms: N_6  and  C_21
REMARK    7  A    between atoms: C_7  and  C_11
REMARK    8  A    between atoms: C_8  and  C_14
REMARK    9  A    between atoms: C_10  and  C_15
REMARK   10  A    between atoms: C_11  and  C_16
REMARK   11  A    between atoms: C_11  and  C_17
REMARK   12  A    between atoms: C_12  and  C_18
REMARK   13  A    between atoms: C_15  and  C_19
REMARK   14  A    between atoms: C_20  and  C_22
REMARK   15  A    between atoms: C_21  and  C_23
REMARK                            x       y       z     vdW  Elec       q    Type
REMARK                         _______ _______ _______ _____ _____    ______ ____
ROOT
ATOM      7  C   UNL     1      17.323   7.771  21.243  0.00  0.00    +0.000 C 
ATOM      8  C   UNL     1      18.859   7.601  21.125  0.00  0.00    +0.032 C 
ATOM      9  C   UNL     1      16.864   9.031  20.495  0.00  0.00    +0.012 C 
ATOM     10  C   UNL     1      17.539  10.307  21.034  0.00  0.00    +0.023 C 
ATOM     12  C   UNL     1      19.034  10.125  21.200  0.00  0.00    -0.073 C 
ATOM     13  C   UNL     1      19.607   8.909  21.225  0.00  0.00    -0.022 C 
ATOM     18  C   UNL     1      19.862  11.378  21.291  0.00  0.00    +0.039 C 
ENDROOT
BRANCH   7  11
ATOM     11  C   UNL     1      16.572   6.547  20.708  0.00  0.00    -0.013 C 
ATOM     16  C   UNL     1      15.071   6.810  20.689  0.00  0.00    +0.007 C 
ATOM     17  C   UNL     1      17.075   6.182  19.315  0.00  0.00    +0.007 C 
ENDBRANCH   7  11
BRANCH   8  14
ATOM     14  C   UNL     1      19.390   6.626  22.183  0.00  0.00    +0.112 C 
BRANCH  14   5
ATOM      2  O   UNL     1      20.108   4.622  20.225  0.00  0.00    -0.273 OA
ATOM      5  N   UNL     1      20.706   6.181  21.847  0.00  0.00    -0.313 N 
ATOM     20  C   UNL     1      20.965   5.204  20.886  0.00  0.00    +0.239 C 
ATOM     31  H   UNL     1      21.495   6.639  22.295  0.00  0.00    +0.149 HD
BRANCH  20  22
ATOM     22  C   UNL     1      22.445   4.928  20.734  0.00  0.00    +0.255 C 
BRANCH  22   3
ATOM      3  O   UNL     1      22.726   3.567  20.978  0.00  0.00    -0.374 OA
ATOM     26  C   UNL     1      24.125   3.326  21.099  0.00  0.00    +0.194 C 
ENDBRANCH  22   3
ENDBRANCH  20  22
ENDBRANCH  14   5
ENDBRANCH   8  14
BRANCH  10  15
ATOM     15  C   UNL     1      16.892  10.762  22.346  0.00  0.00    +0.103 C 
BRANCH  15  19
ATOM      1  O   UNL     1      15.227  12.436  21.821  0.00  0.00    -0.276 OA
ATOM      6  N   UNL     1      14.550  10.279  22.359  0.00  0.00    -0.311 N 
ATOM     19  C   UNL     1      15.486  11.279  22.139  0.00  0.00    +0.214 C 
ATOM     32  H   UNL     1      14.863   9.348  22.618  0.00  0.00    +0.149 HD
BRANCH   6  21
ATOM     21  C   UNL     1      13.127  10.490  22.234  0.00  0.00    +0.139 C 
BRANCH  21  23
ATOM     23  C   UNL     1      12.564   9.824  21.012  0.00  0.00    -0.030 A 
ATOM     24  C   UNL     1      11.403   9.057  21.107  0.00  0.00    +0.009 A 
ATOM     25  C   UNL     1      13.203   9.972  19.781  0.00  0.00    +0.009 A 
ATOM     27  C   UNL     1      10.880   8.440  19.971  0.00  0.00    +0.046 A 
ATOM     28  C   UNL     1      12.680   9.355  18.644  0.00  0.00    +0.046 A 
ATOM     29  C   UNL     1      11.518   8.588  18.740  0.00  0.00    +0.120 A 
BRANCH  29   4
ATOM      4  O   UNL     1      11.008   7.985  17.632  0.00  0.00    -0.495 OA
ATOM     30  C   UNL     1      10.801   8.807  16.483  0.00  0.00    +0.277 C 
ENDBRANCH  29   4
ENDBRANCH  21  23
ENDBRANCH   6  21
ENDBRANCH  15  19
ENDBRANCH  10  15
TORSDOF 10
ENDMDL
MODEL 6
REMARK VINA RESULT:      -5.7     27.837     30.726
REMARK  Name = 38027859
REMARK  15 active torsions:
REMARK  status: ('A' for Active; 'I' for Inactive)
REMARK    1  A    between atoms: O_3  and  C_22
REMARK    2  A    between atoms: O_3  and  C_26
REMARK    3  A    between atoms: O_4  and  C_29
REMARK    4  A    between atoms: O_4  and  C_30
REMARK    5  A    between atoms: N_5  and  C_14
REMARK    6  A    between atoms: N_6  and  C_21
REMARK    7  A    between atoms: C_7  and  C_11
REMARK    8  A    between atoms: C_8  and  C_14
REMARK    9  A    between atoms: C_10  and  C_15
REMARK   10  A    between atoms: C_11  and  C_16
REMARK   11  A    between atoms: C_11  and  C_17
REMARK   12  A    between atoms: C_12  and  C_18
REMARK   13  A    between atoms: C_15  and  C_19
REMARK   14  A    between atoms: C_20  and  C_22
REMARK   15  A    between atoms: C_21  and  C_23
REMARK                            x       y       z     vdW  Elec       q    Type
REMARK                         _______ _______ _______ _____ _____    ______ ____
ROOT
ATOM      7  C   UNL     1      16.714   8.636  21.175  0.00  0.00    +0.000 C 
ATOM      8  C   UNL     1      16.079   7.850  19.999  0.00  0.00    +0.032 C 
ATOM      9  C   UNL     1      18.244   8.665  21.036  0.00  0.00    +0.012 C 
ATOM     10  C   UNL     1      18.853   7.250  21.007  0.00  0.00    +0.023 C 
ATOM     12  C   UNL     1      18.105   6.333  20.061  0.00  0.00    -0.073 C 
ATOM     13  C   UNL     1      16.872   6.624  19.611  0.00  0.00    -0.022 C 
ATOM     18  C   UNL     1      18.826   5.094  19.609  0.00  0.00    +0.039 C 
ENDROOT
BRANCH   7  11
ATOM     11  C   UNL     1      16.174  10.066  21.261  0.00  0.00    -0.013 C 
ATOM     16  C   UNL     1      17.032  10.904  22.202  0.00  0.00    +0.007 C 
ATOM     17  C   UNL     1      16.117  10.698  19.873  0.00  0.00    +0.007 C 
ENDBRANCH   7  11
BRANCH   8  14
ATOM     14  C   UNL     1      14.636   7.445  20.321  0.00  0.00    +0.112 C 
BRANCH  14   5
ATOM      2  O   UNL     1      12.029   6.459  19.549  0.00  0.00    -0.273 OA
ATOM      5  N   UNL     1      13.722   8.050  19.404  0.00  0.00    -0.313 N 
ATOM     20  C   UNL     1      12.479   7.505  19.086  0.00  0.00    +0.239 C 
ATOM     31  H   UNL     1      13.970   8.951  19.004  0.00  0.00    +0.149 HD
BRANCH  20  22
ATOM     22  C   UNL     1      11.718   8.353  18.089  0.00  0.00    +0.255 C 
BRANCH  22   3
ATOM      3  O   UNL     1      12.196   8.132  16.780  0.00  0.00    -0.374 OA
ATOM     26  C   UNL     1      12.527   9.353  16.123  0.00  0.00    +0.194 C 
ENDBRANCH  22   3
ENDBRANCH  20  22
ENDBRANCH  14   5
ENDBRANCH   8  14
BRANCH  10  15
ATOM     15  C   UNL     1      18.920   6.650  22.416  0.00  0.00    +0.103 C 
BRANCH  15  19
ATOM      1  O   UNL     1      20.661   6.442  24.082  0.00  0.00    -0.276 OA
ATOM      6  N   UNL     1      21.222   6.378  21.827  0.00  0.00    -0.311 N 
ATOM     19  C   UNL     1      20.344   6.480  22.896  0.00  0.00    +0.214 C 
ATOM     32  H   UNL     1      20.862   6.419  20.879  0.00  0.00    +0.149 HD
BRANCH   6  21
ATOM     21  C   UNL     1      22.647   6.211  21.992  0.00  0.00    +0.139 C 
BRANCH  21  23
ATOM     23  C   UNL     1      23.069   4.781  21.814  0.00  0.00    -0.030 A 
ATOM     24  C   UNL     1      22.790   3.842  22.807  0.00  0.00    +0.009 A 
ATOM     25  C   UNL     1      23.742   4.391  20.656  0.00  0.00    +0.009 A 
ATOM     27  C   UNL     1      23.181   2.514  22.642  0.00  0.00    +0.046 A 
ATOM     28  C   UNL     1      24.134   3.063  20.490  0.00  0.00    +0.046 A 
ATOM     29  C   UNL     1      23.853   2.124  21.484  0.00  0.00    +0.120 A 
BRANCH  29   4
ATOM      4  O   UNL     1      24.235   0.828  21.323  0.00  0.00    -0.495 OA
ATOM     30  C   UNL     1      25.427   0.414  21.991  0.00  0.00    +0.277 C 
ENDBRANCH  29   4
ENDBRANCH  21  23
ENDBRANCH   6  21
ENDBRANCH  15  19
ENDBRANCH  10  15
TORSDOF 10
ENDMDL
MODEL 7
REMARK VINA RESULT:      -5.6     20.527     24.169
REMARK  Name = 38027859
REMARK  15 active torsions:
REMARK  status: ('A' for Active; 'I' for Inactive)
REMARK    1  A    between atoms: O_3  and  C_22
REMARK    2  A    between atoms: O_3  and  C_26
REMARK    3  A    between atoms: O_4  and  C_29
REMARK    4  A    between atoms: O_4  and  C_30
REMARK    5  A    between atoms: N_5  and  C_14
REMARK    6  A    between atoms: N_6  and  C_21
REMARK    7  A    between atoms: C_7  and  C_11
REMARK    8  A    between atoms: C_8  and  C_14
REMARK    9  A    between atoms: C_10  and  C_15
REMARK   10  A    between atoms: C_11  and  C_16
REMARK   11  A    between atoms: C_11  and  C_17
REMARK   12  A    between atoms: C_12  and  C_18
REMARK   13  A    between atoms: C_15  and  C_19
REMARK   14  A    between atoms: C_20  and  C_22
REMARK   15  A    between atoms: C_21  and  C_23
REMARK                            x       y       z     vdW  Elec       q    Type
REMARK                         _______ _______ _______ _____ _____    ______ ____
ROOT
ATOM      7  C   UNL     1     -12.115  10.063  18.802  0.00  0.00    +0.000 C 
ATOM      8  C   UNL     1     -12.040   8.702  18.065  0.00  0.00    +0.032 C 
ATOM      9  C   UNL     1     -11.354   9.995  20.134  0.00  0.00    +0.012 C 
ATOM     10  C   UNL     1     -11.909   8.903  21.067  0.00  0.00    +0.023 C 
ATOM     12  C   UNL     1     -12.116   7.591  20.338  0.00  0.00    -0.073 C 
ATOM     13  C   UNL     1     -12.159   7.519  18.996  0.00  0.00    -0.022 C 
ATOM     18  C   UNL     1     -12.229   6.355  21.188  0.00  0.00    +0.039 C 
ENDROOT
BRANCH   7  11
ATOM     11  C   UNL     1     -11.562  11.206  17.945  0.00  0.00    -0.013 C 
ATOM     16  C   UNL     1     -11.590  12.517  18.723  0.00  0.00    +0.007 C 
ATOM     17  C   UNL     1     -10.145  10.883  17.480  0.00  0.00    +0.007 C 
ENDBRANCH   7  11
BRANCH   8  14
ATOM     14  C   UNL     1     -13.113   8.604  16.974  0.00  0.00    +0.112 C 
BRANCH  14   5
ATOM      2  O   UNL     1     -14.475   8.257  14.446  0.00  0.00    -0.273 OA
ATOM      5  N   UNL     1     -12.547   8.140  15.746  0.00  0.00    -0.313 N 
ATOM     20  C   UNL     1     -13.279   8.001  14.567  0.00  0.00    +0.239 C 
ATOM     31  H   UNL     1     -11.549   7.954  15.718  0.00  0.00    +0.149 HD
BRANCH  20  22
ATOM     22  C   UNL     1     -12.431   7.493  13.421  0.00  0.00    +0.255 C 
BRANCH  22   3
ATOM      3  O   UNL     1     -11.277   8.290  13.263  0.00  0.00    -0.374 OA
ATOM     26  C   UNL     1     -10.111   7.501  13.051  0.00  0.00    +0.194 C 
ENDBRANCH  22   3
ENDBRANCH  20  22
ENDBRANCH  14   5
ENDBRANCH   8  14
BRANCH  10  15
ATOM     15  C   UNL     1     -13.202   9.363  21.748  0.00  0.00    +0.103 C 
BRANCH  15  19
ATOM      1  O   UNL     1     -13.506  11.757  21.911  0.00  0.00    -0.276 OA
ATOM      6  N   UNL     1     -12.347  10.634  23.583  0.00  0.00    -0.311 N 
ATOM     19  C   UNL     1     -13.054  10.722  22.393  0.00  0.00    +0.214 C 
ATOM     32  H   UNL     1     -12.014   9.730  23.903  0.00  0.00    +0.149 HD
BRANCH   6  21
ATOM     21  C   UNL     1     -12.054  11.780  24.413  0.00  0.00    +0.139 C 
BRANCH  21  23
ATOM     23  C   UNL     1     -11.868  11.399  25.853  0.00  0.00    -0.030 A 
ATOM     24  C   UNL     1     -11.053  10.318  26.189  0.00  0.00    +0.009 A 
ATOM     25  C   UNL     1     -12.509  12.127  26.855  0.00  0.00    +0.009 A 
ATOM     27  C   UNL     1     -10.879   9.965  27.527  0.00  0.00    +0.046 A 
ATOM     28  C   UNL     1     -12.336  11.774  28.194  0.00  0.00    +0.046 A 
ATOM     29  C   UNL     1     -11.520  10.693  28.530  0.00  0.00    +0.120 A 
BRANCH  29   4
ATOM      4  O   UNL     1     -11.350  10.348  29.835  0.00  0.00    -0.495 OA
ATOM     30  C   UNL     1     -11.299  11.411  30.786  0.00  0.00    +0.277 C 
ENDBRANCH  29   4
ENDBRANCH  21  23
ENDBRANCH   6  21
ENDBRANCH  15  19
ENDBRANCH  10  15
TORSDOF 10
ENDMDL
MODEL 8
REMARK VINA RESULT:      -5.6      1.601      3.283
REMARK  Name = 38027859
REMARK  15 active torsions:
REMARK  status: ('A' for Active; 'I' for Inactive)
REMARK    1  A    between atoms: O_3  and  C_22
REMARK    2  A    between atoms: O_3  and  C_26
REMARK    3  A    between atoms: O_4  and  C_29
REMARK    4  A    between atoms: O_4  and  C_30
REMARK    5  A    between atoms: N_5  and  C_14
REMARK    6  A    between atoms: N_6  and  C_21
REMARK    7  A    between atoms: C_7  and  C_11
REMARK    8  A    between atoms: C_8  and  C_14
REMARK    9  A    between atoms: C_10  and  C_15
REMARK   10  A    between atoms: C_11  and  C_16
REMARK   11  A    between atoms: C_11  and  C_17
REMARK   12  A    between atoms: C_12  and  C_18
REMARK   13  A    between atoms: C_15  and  C_19
REMARK   14  A    between atoms: C_20  and  C_22
REMARK   15  A    between atoms: C_21  and  C_23
REMARK                            x       y       z     vdW  Elec       q    Type
REMARK                         _______ _______ _______ _____ _____    ______ ____
ROOT
ATOM      7  C   UNL     1      -5.458 -11.683  17.707  0.00  0.00    +0.000 C 
ATOM      8  C   UNL     1      -6.914 -11.288  17.351  0.00  0.00    +0.032 C 
ATOM      9  C   UNL     1      -4.472 -10.632  17.175  0.00  0.00    +0.012 C 
ATOM     10  C   UNL     1      -4.572 -10.460  15.647  0.00  0.00    +0.023 C 
ATOM     12  C   UNL     1      -6.010 -10.333  15.187  0.00  0.00    -0.073 C 
ATOM     13  C   UNL     1      -7.043 -10.695  15.967  0.00  0.00    -0.022 C 
ATOM     18  C   UNL     1      -6.234  -9.736  13.826  0.00  0.00    +0.039 C 
ENDROOT
BRANCH   7  11
ATOM     11  C   UNL     1      -5.269 -11.855  19.217  0.00  0.00    -0.013 C 
ATOM     16  C   UNL     1      -3.793 -12.046  19.550  0.00  0.00    +0.007 C 
ATOM     17  C   UNL     1      -5.842 -10.656  19.965  0.00  0.00    +0.007 C 
ENDBRANCH   7  11
BRANCH   8  14
ATOM     14  C   UNL     1      -7.860 -12.487  17.484  0.00  0.00    +0.112 C 
BRANCH  14   5
ATOM      2  O   UNL     1      -8.289 -13.352  20.210  0.00  0.00    -0.273 OA
ATOM      5  N   UNL     1      -8.970 -12.167  18.326  0.00  0.00    -0.313 N 
ATOM     20  C   UNL     1      -9.099 -12.629  19.635  0.00  0.00    +0.239 C 
ATOM     31  H   UNL     1      -9.673 -11.526  17.969  0.00  0.00    +0.149 HD
BRANCH  20  22
ATOM     22  C   UNL     1     -10.369 -12.136  20.294  0.00  0.00    +0.255 C 
BRANCH  22   3
ATOM      3  O   UNL     1     -10.461 -10.730  20.212  0.00  0.00    -0.374 OA
ATOM     26  C   UNL     1     -11.811 -10.292  20.086  0.00  0.00    +0.194 C 
ENDBRANCH  22   3
ENDBRANCH  20  22
ENDBRANCH  14   5
ENDBRANCH   8  14
BRANCH  10  15
ATOM     15  C   UNL     1      -3.861 -11.604  14.915  0.00  0.00    +0.103 C 
BRANCH  15  19
ATOM      1  O   UNL     1      -1.991 -10.327  14.065  0.00  0.00    -0.276 OA
ATOM      6  N   UNL     1      -3.254 -11.617  12.602  0.00  0.00    -0.311 N 
ATOM     19  C   UNL     1      -2.921 -11.098  13.844  0.00  0.00    +0.214 C 
ATOM     32  H   UNL     1      -4.043 -12.252  12.520  0.00  0.00    +0.149 HD
BRANCH   6  21
ATOM     21  C   UNL     1      -2.526 -11.302  11.395  0.00  0.00    +0.139 C 
BRANCH  21  23
ATOM     23  C   UNL     1      -3.427 -10.772  10.317  0.00  0.00    -0.030 A 
ATOM     24  C   UNL     1      -3.522  -9.398  10.100  0.00  0.00    +0.009 A 
ATOM     25  C   UNL     1      -4.169 -11.655   9.532  0.00  0.00    +0.009 A 
ATOM     27  C   UNL     1      -4.358  -8.906   9.098  0.00  0.00    +0.046 A 
ATOM     28  C   UNL     1      -5.006 -11.164   8.530  0.00  0.00    +0.046 A 
ATOM     29  C   UNL     1      -5.100  -9.788   8.313  0.00  0.00    +0.120 A 
BRANCH  29   4
ATOM      4  O   UNL     1      -5.915  -9.308   7.335  0.00  0.00    -0.495 OA
ATOM     30  C   UNL     1      -6.071 -10.112   6.166  0.00  0.00    +0.277 C 
ENDBRANCH  29   4
ENDBRANCH  21  23
ENDBRANCH   6  21
ENDBRANCH  15  19
ENDBRANCH  10  15
TORSDOF 10
ENDMDL
MODEL 9
REMARK VINA RESULT:      -5.6      3.089      8.417
REMARK  Name = 38027859
REMARK  15 active torsions:
REMARK  status: ('A' for Active; 'I' for Inactive)
REMARK    1  A    between atoms: O_3  and  C_22
REMARK    2  A    between atoms: O_3  and  C_26
REMARK    3  A    between atoms: O_4  and  C_29
REMARK    4  A    between atoms: O_4  and  C_30
REMARK    5  A    between atoms: N_5  and  C_14
REMARK    6  A    between atoms: N_6  and  C_21
REMARK    7  A    between atoms: C_7  and  C_11
REMARK    8  A    between atoms: C_8  and  C_14
REMARK    9  A    between atoms: C_10  and  C_15
REMARK   10  A    between atoms: C_11  and  C_16
REMARK   11  A    between atoms: C_11  and  C_17
REMARK   12  A    between atoms: C_12  and  C_18
REMARK   13  A    between atoms: C_15  and  C_19
REMARK   14  A    between atoms: C_20  and  C_22
REMARK   15  A    between atoms: C_21  and  C_23
REMARK                            x       y       z     vdW  Elec       q    Type
REMARK                         _______ _______ _______ _____ _____    ______ ____
ROOT
ATOM      7  C   UNL     1      -4.747 -11.264   7.932  0.00  0.00    +0.000 C 
ATOM      8  C   UNL     1      -6.098 -10.505   7.920  0.00  0.00    +0.032 C 
ATOM      9  C   UNL     1      -4.441 -11.792   9.342  0.00  0.00    +0.012 C 
ATOM     10  C   UNL     1      -4.376 -10.662  10.386  0.00  0.00    +0.023 C 
ATOM     12  C   UNL     1      -5.547  -9.709  10.259  0.00  0.00    -0.073 C 
ATOM     13  C   UNL     1      -6.313  -9.663   9.155  0.00  0.00    -0.022 C 
ATOM     18  C   UNL     1      -5.846  -8.842  11.451  0.00  0.00    +0.039 C 
ENDROOT
BRANCH   7  11
ATOM     11  C   UNL     1      -4.736 -12.422   6.930  0.00  0.00    -0.013 C 
ATOM     16  C   UNL     1      -3.775 -12.126   5.784  0.00  0.00    +0.007 C 
ATOM     17  C   UNL     1      -4.361 -13.726   7.628  0.00  0.00    +0.007 C 
ENDBRANCH   7  11
BRANCH   8  14
ATOM     14  C   UNL     1      -6.225  -9.623   6.672  0.00  0.00    +0.112 C 
BRANCH  14   5
ATOM      2  O   UNL     1      -7.672  -8.178   4.626  0.00  0.00    -0.273 OA
ATOM      5  N   UNL     1      -7.210  -8.606   6.867  0.00  0.00    -0.313 N 
ATOM     20  C   UNL     1      -7.862  -7.957   5.820  0.00  0.00    +0.239 C 
ATOM     31  H   UNL     1      -7.487  -8.383   7.820  0.00  0.00    +0.149 HD
BRANCH  20  22
ATOM     22  C   UNL     1      -8.855  -6.926   6.313  0.00  0.00    +0.255 C 
BRANCH  22   3
ATOM      3  O   UNL     1      -8.385  -6.304   7.489  0.00  0.00    -0.374 OA
ATOM     26  C   UNL     1      -9.453  -5.935   8.357  0.00  0.00    +0.194 C 
ENDBRANCH  22   3
ENDBRANCH  20  22
ENDBRANCH  14   5
ENDBRANCH   8  14
BRANCH  10  15
ATOM     15  C   UNL     1      -3.044  -9.908  10.301  0.00  0.00    +0.103 C 
BRANCH  15  19
ATOM      1  O   UNL     1      -1.120  -9.546  11.721  0.00  0.00    -0.276 OA
ATOM      6  N   UNL     1      -2.948 -10.718  12.549  0.00  0.00    -0.311 N 
ATOM     19  C   UNL     1      -2.244 -10.018  11.580  0.00  0.00    +0.214 C 
ATOM     32  H   UNL     1      -3.877 -11.069  12.338  0.00  0.00    +0.149 HD
BRANCH   6  21
ATOM     21  C   UNL     1      -2.425 -10.976  13.870  0.00  0.00    +0.139 C 
BRANCH  21  23
ATOM     23  C   UNL     1      -3.465 -10.780  14.936  0.00  0.00    -0.030 A 
ATOM     24  C   UNL     1      -4.764 -10.417  14.584  0.00  0.00    +0.009 A 
ATOM     25  C   UNL     1      -3.131 -10.963  16.277  0.00  0.00    +0.009 A 
ATOM     27  C   UNL     1      -5.731 -10.237  15.573  0.00  0.00    +0.046 A 
ATOM     28  C   UNL     1      -4.097 -10.782  17.268  0.00  0.00    +0.046 A 
ATOM     29  C   UNL     1      -5.397 -10.419  16.915  0.00  0.00    +0.120 A 
BRANCH  29   4
ATOM      4  O   UNL     1      -6.340 -10.243  17.880  0.00  0.00    -0.495 OA
ATOM     30  C   UNL     1      -7.521  -9.531  17.512  0.00  0.00    +0.277 C 
ENDBRANCH  29   4
ENDBRANCH  21  23
ENDBRANCH   6  21
ENDBRANCH  15  19
ENDBRANCH  10  15
TORSDOF 10
ENDMDL
MODEL 10
REMARK VINA RESULT:      -5.6      2.466      8.508
REMARK  Name = 38027859
REMARK  15 active torsions:
REMARK  status: ('A' for Active; 'I' for Inactive)
REMARK    1  A    between atoms: O_3  and  C_22
REMARK    2  A    between atoms: O_3  and  C_26
REMARK    3  A    between atoms: O_4  and  C_29
REMARK    4  A    between atoms: O_4  and  C_30
REMARK    5  A    between atoms: N_5  and  C_14
REMARK    6  A    between atoms: N_6  and  C_21
REMARK    7  A    between atoms: C_7  and  C_11
REMARK    8  A    between atoms: C_8  and  C_14
REMARK    9  A    between atoms: C_10  and  C_15
REMARK   10  A    between atoms: C_11  and  C_16
REMARK   11  A    between atoms: C_11  and  C_17
REMARK   12  A    between atoms: C_12  and  C_18
REMARK   13  A    between atoms: C_15  and  C_19
REMARK   14  A    between atoms: C_20  and  C_22
REMARK   15  A    between atoms: C_21  and  C_23
REMARK                            x       y       z     vdW  Elec       q    Type
REMARK                         _______ _______ _______ _____ _____    ______ ____
ROOT
ATOM      7  C   UNL     1      -5.388 -10.443  10.530  0.00  0.00    +0.000 C 
ATOM      8  C   UNL     1      -4.836  -9.473   9.454  0.00  0.00    +0.032 C 
ATOM      9  C   UNL     1      -4.832 -10.080  11.915  0.00  0.00    +0.012 C 
ATOM     10  C   UNL     1      -3.293 -10.128  11.957  0.00  0.00    +0.023 C 
ATOM     12  C   UNL     1      -2.675  -9.415  10.772  0.00  0.00    -0.073 C 
ATOM     13  C   UNL     1      -3.383  -9.119   9.668  0.00  0.00    -0.022 C 
ATOM     18  C   UNL     1      -1.233  -9.010  10.903  0.00  0.00    +0.039 C 
ENDROOT
BRANCH   7  11
ATOM     11  C   UNL     1      -6.919 -10.440  10.567  0.00  0.00    -0.013 C 
ATOM     16  C   UNL     1      -7.423 -11.189  11.796  0.00  0.00    +0.007 C 
ATOM     17  C   UNL     1      -7.448  -9.009  10.551  0.00  0.00    +0.007 C 
ENDBRANCH   7  11
BRANCH   8  14
ATOM     14  C   UNL     1      -5.021 -10.048   8.045  0.00  0.00    +0.112 C 
BRANCH  14   5
ATOM      2  O   UNL     1      -4.603 -11.626   5.658  0.00  0.00    -0.273 OA
ATOM      5  N   UNL     1      -4.515 -11.383   7.971  0.00  0.00    -0.313 N 
ATOM     20  C   UNL     1      -4.344 -12.074   6.772  0.00  0.00    +0.239 C 
ATOM     31  H   UNL     1      -4.214 -11.830   8.833  0.00  0.00    +0.149 HD
BRANCH  20  22
ATOM     22  C   UNL     1      -3.793 -13.467   6.986  0.00  0.00    +0.255 C 
BRANCH  22   3
ATOM      3  O   UNL     1      -3.543 -14.100   5.750  0.00  0.00    -0.374 OA
ATOM     26  C   UNL     1      -2.283 -14.765   5.740  0.00  0.00    +0.194 C 
ENDBRANCH  22   3
ENDBRANCH  20  22
ENDBRANCH  14   5
ENDBRANCH   8  14
BRANCH  10  15
ATOM     15  C   UNL     1      -2.789 -11.572  12.053  0.00  0.00    +0.103 C 
BRANCH  15  19
ATOM      1  O   UNL     1      -2.651 -13.226  13.813  0.00  0.00    -0.276 OA
ATOM      6  N   UNL     1      -2.611 -10.967  14.360  0.00  0.00    -0.311 N 
ATOM     19  C   UNL     1      -2.677 -12.042  13.486  0.00  0.00    +0.214 C 
ATOM     32  H   UNL     1      -2.637 -10.021  13.992  0.00  0.00    +0.149 HD
BRANCH   6  21
ATOM     21  C   UNL     1      -2.501 -11.121  15.792  0.00  0.00    +0.139 C 
BRANCH  21  23
ATOM     23  C   UNL     1      -3.806 -10.862  16.488  0.00  0.00    -0.030 A 
ATOM     24  C   UNL     1      -4.810 -10.141  15.841  0.00  0.00    +0.009 A 
ATOM     25  C   UNL     1      -4.014 -11.341  17.781  0.00  0.00    +0.009 A 
ATOM     27  C   UNL     1      -6.023  -9.902  16.487  0.00  0.00    +0.046 A 
ATOM     28  C   UNL     1      -5.226 -11.102  18.427  0.00  0.00    +0.046 A 
ATOM     29  C   UNL     1      -6.231 -10.382  17.780  0.00  0.00    +0.120 A 
BRANCH  29   4
ATOM      4  O   UNL     1      -7.415 -10.148  18.410  0.00  0.00    -0.495 OA
ATOM     30  C   UNL     1      -8.445  -9.523  17.644  0.00  0.00    +0.277 C 
ENDBRANCH  29   4
ENDBRANCH  21  23
ENDBRANCH   6  21
ENDBRANCH  15  19
ENDBRANCH  10  15
TORSDOF 10
ENDMDL
