MODEL 1
REMARK VINA RESULT:      -7.3      0.000      0.000
REMARK  Name = 45783471
REMARK  11 active torsions:
REMARK  status: ('A' for Active; 'I' for Inactive)
REMARK    1  A    between atoms: O_2  and  C_26
REMARK    2  A    between atoms: O_4  and  C_30
REMARK    3  A    between atoms: O_4  and  C_31
REMARK    4  A    between atoms: N_5  and  C_14
REMARK    5  A    between atoms: N_9  and  C_28
REMARK    6  A    between atoms: N_9  and  C_29
REMARK    7  A    between atoms: C_10  and  C_15
REMARK    8  A    between atoms: C_14  and  C_16
REMARK    9  A    between atoms: C_19  and  C_22
REMARK   10  A    between atoms: C_23  and  C_26
REMARK   11  A    between atoms: C_29  and  C_30
REMARK                            x       y       z     vdW  Elec       q    Type
REMARK                         _______ _______ _______ _____ _____    ______ ____
ROOT
ATOM      1  O   UNL     1      15.007   8.777  19.854  0.00  0.00    -0.336 OA
ATOM      6  N   UNL     1      15.895   6.868  19.087  0.00  0.00    -0.190 NA
ATOM      7  N   UNL     1      16.196   8.587  20.568  0.00  0.00    -0.056 NA
ATOM     15  C   UNL     1      14.905   7.721  19.004  0.00  0.00    +0.245 A 
ATOM     19  C   UNL     1      16.662   7.441  20.060  0.00  0.00    +0.204 A 
ENDROOT
BRANCH  19  22
ATOM      8  N   UNL     1      19.710   6.801  22.091  0.00  0.00    -0.240 NA
ATOM     22  C   UNL     1      17.888   6.843  20.502  0.00  0.00    +0.041 A 
ATOM     24  C   UNL     1      18.448   5.769  19.821  0.00  0.00    +0.016 A 
ATOM     25  C   UNL     1      18.552   7.318  21.621  0.00  0.00    +0.124 A 
ATOM     27  C   UNL     1      19.638   5.210  20.273  0.00  0.00    +0.044 A 
ATOM     28  C   UNL     1      20.224   5.758  21.402  0.00  0.00    +0.119 A 
BRANCH  28   9
ATOM      9  N   UNL     1      21.436   5.176  21.851  0.00  0.00    -0.327 N 
ATOM     32  H   UNL     1      22.055   5.777  22.383  0.00  0.00    +0.148 HD
BRANCH   9  29
ATOM     29  C   UNL     1      21.788   3.821  21.578  0.00  0.00    +0.131 C 
BRANCH  29  30
ATOM     30  C   UNL     1      23.298   3.662  21.598  0.00  0.00    +0.178 C 
BRANCH  30   4
ATOM      4  O   UNL     1      23.666   2.530  20.819  0.00  0.00    -0.381 OA
ATOM     31  C   UNL     1      24.765   2.819  19.967  0.00  0.00    +0.194 C 
ENDBRANCH  30   4
ENDBRANCH  29  30
ENDBRANCH   9  29
ENDBRANCH  28   9
ENDBRANCH  19  22
BRANCH  15  10
ATOM      5  N   UNL     1      12.600   8.564  18.595  0.00  0.00    -0.287 NA
ATOM     10  C   UNL     1      13.687   7.693  18.106  0.00  0.00    +0.146 C 
ATOM     11  C   UNL     1      13.985   8.201  16.683  0.00  0.00    +0.030 C 
ATOM     12  C   UNL     1      12.977   9.315  16.439  0.00  0.00    +0.017 C 
ATOM     13  C   UNL     1      11.858   9.003  17.412  0.00  0.00    +0.085 C 
BRANCH   5  14
ATOM     14  C   UNL     1      11.736   7.913  19.571  0.00  0.00    +0.120 C 
BRANCH  14  16
ATOM     16  C   UNL     1      11.493   8.786  20.774  0.00  0.00    -0.033 A 
ATOM     17  C   UNL     1      11.861  10.131  20.745  0.00  0.00    +0.006 A 
ATOM     18  C   UNL     1      10.898   8.250  21.916  0.00  0.00    +0.006 A 
ATOM     20  C   UNL     1      11.635  10.940  21.859  0.00  0.00    +0.015 A 
ATOM     21  C   UNL     1      10.673   9.059  23.030  0.00  0.00    +0.015 A 
ATOM     23  C   UNL     1      11.042  10.404  23.001  0.00  0.00    +0.059 A 
BRANCH  23  26
ATOM      3  O   UNL     1      11.315  11.089  25.277  0.00  0.00    -0.245 OA
ATOM     26  C   UNL     1      10.806  11.247  24.162  0.00  0.00    +0.337 C 
BRANCH  26   2
ATOM      2  O   UNL     1       9.940  12.264  23.900  0.00  0.00    -0.477 OA
ATOM     33  H   UNL     1      10.332  12.929  23.294  0.00  0.00    +0.295 HD
ENDBRANCH  26   2
ENDBRANCH  23  26
ENDBRANCH  14  16
ENDBRANCH   5  14
ENDBRANCH  15  10
TORSDOF 10
ENDMDL
MODEL 2
REMARK VINA RESULT:      -6.6      2.617      4.860
REMARK  Name = 45783471
REMARK  11 active torsions:
REMARK  status: ('A' for Active; 'I' for Inactive)
REMARK    1  A    between atoms: O_2  and  C_26
REMARK    2  A    between atoms: O_4  and  C_30
REMARK    3  A    between atoms: O_4  and  C_31
REMARK    4  A    between atoms: N_5  and  C_14
REMARK    5  A    between atoms: N_9  and  C_28
REMARK    6  A    between atoms: N_9  and  C_29
REMARK    7  A    between atoms: C_10  and  C_15
REMARK    8  A    between atoms: C_14  and  C_16
REMARK    9  A    between atoms: C_19  and  C_22
REMARK   10  A    between atoms: C_23  and  C_26
REMARK   11  A    between atoms: C_29  and  C_30
REMARK                            x       y       z     vdW  Elec       q    Type
REMARK                         _______ _______ _______ _____ _____    ______ ____
ROOT
ATOM      1  O   UNL     1      14.379   6.724  19.800  0.00  0.00    -0.336 OA
ATOM      6  N   UNL     1      15.680   7.873  21.216  0.00  0.00    -0.190 NA
ATOM      7  N   UNL     1      15.686   6.271  19.583  0.00  0.00    -0.056 NA
ATOM     15  C   UNL     1      14.465   7.665  20.776  0.00  0.00    +0.245 A 
ATOM     19  C   UNL     1      16.395   6.995  20.454  0.00  0.00    +0.204 A 
ENDROOT
BRANCH  19  22
ATOM      8  N   UNL     1      19.912   7.798  21.356  0.00  0.00    -0.240 NA
ATOM     22  C   UNL     1      17.817   6.867  20.588  0.00  0.00    +0.041 A 
ATOM     24  C   UNL     1      18.483   5.745  20.109  0.00  0.00    +0.016 A 
ATOM     25  C   UNL     1      18.570   7.857  21.197  0.00  0.00    +0.124 A 
ATOM     27  C   UNL     1      19.863   5.648  20.252  0.00  0.00    +0.044 A 
ATOM     28  C   UNL     1      20.525   6.693  20.877  0.00  0.00    +0.119 A 
BRANCH  28   9
ATOM      9  N   UNL     1      21.930   6.579  21.016  0.00  0.00    -0.327 N 
ATOM     32  H   UNL     1      22.426   7.416  21.299  0.00  0.00    +0.148 HD
BRANCH   9  29
ATOM     29  C   UNL     1      22.633   5.361  20.774  0.00  0.00    +0.131 C 
BRANCH  29  30
ATOM     30  C   UNL     1      22.907   4.648  22.087  0.00  0.00    +0.178 C 
BRANCH  30   4
ATOM      4  O   UNL     1      22.420   3.314  22.012  0.00  0.00    -0.381 OA
ATOM     31  C   UNL     1      23.183   2.531  21.105  0.00  0.00    +0.194 C 
ENDBRANCH  30   4
ENDBRANCH  29  30
ENDBRANCH   9  29
ENDBRANCH  28   9
ENDBRANCH  19  22
BRANCH  15  10
ATOM      5  N   UNL     1      12.448   8.941  20.071  0.00  0.00    -0.287 NA
ATOM     10  C   UNL     1      13.166   8.318  21.201  0.00  0.00    +0.146 C 
ATOM     11  C   UNL     1      12.162   7.312  21.794  0.00  0.00    +0.030 C 
ATOM     12  C   UNL     1      10.892   7.486  20.974  0.00  0.00    +0.017 C 
ATOM     13  C   UNL     1      11.024   8.884  20.404  0.00  0.00    +0.085 C 
BRANCH   5  14
ATOM     14  C   UNL     1      12.890  10.301  19.790  0.00  0.00    +0.120 C 
BRANCH  14  16
ATOM     16  C   UNL     1      13.528  10.413  18.430  0.00  0.00    -0.033 A 
ATOM     17  C   UNL     1      14.247  11.559  18.090  0.00  0.00    +0.006 A 
ATOM     18  C   UNL     1      13.402   9.370  17.513  0.00  0.00    +0.006 A 
ATOM     20  C   UNL     1      14.838  11.663  16.831  0.00  0.00    +0.015 A 
ATOM     21  C   UNL     1      13.994   9.475  16.253  0.00  0.00    +0.015 A 
ATOM     23  C   UNL     1      14.712  10.621  15.913  0.00  0.00    +0.059 A 
BRANCH  23  26
ATOM      3  O   UNL     1      15.672  11.783  14.055  0.00  0.00    -0.245 OA
ATOM     26  C   UNL     1      15.329  10.728  14.601  0.00  0.00    +0.337 C 
BRANCH  26   2
ATOM      2  O   UNL     1      15.501   9.516  14.006  0.00  0.00    -0.477 OA
ATOM     33  H   UNL     1      16.443   9.241  14.005  0.00  0.00    +0.295 HD
ENDBRANCH  26   2
ENDBRANCH  23  26
ENDBRANCH  14  16
ENDBRANCH   5  14
ENDBRANCH  15  10
TORSDOF 10
ENDMDL
MODEL 3
REMARK VINA RESULT:      -6.6      2.519      5.009
REMARK  Name = 45783471
REMARK  11 active torsions:
REMARK  status: ('A' for Active; 'I' for Inactive)
REMARK    1  A    between atoms: O_2  and  C_26
REMARK    2  A    between atoms: O_4  and  C_30
REMARK    3  A    between atoms: O_4  and  C_31
REMARK    4  A    between atoms: N_5  and  C_14
REMARK    5  A    between atoms: N_9  and  C_28
REMARK    6  A    between atoms: N_9  and  C_29
REMARK    7  A    between atoms: C_10  and  C_15
REMARK    8  A    between atoms: C_14  and  C_16
REMARK    9  A    between atoms: C_19  and  C_22
REMARK   10  A    between atoms: C_23  and  C_26
REMARK   11  A    between atoms: C_29  and  C_30
REMARK                            x       y       z     vdW  Elec       q    Type
REMARK                         _______ _______ _______ _____ _____    ______ ____
ROOT
ATOM      1  O   UNL     1      14.328   8.983  22.262  0.00  0.00    -0.336 OA
ATOM      6  N   UNL     1      16.450   9.588  21.876  0.00  0.00    -0.190 NA
ATOM      7  N   UNL     1      14.987   7.829  21.821  0.00  0.00    -0.056 NA
ATOM     15  C   UNL     1      15.260   9.972  22.265  0.00  0.00    +0.245 A 
ATOM     19  C   UNL     1      16.233   8.266  21.614  0.00  0.00    +0.204 A 
ENDROOT
BRANCH  19  22
ATOM      8  N   UNL     1      19.562   6.629  21.358  0.00  0.00    -0.240 NA
ATOM     22  C   UNL     1      17.283   7.409  21.145  0.00  0.00    +0.041 A 
ATOM     24  C   UNL     1      17.082   6.551  20.070  0.00  0.00    +0.016 A 
ATOM     25  C   UNL     1      18.530   7.410  21.749  0.00  0.00    +0.124 A 
ATOM     27  C   UNL     1      18.119   5.732  19.637  0.00  0.00    +0.044 A 
ATOM     28  C   UNL     1      19.329   5.808  20.308  0.00  0.00    +0.119 A 
BRANCH  28   9
ATOM      9  N   UNL     1      20.375   4.966  19.857  0.00  0.00    -0.327 N 
ATOM     32  H   UNL     1      20.228   4.500  18.969  0.00  0.00    +0.148 HD
BRANCH   9  29
ATOM     29  C   UNL     1      21.578   4.768  20.596  0.00  0.00    +0.131 C 
BRANCH  29  30
ATOM     30  C   UNL     1      21.605   3.367  21.182  0.00  0.00    +0.178 C 
BRANCH  30   4
ATOM      4  O   UNL     1      22.100   3.419  22.514  0.00  0.00    -0.381 OA
ATOM     31  C   UNL     1      22.287   4.759  22.949  0.00  0.00    +0.194 C 
ENDBRANCH  30   4
ENDBRANCH  29  30
ENDBRANCH   9  29
ENDBRANCH  28   9
ENDBRANCH  19  22
BRANCH  15  10
ATOM      5  N   UNL     1      13.550  11.764  22.035  0.00  0.00    -0.287 NA
ATOM     10  C   UNL     1      14.792  11.341  22.711  0.00  0.00    +0.146 C 
ATOM     11  C   UNL     1      14.457  11.393  24.214  0.00  0.00    +0.030 C 
ATOM     12  C   UNL     1      13.029  11.915  24.284  0.00  0.00    +0.017 C 
ATOM     13  C   UNL     1      12.850  12.647  22.969  0.00  0.00    +0.085 C 
BRANCH   5  14
ATOM     14  C   UNL     1      13.785  12.405  20.748  0.00  0.00    +0.120 C 
BRANCH  14  16
ATOM     16  C   UNL     1      13.717  11.421  19.610  0.00  0.00    -0.033 A 
ATOM     17  C   UNL     1      12.703  10.464  19.578  0.00  0.00    +0.006 A 
ATOM     18  C   UNL     1      14.666  11.468  18.589  0.00  0.00    +0.006 A 
ATOM     20  C   UNL     1      12.639   9.552  18.524  0.00  0.00    +0.015 A 
ATOM     21  C   UNL     1      14.602  10.556  17.536  0.00  0.00    +0.015 A 
ATOM     23  C   UNL     1      13.588   9.598  17.503  0.00  0.00    +0.059 A 
BRANCH  23  26
ATOM      3  O   UNL     1      13.075   8.888  15.277  0.00  0.00    -0.245 OA
ATOM     26  C   UNL     1      13.522   8.649  16.404  0.00  0.00    +0.337 C 
BRANCH  26   2
ATOM      2  O   UNL     1      14.016   7.426  16.742  0.00  0.00    -0.477 OA
ATOM     33  H   UNL     1      13.958   7.263  17.708  0.00  0.00    +0.295 HD
ENDBRANCH  26   2
ENDBRANCH  23  26
ENDBRANCH  14  16
ENDBRANCH   5  14
ENDBRANCH  15  10
TORSDOF 10
ENDMDL
MODEL 4
REMARK VINA RESULT:      -6.4      2.080      4.430
REMARK  Name = 45783471
REMARK  11 active torsions:
REMARK  status: ('A' for Active; 'I' for Inactive)
REMARK    1  A    between atoms: O_2  and  C_26
REMARK    2  A    between atoms: O_4  and  C_30
REMARK    3  A    between atoms: O_4  and  C_31
REMARK    4  A    between atoms: N_5  and  C_14
REMARK    5  A    between atoms: N_9  and  C_28
REMARK    6  A    between atoms: N_9  and  C_29
REMARK    7  A    between atoms: C_10  and  C_15
REMARK    8  A    between atoms: C_14  and  C_16
REMARK    9  A    between atoms: C_19  and  C_22
REMARK   10  A    between atoms: C_23  and  C_26
REMARK   11  A    between atoms: C_29  and  C_30
REMARK                            x       y       z     vdW  Elec       q    Type
REMARK                         _______ _______ _______ _____ _____    ______ ____
ROOT
ATOM      1  O   UNL     1      15.534   9.253  21.654  0.00  0.00    -0.336 OA
ATOM      6  N   UNL     1      15.612   7.321  20.522  0.00  0.00    -0.190 NA
ATOM      7  N   UNL     1      16.858   8.806  21.738  0.00  0.00    -0.056 NA
ATOM     15  C   UNL     1      14.868   8.322  20.922  0.00  0.00    +0.245 A 
ATOM     19  C   UNL     1      16.824   7.662  21.047  0.00  0.00    +0.204 A 
ENDROOT
BRANCH  19  22
ATOM      8  N   UNL     1      20.184   6.172  21.612  0.00  0.00    -0.240 NA
ATOM     22  C   UNL     1      17.983   6.837  20.864  0.00  0.00    +0.041 A 
ATOM     24  C   UNL     1      18.057   5.928  19.814  0.00  0.00    +0.016 A 
ATOM     25  C   UNL     1      19.064   6.920  21.727  0.00  0.00    +0.124 A 
ATOM     27  C   UNL     1      19.194   5.142  19.662  0.00  0.00    +0.044 A 
ATOM     28  C   UNL     1      20.220   5.300  20.578  0.00  0.00    +0.119 A 
BRANCH  28   9
ATOM      9  N   UNL     1      21.371   4.491  20.410  0.00  0.00    -0.327 N 
ATOM     32  H   UNL     1      21.559   4.163  19.470  0.00  0.00    +0.148 HD
BRANCH   9  29
ATOM     29  C   UNL     1      22.231   4.139  21.492  0.00  0.00    +0.131 C 
BRANCH  29  30
ATOM     30  C   UNL     1      23.650   4.595  21.199  0.00  0.00    +0.178 C 
BRANCH  30   4
ATOM      4  O   UNL     1      24.437   3.476  20.813  0.00  0.00    -0.381 OA
ATOM     31  C   UNL     1      24.993   3.652  19.517  0.00  0.00    +0.194 C 
ENDBRANCH  30   4
ENDBRANCH  29  30
ENDBRANCH   9  29
ENDBRANCH  28   9
ENDBRANCH  19  22
BRANCH  15  10
ATOM      5  N   UNL     1      12.592   7.341  20.706  0.00  0.00    -0.287 NA
ATOM     10  C   UNL     1      13.395   8.579  20.682  0.00  0.00    +0.146 C 
ATOM     11  C   UNL     1      12.765   9.475  21.764  0.00  0.00    +0.030 C 
ATOM     12  C   UNL     1      11.579   8.682  22.296  0.00  0.00    +0.017 C 
ATOM     13  C   UNL     1      11.257   7.722  21.168  0.00  0.00    +0.085 C 
BRANCH   5  14
ATOM     14  C   UNL     1      12.551   6.657  19.419  0.00  0.00    +0.120 C 
BRANCH  14  16
ATOM     16  C   UNL     1      12.738   7.613  18.271  0.00  0.00    -0.033 A 
ATOM     17  C   UNL     1      13.948   7.640  17.577  0.00  0.00    +0.006 A 
ATOM     18  C   UNL     1      11.702   8.470  17.900  0.00  0.00    +0.006 A 
ATOM     20  C   UNL     1      14.121   8.525  16.513  0.00  0.00    +0.015 A 
ATOM     21  C   UNL     1      11.876   9.355  16.835  0.00  0.00    +0.015 A 
ATOM     23  C   UNL     1      13.086   9.382  16.142  0.00  0.00    +0.059 A 
BRANCH  23  26
ATOM      3  O   UNL     1      14.354  10.673  14.577  0.00  0.00    -0.245 OA
ATOM     26  C   UNL     1      13.266  10.304  15.033  0.00  0.00    +0.337 C 
BRANCH  26   2
ATOM      2  O   UNL     1      12.083  10.741  14.521  0.00  0.00    -0.477 OA
ATOM     33  H   UNL     1      11.374  10.069  14.615  0.00  0.00    +0.295 HD
ENDBRANCH  26   2
ENDBRANCH  23  26
ENDBRANCH  14  16
ENDBRANCH   5  14
ENDBRANCH  15  10
TORSDOF 10
ENDMDL
MODEL 5
REMARK VINA RESULT:      -6.4     27.748     29.761
REMARK  Name = 45783471
REMARK  11 active torsions:
REMARK  status: ('A' for Active; 'I' for Inactive)
REMARK    1  A    between atoms: O_2  and  C_26
REMARK    2  A    between atoms: O_4  and  C_30
REMARK    3  A    between atoms: O_4  and  C_31
REMARK    4  A    between atoms: N_5  and  C_14
REMARK    5  A    between atoms: N_9  and  C_28
REMARK    6  A    between atoms: N_9  and  C_29
REMARK    7  A    between atoms: C_10  and  C_15
REMARK    8  A    between atoms: C_14  and  C_16
REMARK    9  A    between atoms: C_19  and  C_22
REMARK   10  A    between atoms: C_23  and  C_26
REMARK   11  A    between atoms: C_29  and  C_30
REMARK                            x       y       z     vdW  Elec       q    Type
REMARK                         _______ _______ _______ _____ _____    ______ ____
ROOT
ATOM      1  O   UNL     1      -7.789  -9.798  11.229  0.00  0.00    -0.336 OA
ATOM      6  N   UNL     1      -5.887  -9.235  12.270  0.00  0.00    -0.190 NA
ATOM      7  N   UNL     1      -7.962 -10.152  12.572  0.00  0.00    -0.056 NA
ATOM     15  C   UNL     1      -6.542  -9.266  11.137  0.00  0.00    +0.245 A 
ATOM     19  C   UNL     1      -6.798  -9.789  13.121  0.00  0.00    +0.204 A 
ENDROOT
BRANCH  19  22
ATOM      8  N   UNL     1      -7.311  -9.994  16.799  0.00  0.00    -0.240 NA
ATOM     22  C   UNL     1      -6.514  -9.967  14.516  0.00  0.00    +0.041 A 
ATOM     24  C   UNL     1      -5.230 -10.275  14.953  0.00  0.00    +0.016 A 
ATOM     25  C   UNL     1      -7.510  -9.839  15.471  0.00  0.00    +0.124 A 
ATOM     27  C   UNL     1      -4.985 -10.441  16.311  0.00  0.00    +0.044 A 
ATOM     28  C   UNL     1      -6.049 -10.291  17.186  0.00  0.00    +0.119 A 
BRANCH  28   9
ATOM      9  N   UNL     1      -5.784 -10.466  18.567  0.00  0.00    -0.327 N 
ATOM     32  H   UNL     1      -5.629  -9.623  19.107  0.00  0.00    +0.148 HD
BRANCH   9  29
ATOM     29  C   UNL     1      -5.728 -11.750  19.184  0.00  0.00    +0.131 C 
BRANCH  29  30
ATOM     30  C   UNL     1      -7.120 -12.182  19.613  0.00  0.00    +0.178 C 
BRANCH  30   4
ATOM      4  O   UNL     1      -7.863 -11.043  20.028  0.00  0.00    -0.381 OA
ATOM     31  C   UNL     1      -9.225 -11.137  19.635  0.00  0.00    +0.194 C 
ENDBRANCH  30   4
ENDBRANCH  29  30
ENDBRANCH   9  29
ENDBRANCH  28   9
ENDBRANCH  19  22
BRANCH  15  10
ATOM      5  N   UNL     1      -5.154  -9.723   9.123  0.00  0.00    -0.287 NA
ATOM     10  C   UNL     1      -6.108  -8.797   9.764  0.00  0.00    +0.146 C 
ATOM     11  C   UNL     1      -7.282  -8.695   8.772  0.00  0.00    +0.030 C 
ATOM     12  C   UNL     1      -6.870  -9.547   7.580  0.00  0.00    +0.017 C 
ATOM     13  C   UNL     1      -5.358  -9.593   7.680  0.00  0.00    +0.085 C 
BRANCH   5  14
ATOM     14  C   UNL     1      -3.769  -9.477   9.504  0.00  0.00    +0.120 C 
BRANCH  14  16
ATOM     16  C   UNL     1      -3.287 -10.466  10.532  0.00  0.00    -0.033 A 
ATOM     17  C   UNL     1      -2.401 -10.058  11.529  0.00  0.00    +0.006 A 
ATOM     18  C   UNL     1      -3.727 -11.789  10.489  0.00  0.00    +0.006 A 
ATOM     20  C   UNL     1      -1.954 -10.974  12.482  0.00  0.00    +0.015 A 
ATOM     21  C   UNL     1      -3.280 -12.704  11.442  0.00  0.00    +0.015 A 
ATOM     23  C   UNL     1      -2.393 -12.296  12.438  0.00  0.00    +0.059 A 
BRANCH  23  26
ATOM      3  O   UNL     1      -2.580 -13.646  14.404  0.00  0.00    -0.245 OA
ATOM     26  C   UNL     1      -1.928 -13.251  13.431  0.00  0.00    +0.337 C 
BRANCH  26   2
ATOM      2  O   UNL     1      -0.663 -13.687  13.183  0.00  0.00    -0.477 OA
ATOM     33  H   UNL     1      -0.627 -14.274  12.397  0.00  0.00    +0.295 HD
ENDBRANCH  26   2
ENDBRANCH  23  26
ENDBRANCH  14  16
ENDBRANCH   5  14
ENDBRANCH  15  10
TORSDOF 10
ENDMDL
MODEL 6
REMARK VINA RESULT:      -6.2     26.660     30.230
REMARK  Name = 45783471
REMARK  11 active torsions:
REMARK  status: ('A' for Active; 'I' for Inactive)
REMARK    1  A    between atoms: O_2  and  C_26
REMARK    2  A    between atoms: O_4  and  C_30
REMARK    3  A    between atoms: O_4  and  C_31
REMARK    4  A    between atoms: N_5  and  C_14
REMARK    5  A    between atoms: N_9  and  C_28
REMARK    6  A    between atoms: N_9  and  C_29
REMARK    7  A    between atoms: C_10  and  C_15
REMARK    8  A    between atoms: C_14  and  C_16
REMARK    9  A    between atoms: C_19  and  C_22
REMARK   10  A    between atoms: C_23  and  C_26
REMARK   11  A    between atoms: C_29  and  C_30
REMARK                            x       y       z     vdW  Elec       q    Type
REMARK                         _______ _______ _______ _____ _____    ______ ____
ROOT
ATOM      1  O   UNL     1      -5.195 -12.298  15.964  0.00  0.00    -0.336 OA
ATOM      6  N   UNL     1      -5.304 -10.116  15.471  0.00  0.00    -0.190 NA
ATOM      7  N   UNL     1      -6.514 -11.906  16.224  0.00  0.00    -0.056 NA
ATOM     15  C   UNL     1      -4.551 -11.185  15.524  0.00  0.00    +0.245 A 
ATOM     19  C   UNL     1      -6.499 -10.607  15.910  0.00  0.00    +0.204 A 
ENDROOT
BRANCH  19  22
ATOM      8  N   UNL     1      -9.589  -8.762  14.972  0.00  0.00    -0.240 NA
ATOM     22  C   UNL     1      -7.660  -9.772  16.024  0.00  0.00    +0.041 A 
ATOM     24  C   UNL     1      -7.997  -9.174  17.233  0.00  0.00    +0.016 A 
ATOM     25  C   UNL     1      -8.481  -9.536  14.933  0.00  0.00    +0.124 A 
ATOM     27  C   UNL     1      -9.129  -8.370  17.313  0.00  0.00    +0.044 A 
ATOM     28  C   UNL     1      -9.884  -8.197  16.164  0.00  0.00    +0.119 A 
BRANCH  28   9
ATOM      9  N   UNL     1     -11.035  -7.376  16.262  0.00  0.00    -0.327 N 
ATOM     32  H   UNL     1     -11.815  -7.752  16.789  0.00  0.00    +0.148 HD
BRANCH   9  29
ATOM     29  C   UNL     1     -11.115  -6.086  15.658  0.00  0.00    +0.131 C 
BRANCH  29  30
ATOM     30  C   UNL     1     -12.433  -5.939  14.918  0.00  0.00    +0.178 C 
BRANCH  30   4
ATOM      4  O   UNL     1     -12.318  -4.910  13.944  0.00  0.00    -0.381 OA
ATOM     31  C   UNL     1     -12.464  -5.421  12.626  0.00  0.00    +0.194 C 
ENDBRANCH  30   4
ENDBRANCH  29  30
ENDBRANCH   9  29
ENDBRANCH  28   9
ENDBRANCH  19  22
BRANCH  15  10
ATOM      5  N   UNL     1      -2.733 -10.674  13.904  0.00  0.00    -0.287 NA
ATOM     10  C   UNL     1      -3.089 -11.348  15.168  0.00  0.00    +0.146 C 
ATOM     11  C   UNL     1      -2.149 -10.728  16.219  0.00  0.00    +0.030 C 
ATOM     12  C   UNL     1      -1.263  -9.765  15.442  0.00  0.00    +0.017 C 
ATOM     13  C   UNL     1      -1.327 -10.289  14.021  0.00  0.00    +0.085 C 
BRANCH   5  14
ATOM     14  C   UNL     1      -2.979 -11.495  12.725  0.00  0.00    +0.120 C 
BRANCH  14  16
ATOM     16  C   UNL     1      -3.791 -10.761  11.690  0.00  0.00    -0.033 A 
ATOM     17  C   UNL     1      -5.183 -10.744  11.780  0.00  0.00    +0.006 A 
ATOM     18  C   UNL     1      -3.150 -10.099  10.643  0.00  0.00    +0.006 A 
ATOM     20  C   UNL     1      -5.934 -10.064  10.821  0.00  0.00    +0.015 A 
ATOM     21  C   UNL     1      -3.903  -9.420   9.684  0.00  0.00    +0.015 A 
ATOM     23  C   UNL     1      -5.294  -9.402   9.774  0.00  0.00    +0.059 A 
BRANCH  23  26
ATOM      3  O   UNL     1      -6.970  -7.873   9.014  0.00  0.00    -0.245 OA
ATOM     26  C   UNL     1      -6.077  -8.693   8.774  0.00  0.00    +0.337 C 
BRANCH  26   2
ATOM      2  O   UNL     1      -5.724  -9.027   7.503  0.00  0.00    -0.477 OA
ATOM     33  H   UNL     1      -5.835  -8.274   6.884  0.00  0.00    +0.295 HD
ENDBRANCH  26   2
ENDBRANCH  23  26
ENDBRANCH  14  16
ENDBRANCH   5  14
ENDBRANCH  15  10
TORSDOF 10
ENDMDL
MODEL 7
REMARK VINA RESULT:      -6.2     27.542     29.946
REMARK  Name = 45783471
REMARK  11 active torsions:
REMARK  status: ('A' for Active; 'I' for Inactive)
REMARK    1  A    between atoms: O_2  and  C_26
REMARK    2  A    between atoms: O_4  and  C_30
REMARK    3  A    between atoms: O_4  and  C_31
REMARK    4  A    between atoms: N_5  and  C_14
REMARK    5  A    between atoms: N_9  and  C_28
REMARK    6  A    between atoms: N_9  and  C_29
REMARK    7  A    between atoms: C_10  and  C_15
REMARK    8  A    between atoms: C_14  and  C_16
REMARK    9  A    between atoms: C_19  and  C_22
REMARK   10  A    between atoms: C_23  and  C_26
REMARK   11  A    between atoms: C_29  and  C_30
REMARK                            x       y       z     vdW  Elec       q    Type
REMARK                         _______ _______ _______ _____ _____    ______ ____
ROOT
ATOM      1  O   UNL     1      -2.209 -10.086  11.422  0.00  0.00    -0.336 OA
ATOM      6  N   UNL     1      -4.114 -11.180  10.984  0.00  0.00    -0.190 NA
ATOM      7  N   UNL     1      -2.864  -9.345  10.432  0.00  0.00    -0.056 NA
ATOM     15  C   UNL     1      -3.012 -11.149  11.690  0.00  0.00    +0.245 A 
ATOM     19  C   UNL     1      -3.979 -10.053  10.226  0.00  0.00    +0.204 A 
ENDROOT
BRANCH  19  22
ATOM      8  N   UNL     1      -5.929  -9.909   7.063  0.00  0.00    -0.240 NA
ATOM     22  C   UNL     1      -4.976  -9.663   9.272  0.00  0.00    +0.041 A 
ATOM     24  C   UNL     1      -5.932  -8.704   9.585  0.00  0.00    +0.016 A 
ATOM     25  C   UNL     1      -5.017 -10.230   8.008  0.00  0.00    +0.124 A 
ATOM     27  C   UNL     1      -6.887  -8.346   8.640  0.00  0.00    +0.044 A 
ATOM     28  C   UNL     1      -6.842  -8.972   7.404  0.00  0.00    +0.119 A 
BRANCH  28   9
ATOM      9  N   UNL     1      -7.822  -8.597   6.452  0.00  0.00    -0.327 N 
ATOM     32  H   UNL     1      -8.145  -9.326   5.826  0.00  0.00    +0.148 HD
BRANCH   9  29
ATOM     29  C   UNL     1      -8.337  -7.271   6.357  0.00  0.00    +0.131 C 
BRANCH  29  30
ATOM     30  C   UNL     1      -9.763  -7.228   6.878  0.00  0.00    +0.178 C 
BRANCH  30   4
ATOM      4  O   UNL     1     -10.001  -5.974   7.506  0.00  0.00    -0.381 OA
ATOM     31  C   UNL     1     -10.190  -6.121   8.906  0.00  0.00    +0.194 C 
ENDBRANCH  30   4
ENDBRANCH  29  30
ENDBRANCH   9  29
ENDBRANCH  28   9
ENDBRANCH  19  22
BRANCH  15  10
ATOM      5  N   UNL     1      -3.337 -12.079  13.975  0.00  0.00    -0.287 NA
ATOM     10  C   UNL     1      -2.521 -12.118  12.745  0.00  0.00    +0.146 C 
ATOM     11  C   UNL     1      -2.583 -13.585  12.280  0.00  0.00    +0.030 C 
ATOM     12  C   UNL     1      -3.402 -14.304  13.343  0.00  0.00    +0.017 C 
ATOM     13  C   UNL     1      -3.261 -13.417  14.564  0.00  0.00    +0.085 C 
BRANCH   5  14
ATOM     14  C   UNL     1      -2.916 -11.045  14.912  0.00  0.00    +0.120 C 
BRANCH  14  16
ATOM     16  C   UNL     1      -3.898 -10.879  16.042  0.00  0.00    -0.033 A 
ATOM     17  C   UNL     1      -5.122 -10.249  15.815  0.00  0.00    +0.006 A 
ATOM     18  C   UNL     1      -3.584 -11.357  17.314  0.00  0.00    +0.006 A 
ATOM     20  C   UNL     1      -6.031 -10.096  16.862  0.00  0.00    +0.015 A 
ATOM     21  C   UNL     1      -4.494 -11.203  18.361  0.00  0.00    +0.015 A 
ATOM     23  C   UNL     1      -5.717 -10.573  18.134  0.00  0.00    +0.059 A 
BRANCH  23  26
ATOM      3  O   UNL     1      -6.461 -10.728  20.402  0.00  0.00    -0.245 OA
ATOM     26  C   UNL     1      -6.665 -10.414  19.225  0.00  0.00    +0.337 C 
BRANCH  26   2
ATOM      2  O   UNL     1      -7.842  -9.865  18.817  0.00  0.00    -0.477 OA
ATOM     33  H   UNL     1      -8.477  -9.768  19.559  0.00  0.00    +0.295 HD
ENDBRANCH  26   2
ENDBRANCH  23  26
ENDBRANCH  14  16
ENDBRANCH   5  14
ENDBRANCH  15  10
TORSDOF 10
ENDMDL
MODEL 8
REMARK VINA RESULT:      -6.2     27.479     29.947
REMARK  Name = 45783471
REMARK  11 active torsions:
REMARK  status: ('A' for Active; 'I' for Inactive)
REMARK    1  A    between atoms: O_2  and  C_26
REMARK    2  A    between atoms: O_4  and  C_30
REMARK    3  A    between atoms: O_4  and  C_31
REMARK    4  A    between atoms: N_5  and  C_14
REMARK    5  A    between atoms: N_9  and  C_28
REMARK    6  A    between atoms: N_9  and  C_29
REMARK    7  A    between atoms: C_10  and  C_15
REMARK    8  A    between atoms: C_14  and  C_16
REMARK    9  A    between atoms: C_19  and  C_22
REMARK   10  A    between atoms: C_23  and  C_26
REMARK   11  A    between atoms: C_29  and  C_30
REMARK                            x       y       z     vdW  Elec       q    Type
REMARK                         _______ _______ _______ _____ _____    ______ ____
ROOT
ATOM      1  O   UNL     1      -6.797 -11.603  20.099  0.00  0.00    -0.336 OA
ATOM      6  N   UNL     1      -6.952 -12.360  17.996  0.00  0.00    -0.190 NA
ATOM      7  N   UNL     1      -5.578 -11.295  19.483  0.00  0.00    -0.056 NA
ATOM     15  C   UNL     1      -7.548 -12.228  19.155  0.00  0.00    +0.245 A 
ATOM     19  C   UNL     1      -5.746 -11.773  18.246  0.00  0.00    +0.204 A 
ENDROOT
BRANCH  19  22
ATOM      8  N   UNL     1      -3.805 -12.493  15.157  0.00  0.00    -0.240 NA
ATOM     22  C   UNL     1      -4.730 -11.680  17.238  0.00  0.00    +0.041 A 
ATOM     24  C   UNL     1      -3.712 -10.738  17.330  0.00  0.00    +0.016 A 
ATOM     25  C   UNL     1      -4.731 -12.528  16.142  0.00  0.00    +0.124 A 
ATOM     27  C   UNL     1      -2.741 -10.672  16.338  0.00  0.00    +0.044 A 
ATOM     28  C   UNL     1      -2.831 -11.564  15.282  0.00  0.00    +0.119 A 
BRANCH  28   9
ATOM      9  N   UNL     1      -1.835 -11.484  14.278  0.00  0.00    -0.327 N 
ATOM     32  H   UNL     1      -0.907 -11.214  14.583  0.00  0.00    +0.148 HD
BRANCH   9  29
ATOM     29  C   UNL     1      -2.101 -11.759  12.904  0.00  0.00    +0.131 C 
BRANCH  29  30
ATOM     30  C   UNL     1      -1.833 -10.523  12.063  0.00  0.00    +0.178 C 
BRANCH  30   4
ATOM      4  O   UNL     1      -3.033 -10.120  11.416  0.00  0.00    -0.381 OA
ATOM     31  C   UNL     1      -3.572 -11.165  10.619  0.00  0.00    +0.194 C 
ENDBRANCH  30   4
ENDBRANCH  29  30
ENDBRANCH   9  29
ENDBRANCH  28   9
ENDBRANCH  19  22
BRANCH  15  10
ATOM      5  N   UNL     1     -10.002 -11.947  18.857  0.00  0.00    -0.287 NA
ATOM     10  C   UNL     1      -8.934 -12.668  19.577  0.00  0.00    +0.146 C 
ATOM     11  C   UNL     1      -9.200 -14.156  19.284  0.00  0.00    +0.030 C 
ATOM     12  C   UNL     1     -10.470 -14.175  18.445  0.00  0.00    +0.017 C 
ATOM     13  C   UNL     1     -11.143 -12.861  18.787  0.00  0.00    +0.085 C 
BRANCH   5  14
ATOM     14  C   UNL     1     -10.356 -10.676  19.477  0.00  0.00    +0.120 C 
BRANCH  14  16
ATOM     16  C   UNL     1     -10.492  -9.575  18.458  0.00  0.00    -0.033 A 
ATOM     17  C   UNL     1      -9.351  -8.960  17.941  0.00  0.00    +0.006 A 
ATOM     18  C   UNL     1     -11.757  -9.171  18.032  0.00  0.00    +0.006 A 
ATOM     20  C   UNL     1      -9.477  -7.940  16.998  0.00  0.00    +0.015 A 
ATOM     21  C   UNL     1     -11.882  -8.150  17.089  0.00  0.00    +0.015 A 
ATOM     23  C   UNL     1     -10.742  -7.536  16.572  0.00  0.00    +0.059 A 
BRANCH  23  26
ATOM      3  O   UNL     1     -11.908  -6.186  14.978  0.00  0.00    -0.245 OA
ATOM     26  C   UNL     1     -10.873  -6.473  15.588  0.00  0.00    +0.337 C 
BRANCH  26   2
ATOM      2  O   UNL     1      -9.707  -5.797  15.393  0.00  0.00    -0.477 OA
ATOM     33  H   UNL     1      -9.754  -5.208  14.610  0.00  0.00    +0.295 HD
ENDBRANCH  26   2
ENDBRANCH  23  26
ENDBRANCH  14  16
ENDBRANCH   5  14
ENDBRANCH  15  10
TORSDOF 10
ENDMDL
MODEL 9
REMARK VINA RESULT:      -6.2     27.350     30.523
REMARK  Name = 45783471
REMARK  11 active torsions:
REMARK  status: ('A' for Active; 'I' for Inactive)
REMARK    1  A    between atoms: O_2  and  C_26
REMARK    2  A    between atoms: O_4  and  C_30
REMARK    3  A    between atoms: O_4  and  C_31
REMARK    4  A    between atoms: N_5  and  C_14
REMARK    5  A    between atoms: N_9  and  C_28
REMARK    6  A    between atoms: N_9  and  C_29
REMARK    7  A    between atoms: C_10  and  C_15
REMARK    8  A    between atoms: C_14  and  C_16
REMARK    9  A    between atoms: C_19  and  C_22
REMARK   10  A    between atoms: C_23  and  C_26
REMARK   11  A    between atoms: C_29  and  C_30
REMARK                            x       y       z     vdW  Elec       q    Type
REMARK                         _______ _______ _______ _____ _____    ______ ____
ROOT
ATOM      1  O   UNL     1      -5.095  -9.667  16.047  0.00  0.00    -0.336 OA
ATOM      6  N   UNL     1      -5.448 -11.521  17.254  0.00  0.00    -0.190 NA
ATOM      7  N   UNL     1      -6.323  -9.482  16.694  0.00  0.00    -0.056 NA
ATOM     15  C   UNL     1      -4.648 -10.891  16.432  0.00  0.00    +0.245 A 
ATOM     19  C   UNL     1      -6.462 -10.617  17.386  0.00  0.00    +0.204 A 
ENDROOT
BRANCH  19  22
ATOM      8  N   UNL     1      -8.597 -12.151  20.017  0.00  0.00    -0.240 NA
ATOM     22  C   UNL     1      -7.601 -10.879  18.217  0.00  0.00    +0.041 A 
ATOM     24  C   UNL     1      -8.782 -10.162  18.061  0.00  0.00    +0.016 A 
ATOM     25  C   UNL     1      -7.560 -11.855  19.200  0.00  0.00    +0.124 A 
ATOM     27  C   UNL     1      -9.871 -10.438  18.882  0.00  0.00    +0.044 A 
ATOM     28  C   UNL     1      -9.728 -11.434  19.835  0.00  0.00    +0.119 A 
BRANCH  28   9
ATOM      9  N   UNL     1     -10.845 -11.703  20.664  0.00  0.00    -0.327 N 
ATOM     32  H   UNL     1     -11.074 -10.999  21.356  0.00  0.00    +0.148 HD
BRANCH   9  29
ATOM     29  C   UNL     1     -11.620 -12.895  20.550  0.00  0.00    +0.131 C 
BRANCH  29  30
ATOM     30  C   UNL     1     -11.669 -13.614  21.888  0.00  0.00    +0.178 C 
BRANCH  30   4
ATOM      4  O   UNL     1     -10.477 -14.369  22.064  0.00  0.00    -0.381 OA
ATOM     31  C   UNL     1     -10.418 -14.956  23.356  0.00  0.00    +0.194 C 
ENDBRANCH  30   4
ENDBRANCH  29  30
ENDBRANCH   9  29
ENDBRANCH  28   9
ENDBRANCH  19  22
BRANCH  15  10
ATOM      5  N   UNL     1      -3.097 -10.845  14.486  0.00  0.00    -0.287 NA
ATOM     10  C   UNL     1      -3.317 -11.334  15.861  0.00  0.00    +0.146 C 
ATOM     11  C   UNL     1      -2.118 -10.794  16.664  0.00  0.00    +0.030 C 
ATOM     12  C   UNL     1      -1.251 -10.069  15.644  0.00  0.00    +0.017 C 
ATOM     13  C   UNL     1      -1.651 -10.698  14.324  0.00  0.00    +0.085 C 
BRANCH   5  14
ATOM     14  C   UNL     1      -3.676 -11.713  13.468  0.00  0.00    +0.120 C 
BRANCH  14  16
ATOM     16  C   UNL     1      -4.217 -10.927  12.303  0.00  0.00    -0.033 A 
ATOM     17  C   UNL     1      -3.590 -11.006  11.059  0.00  0.00    +0.006 A 
ATOM     18  C   UNL     1      -5.345 -10.123  12.467  0.00  0.00    +0.006 A 
ATOM     20  C   UNL     1      -4.091 -10.278   9.979  0.00  0.00    +0.015 A 
ATOM     21  C   UNL     1      -5.845  -9.395  11.386  0.00  0.00    +0.015 A 
ATOM     23  C   UNL     1      -5.218  -9.473  10.143  0.00  0.00    +0.059 A 
BRANCH  23  26
ATOM      3  O   UNL     1      -6.623  -7.852   9.084  0.00  0.00    -0.245 OA
ATOM     26  C   UNL     1      -5.741  -8.715   9.018  0.00  0.00    +0.337 C 
BRANCH  26   2
ATOM      2  O   UNL     1      -5.148  -9.055   7.840  0.00  0.00    -0.477 OA
ATOM     33  H   UNL     1      -4.246  -8.678   7.764  0.00  0.00    +0.295 HD
ENDBRANCH  26   2
ENDBRANCH  23  26
ENDBRANCH  14  16
ENDBRANCH   5  14
ENDBRANCH  15  10
TORSDOF 10
ENDMDL
MODEL 10
REMARK VINA RESULT:      -6.1     14.271     17.092
REMARK  Name = 45783471
REMARK  11 active torsions:
REMARK  status: ('A' for Active; 'I' for Inactive)
REMARK    1  A    between atoms: O_2  and  C_26
REMARK    2  A    between atoms: O_4  and  C_30
REMARK    3  A    between atoms: O_4  and  C_31
REMARK    4  A    between atoms: N_5  and  C_14
REMARK    5  A    between atoms: N_9  and  C_28
REMARK    6  A    between atoms: N_9  and  C_29
REMARK    7  A    between atoms: C_10  and  C_15
REMARK    8  A    between atoms: C_14  and  C_16
REMARK    9  A    between atoms: C_19  and  C_22
REMARK   10  A    between atoms: C_23  and  C_26
REMARK   11  A    between atoms: C_29  and  C_30
REMARK                            x       y       z     vdW  Elec       q    Type
REMARK                         _______ _______ _______ _____ _____    ______ ____
ROOT
ATOM      1  O   UNL     1      11.306   9.068   7.226  0.00  0.00    -0.336 OA
ATOM      6  N   UNL     1      12.700   7.785   6.028  0.00  0.00    -0.190 NA
ATOM      7  N   UNL     1      12.530   9.746   7.195  0.00  0.00    -0.056 NA
ATOM     15  C   UNL     1      11.492   7.924   6.516  0.00  0.00    +0.245 A 
ATOM     19  C   UNL     1      13.300   8.928   6.471  0.00  0.00    +0.204 A 
ENDROOT
BRANCH  19  22
ATOM      8  N   UNL     1      16.586  10.669   6.470  0.00  0.00    -0.240 NA
ATOM     22  C   UNL     1      14.672   9.221   6.174  0.00  0.00    +0.041 A 
ATOM     24  C   UNL     1      15.417   8.396   5.339  0.00  0.00    +0.016 A 
ATOM     25  C   UNL     1      15.297  10.336   6.709  0.00  0.00    +0.124 A 
ATOM     27  C   UNL     1      16.746   8.705   5.069  0.00  0.00    +0.044 A 
ATOM     28  C   UNL     1      17.278   9.843   5.653  0.00  0.00    +0.119 A 
BRANCH  28   9
ATOM      9  N   UNL     1      18.633  10.145   5.369  0.00  0.00    -0.327 N 
ATOM     32  H   UNL     1      18.850  11.117   5.182  0.00  0.00    +0.148 HD
BRANCH   9  29
ATOM     29  C   UNL     1      19.654   9.150   5.339  0.00  0.00    +0.131 C 
BRANCH  29  30
ATOM     30  C   UNL     1      19.919   8.632   6.742  0.00  0.00    +0.178 C 
BRANCH  30   4
ATOM      4  O   UNL     1      20.957   7.661   6.702  0.00  0.00    -0.381 OA
ATOM     31  C   UNL     1      21.230   7.245   5.371  0.00  0.00    +0.194 C 
ENDBRANCH  30   4
ENDBRANCH  29  30
ENDBRANCH   9  29
ENDBRANCH  28   9
ENDBRANCH  19  22
BRANCH  15  10
ATOM      5  N   UNL     1      10.570   5.827   5.545  0.00  0.00    -0.287 NA
ATOM     10  C   UNL     1      10.297   7.001   6.396  0.00  0.00    +0.146 C 
ATOM     11  C   UNL     1       9.866   6.411   7.752  0.00  0.00    +0.030 C 
ATOM     12  C   UNL     1       9.866   4.902   7.546  0.00  0.00    +0.017 C 
ATOM     13  C   UNL     1       9.719   4.747   6.046  0.00  0.00    +0.085 C 
BRANCH   5  14
ATOM     14  C   UNL     1      10.352   6.082   4.127  0.00  0.00    +0.120 C 
BRANCH  14  16
ATOM     16  C   UNL     1      11.425   5.458   3.274  0.00  0.00    -0.033 A 
ATOM     17  C   UNL     1      11.261   4.161   2.786  0.00  0.00    +0.006 A 
ATOM     18  C   UNL     1      12.581   6.176   2.971  0.00  0.00    +0.006 A 
ATOM     20  C   UNL     1      12.254   3.583   1.996  0.00  0.00    +0.015 A 
ATOM     21  C   UNL     1      13.575   5.597   2.180  0.00  0.00    +0.015 A 
ATOM     23  C   UNL     1      13.411   4.301   1.693  0.00  0.00    +0.059 A 
BRANCH  23  26
ATOM      3  O   UNL     1      14.415   3.601  -0.362  0.00  0.00    -0.245 OA
ATOM     26  C   UNL     1      14.447   3.698   0.869  0.00  0.00    +0.337 C 
BRANCH  26   2
ATOM      2  O   UNL     1      15.494   3.235   1.605  0.00  0.00    -0.477 OA
ATOM     33  H   UNL     1      15.971   2.511   1.145  0.00  0.00    +0.295 HD
ENDBRANCH  26   2
ENDBRANCH  23  26
ENDBRANCH  14  16
ENDBRANCH   5  14
ENDBRANCH  15  10
TORSDOF 10
ENDMDL
