MODEL 1
REMARK VINA RESULT:      -8.0      0.000      0.000
REMARK  Name = 11942696
REMARK  6 active torsions:
REMARK  status: ('A' for Active; 'I' for Inactive)
REMARK    1  A    between atoms: N_4  and  C_11
REMARK    2  A    between atoms: N_5  and  C_12
REMARK    3  A    between atoms: N_6  and  C_18
REMARK    4  A    between atoms: C_17  and  C_21
REMARK    5  A    between atoms: C_18  and  C_22
REMARK    6  A    between atoms: C_27  and  C_29
REMARK                            x       y       z     vdW  Elec       q    Type
REMARK                         _______ _______ _______ _____ _____    ______ ____
ROOT
ATOM      4  N   UNL     1      -3.718 -11.651  17.127  0.00  0.00    -0.306 N 
ATOM      7  N   UNL     1      -3.417 -11.128  14.885  0.00  0.00    -0.214 NA
ATOM      8  N   UNL     1      -1.746 -10.580  16.532  0.00  0.00    -0.223 NA
ATOM     15  C   UNL     1      -2.926 -11.096  16.138  0.00  0.00    +0.216 A 
ATOM     17  C   UNL     1      -2.618 -10.579  13.947  0.00  0.00    +0.076 A 
ATOM     19  C   UNL     1      -0.999 -10.048  15.543  0.00  0.00    +0.116 A 
ATOM     20  C   UNL     1      -1.388 -10.017  14.220  0.00  0.00    +0.048 A 
ATOM     35  H   UNL     1      -3.379 -11.583  18.079  0.00  0.00    +0.149 HD
ENDROOT
BRANCH   4  11
ATOM      1  O   UNL     1      -6.227 -12.012  18.904  0.00  0.00    -0.370 OA
ATOM      2  O   UNL     1      -7.175 -11.672  15.951  0.00  0.00    -0.370 OA
ATOM      9  C   UNL     1      -6.051 -11.163  16.688  0.00  0.00    +0.171 C 
ATOM     10  C   UNL     1      -6.533 -10.865  18.095  0.00  0.00    +0.171 C 
ATOM     11  C   UNL     1      -5.013 -12.246  16.875  0.00  0.00    +0.130 C 
ATOM     12  C   UNL     1      -8.030 -10.711  17.946  0.00  0.00    +0.131 C 
ATOM     13  C   UNL     1      -5.508 -12.971  18.113  0.00  0.00    +0.185 C 
ATOM     14  C   UNL     1      -8.338 -11.648  16.791  0.00  0.00    +0.185 C 
BRANCH  12   5
ATOM      3  O   UNL     1     -10.683  -9.666  17.511  0.00  0.00    -0.253 OA
ATOM      5  N   UNL     1      -8.386  -9.350  17.625  0.00  0.00    -0.292 N 
ATOM      6  N   UNL     1      -9.760  -7.571  17.134  0.00  0.00    -0.296 N 
ATOM     16  C   UNL     1      -9.701  -8.931  17.430  0.00  0.00    +0.300 C 
ATOM     36  H   UNL     1      -7.651  -8.650  17.602  0.00  0.00    +0.151 HD
ATOM     37  H   UNL     1      -8.895  -7.040  17.107  0.00  0.00    +0.151 HD
BRANCH   6  18
ATOM     18  C   UNL     1     -11.001  -6.878  16.886  0.00  0.00    +0.132 C 
BRANCH  18  22
ATOM     22  C   UNL     1     -10.867  -6.064  15.642  0.00  0.00    -0.016 C 
ATOM     28  C   UNL     1     -11.899  -5.703  14.872  0.00  0.00    +0.005 C 
ENDBRANCH  18  22
ENDBRANCH   6  18
ENDBRANCH  12   5
ENDBRANCH   4  11
BRANCH  17  21
ATOM     21  C   UNL     1      -3.141 -10.611  12.601  0.00  0.00    +0.001 A 
ATOM     23  C   UNL     1      -2.530  -9.861  11.597  0.00  0.00    +0.010 A 
ATOM     24  C   UNL     1      -4.257 -11.396  12.306  0.00  0.00    +0.010 A 
ATOM     25  C   UNL     1      -3.035  -9.893  10.297  0.00  0.00    +0.009 A 
ATOM     26  C   UNL     1      -4.762 -11.428  11.005  0.00  0.00    +0.009 A 
ATOM     27  C   UNL     1      -4.150 -10.677  10.001  0.00  0.00    -0.018 A 
BRANCH  27  29
ATOM     29  C   UNL     1      -4.674 -10.710   8.653  0.00  0.00    -0.018 A 
ATOM     30  C   UNL     1      -5.443  -9.649   8.176  0.00  0.00    +0.008 A 
ATOM     31  C   UNL     1      -4.409 -11.805   7.830  0.00  0.00    +0.008 A 
ATOM     32  C   UNL     1      -5.948  -9.682   6.877  0.00  0.00    +0.001 A 
ATOM     33  C   UNL     1      -4.914 -11.837   6.529  0.00  0.00    +0.001 A 
ATOM     34  C   UNL     1      -5.683 -10.775   6.053  0.00  0.00    +0.000 A 
ENDBRANCH  27  29
ENDBRANCH  17  21
TORSDOF 6
ENDMDL
MODEL 2
REMARK VINA RESULT:      -7.8     25.171     27.537
REMARK  Name = 11942696
REMARK  6 active torsions:
REMARK  status: ('A' for Active; 'I' for Inactive)
REMARK    1  A    between atoms: N_4  and  C_11
REMARK    2  A    between atoms: N_5  and  C_12
REMARK    3  A    between atoms: N_6  and  C_18
REMARK    4  A    between atoms: C_17  and  C_21
REMARK    5  A    between atoms: C_18  and  C_22
REMARK    6  A    between atoms: C_27  and  C_29
REMARK                            x       y       z     vdW  Elec       q    Type
REMARK                         _______ _______ _______ _____ _____    ______ ____
ROOT
ATOM      4  N   UNL     1      13.537  12.528  14.649  0.00  0.00    -0.306 N 
ATOM      7  N   UNL     1      12.216  12.315  12.753  0.00  0.00    -0.214 NA
ATOM      8  N   UNL     1      12.414  14.419  13.907  0.00  0.00    -0.223 NA
ATOM     15  C   UNL     1      12.686  13.112  13.729  0.00  0.00    +0.216 A 
ATOM     17  C   UNL     1      11.389  12.917  11.873  0.00  0.00    +0.076 A 
ATOM     19  C   UNL     1      11.582  14.958  12.993  0.00  0.00    +0.116 A 
ATOM     20  C   UNL     1      11.032  14.248  11.945  0.00  0.00    +0.048 A 
ATOM     35  H   UNL     1      13.852  13.109  15.417  0.00  0.00    +0.149 HD
ENDROOT
BRANCH   4  11
ATOM      1  O   UNL     1      15.252  10.784  16.546  0.00  0.00    -0.370 OA
ATOM      2  O   UNL     1      13.101   8.949  15.226  0.00  0.00    -0.370 OA
ATOM      9  C   UNL     1      13.116  10.338  15.597  0.00  0.00    +0.171 C 
ATOM     10  C   UNL     1      13.898  10.449  16.892  0.00  0.00    +0.171 C 
ATOM     11  C   UNL     1      13.929  11.136  14.604  0.00  0.00    +0.130 C 
ATOM     12  C   UNL     1      13.834   9.059  17.481  0.00  0.00    +0.131 C 
ATOM     13  C   UNL     1      15.345  10.972  15.126  0.00  0.00    +0.185 C 
ATOM     14  C   UNL     1      13.767   8.184  16.242  0.00  0.00    +0.185 C 
BRANCH  12   5
ATOM      3  O   UNL     1      13.543   7.325  19.769  0.00  0.00    -0.253 OA
ATOM      5  N   UNL     1      12.659   8.893  18.302  0.00  0.00    -0.292 N 
ATOM      6  N   UNL     1      11.357   8.063  20.008  0.00  0.00    -0.296 N 
ATOM     16  C   UNL     1      12.607   8.028  19.394  0.00  0.00    +0.300 C 
ATOM     36  H   UNL     1      11.852   9.480  18.117  0.00  0.00    +0.151 HD
ATOM     37  H   UNL     1      10.649   8.690  19.638  0.00  0.00    +0.151 HD
BRANCH   6  18
ATOM     18  C   UNL     1      11.031   7.263  21.164  0.00  0.00    +0.132 C 
BRANCH  18  22
ATOM     22  C   UNL     1      10.521   8.155  22.247  0.00  0.00    -0.016 C 
ATOM     28  C   UNL     1      10.939   9.411  22.438  0.00  0.00    +0.005 C 
ENDBRANCH  18  22
ENDBRANCH   6  18
ENDBRANCH  12   5
ENDBRANCH   4  11
BRANCH  17  21
ATOM     21  C   UNL     1      10.883  12.065  10.824  0.00  0.00    +0.001 A 
ATOM     23  C   UNL     1       9.530  11.728  10.790  0.00  0.00    +0.010 A 
ATOM     24  C   UNL     1      11.748  11.581   9.842  0.00  0.00    +0.010 A 
ATOM     25  C   UNL     1       9.041  10.905   9.776  0.00  0.00    +0.009 A 
ATOM     26  C   UNL     1      11.259  10.758   8.826  0.00  0.00    +0.009 A 
ATOM     27  C   UNL     1       9.905  10.420   8.794  0.00  0.00    -0.018 A 
BRANCH  27  29
ATOM     29  C   UNL     1       9.399   9.567   7.741  0.00  0.00    -0.018 A 
ATOM     30  C   UNL     1       9.203  10.080   6.459  0.00  0.00    +0.008 A 
ATOM     31  C   UNL     1       9.107   8.229   8.009  0.00  0.00    +0.008 A 
ATOM     32  C   UNL     1       8.716   9.256   5.445  0.00  0.00    +0.001 A 
ATOM     33  C   UNL     1       8.619   7.405   6.994  0.00  0.00    +0.001 A 
ATOM     34  C   UNL     1       8.424   7.919   5.711  0.00  0.00    +0.000 A 
ENDBRANCH  27  29
ENDBRANCH  17  21
TORSDOF 6
ENDMDL
MODEL 3
REMARK VINA RESULT:      -7.6     24.069     27.216
REMARK  Name = 11942696
REMARK  6 active torsions:
REMARK  status: ('A' for Active; 'I' for Inactive)
REMARK    1  A    between atoms: N_4  and  C_11
REMARK    2  A    between atoms: N_5  and  C_12
REMARK    3  A    between atoms: N_6  and  C_18
REMARK    4  A    between atoms: C_17  and  C_21
REMARK    5  A    between atoms: C_18  and  C_22
REMARK    6  A    between atoms: C_27  and  C_29
REMARK                            x       y       z     vdW  Elec       q    Type
REMARK                         _______ _______ _______ _____ _____    ______ ____
ROOT
ATOM      4  N   UNL     1       7.527   6.472  -4.430  0.00  0.00    -0.306 N 
ATOM      7  N   UNL     1       5.358   5.707  -4.745  0.00  0.00    -0.214 NA
ATOM      8  N   UNL     1       5.796   7.975  -4.060  0.00  0.00    -0.223 NA
ATOM     15  C   UNL     1       6.168   6.729  -4.411  0.00  0.00    +0.216 A 
ATOM     17  C   UNL     1       4.039   5.993  -4.717  0.00  0.00    +0.076 A 
ATOM     19  C   UNL     1       4.465   8.191  -4.052  0.00  0.00    +0.116 A 
ATOM     20  C   UNL     1       3.530   7.228  -4.373  0.00  0.00    +0.048 A 
ATOM     35  H   UNL     1       8.139   7.221  -4.128  0.00  0.00    +0.149 HD
ENDROOT
BRANCH   4  11
ATOM      1  O   UNL     1      10.449   5.494  -4.721  0.00  0.00    -0.370 OA
ATOM      2  O   UNL     1       8.714   3.085  -3.760  0.00  0.00    -0.370 OA
ATOM      9  C   UNL     1       8.631   4.504  -3.547  0.00  0.00    +0.171 C 
ATOM     10  C   UNL     1      10.050   5.024  -3.423  0.00  0.00    +0.171 C 
ATOM     11  C   UNL     1       8.093   5.188  -4.782  0.00  0.00    +0.130 C 
ATOM     12  C   UNL     1      10.856   3.806  -3.034  0.00  0.00    +0.131 C 
ATOM     13  C   UNL     1       9.340   5.379  -5.627  0.00  0.00    +0.185 C 
ATOM     14  C   UNL     1      10.090   2.682  -3.710  0.00  0.00    +0.185 C 
BRANCH  12   5
ATOM      3  O   UNL     1      12.852   4.796  -1.201  0.00  0.00    -0.253 OA
ATOM      5  N   UNL     1      10.883   3.632  -1.602  0.00  0.00    -0.292 N 
ATOM      6  N   UNL     1      11.672   3.835   0.550  0.00  0.00    -0.296 N 
ATOM     16  C   UNL     1      11.892   4.148  -0.790  0.00  0.00    +0.300 C 
ATOM     36  H   UNL     1      10.098   3.168  -1.156  0.00  0.00    +0.151 HD
ATOM     37  H   UNL     1      10.839   3.309   0.798  0.00  0.00    +0.151 HD
BRANCH   6  18
ATOM     18  C   UNL     1      12.566   4.247   1.605  0.00  0.00    +0.132 C 
BRANCH  18  22
ATOM     22  C   UNL     1      13.715   3.297   1.672  0.00  0.00    -0.016 C 
ATOM     28  C   UNL     1      14.991   3.656   1.495  0.00  0.00    +0.005 C 
ENDBRANCH  18  22
ENDBRANCH   6  18
ENDBRANCH  12   5
ENDBRANCH   4  11
BRANCH  17  21
ATOM     21  C   UNL     1       3.167   4.900  -5.074  0.00  0.00    +0.001 A 
ATOM     23  C   UNL     1       3.524   4.030  -6.104  0.00  0.00    +0.010 A 
ATOM     24  C   UNL     1       1.967   4.713  -4.388  0.00  0.00    +0.010 A 
ATOM     25  C   UNL     1       2.682   2.973  -6.449  0.00  0.00    +0.009 A 
ATOM     26  C   UNL     1       1.123   3.656  -4.732  0.00  0.00    +0.009 A 
ATOM     27  C   UNL     1       1.481   2.786  -5.763  0.00  0.00    -0.018 A 
BRANCH  27  29
ATOM     29  C   UNL     1       0.606   1.690  -6.120  0.00  0.00    -0.018 A 
ATOM     30  C   UNL     1      -0.232   1.799  -7.229  0.00  0.00    +0.008 A 
ATOM     31  C   UNL     1       0.603   0.524  -5.355  0.00  0.00    +0.008 A 
ATOM     32  C   UNL     1      -1.074   0.743  -7.573  0.00  0.00    +0.001 A 
ATOM     33  C   UNL     1      -0.240  -0.534  -5.700  0.00  0.00    +0.001 A 
ATOM     34  C   UNL     1      -1.079  -0.424  -6.809  0.00  0.00    +0.000 A 
ENDBRANCH  27  29
ENDBRANCH  17  21
TORSDOF 6
ENDMDL
MODEL 4
REMARK VINA RESULT:      -7.5     24.434     27.161
REMARK  Name = 11942696
REMARK  6 active torsions:
REMARK  status: ('A' for Active; 'I' for Inactive)
REMARK    1  A    between atoms: N_4  and  C_11
REMARK    2  A    between atoms: N_5  and  C_12
REMARK    3  A    between atoms: N_6  and  C_18
REMARK    4  A    between atoms: C_17  and  C_21
REMARK    5  A    between atoms: C_18  and  C_22
REMARK    6  A    between atoms: C_27  and  C_29
REMARK                            x       y       z     vdW  Elec       q    Type
REMARK                         _______ _______ _______ _____ _____    ______ ____
ROOT
ATOM      4  N   UNL     1      10.453   5.328  -3.143  0.00  0.00    -0.306 N 
ATOM      7  N   UNL     1      10.651   5.135  -0.839  0.00  0.00    -0.214 NA
ATOM      8  N   UNL     1      11.987   3.790  -2.325  0.00  0.00    -0.223 NA
ATOM     15  C   UNL     1      11.056   4.725  -2.055  0.00  0.00    +0.216 A 
ATOM     17  C   UNL     1      11.261   4.527   0.200  0.00  0.00    +0.076 A 
ATOM     19  C   UNL     1      12.556   3.222  -1.241  0.00  0.00    +0.116 A 
ATOM     20  C   UNL     1      12.228   3.553   0.058  0.00  0.00    +0.048 A 
ATOM     35  H   UNL     1      10.715   4.987  -4.061  0.00  0.00    +0.149 HD
ENDROOT
BRANCH   4  11
ATOM      1  O   UNL     1       8.782   6.850  -5.258  0.00  0.00    -0.370 OA
ATOM      2  O   UNL     1       7.050   6.567  -2.678  0.00  0.00    -0.370 OA
ATOM      9  C   UNL     1       8.070   5.748  -3.273  0.00  0.00    +0.171 C 
ATOM     10  C   UNL     1       7.892   5.829  -4.777  0.00  0.00    +0.171 C 
ATOM     11  C   UNL     1       9.434   6.349  -3.029  0.00  0.00    +0.130 C 
ATOM     12  C   UNL     1       6.454   6.259  -4.955  0.00  0.00    +0.131 C 
ATOM     13  C   UNL     1       9.564   7.350  -4.163  0.00  0.00    +0.185 C 
ATOM     14  C   UNL     1       6.211   7.100  -3.714  0.00  0.00    +0.185 C 
BRANCH  12   5
ATOM      3  O   UNL     1       3.813   6.151  -6.111  0.00  0.00    -0.253 OA
ATOM      5  N   UNL     1       5.569   5.120  -4.996  0.00  0.00    -0.292 N 
ATOM      6  N   UNL     1       3.664   3.924  -5.479  0.00  0.00    -0.296 N 
ATOM     16  C   UNL     1       4.303   5.157  -5.578  0.00  0.00    +0.300 C 
ATOM     36  H   UNL     1       5.908   4.231  -4.642  0.00  0.00    +0.151 HD
ATOM     37  H   UNL     1       4.156   3.153  -5.037  0.00  0.00    +0.151 HD
BRANCH   6  18
ATOM     18  C   UNL     1       2.340   3.685  -6.001  0.00  0.00    +0.132 C 
BRANCH  18  22
ATOM     22  C   UNL     1       1.381   3.566  -4.864  0.00  0.00    -0.016 C 
ATOM     28  C   UNL     1       0.805   4.612  -4.261  0.00  0.00    +0.005 C 
ENDBRANCH  18  22
ENDBRANCH   6  18
ENDBRANCH  12   5
ENDBRANCH   4  11
BRANCH  17  21
ATOM     21  C   UNL     1      10.829   4.964   1.506  0.00  0.00    +0.001 A 
ATOM     23  C   UNL     1      11.036   4.148   2.619  0.00  0.00    +0.010 A 
ATOM     24  C   UNL     1      10.205   6.203   1.655  0.00  0.00    +0.010 A 
ATOM     25  C   UNL     1      10.619   4.571   3.881  0.00  0.00    +0.009 A 
ATOM     26  C   UNL     1       9.788   6.626   2.919  0.00  0.00    +0.009 A 
ATOM     27  C   UNL     1       9.996   5.810   4.031  0.00  0.00    -0.018 A 
BRANCH  27  29
ATOM     29  C   UNL     1       9.563   6.249   5.340  0.00  0.00    -0.018 A 
ATOM     30  C   UNL     1       9.939   5.533   6.476  0.00  0.00    +0.008 A 
ATOM     31  C   UNL     1       8.770   7.390   5.465  0.00  0.00    +0.008 A 
ATOM     32  C   UNL     1       9.522   5.957   7.737  0.00  0.00    +0.001 A 
ATOM     33  C   UNL     1       8.353   7.814   6.728  0.00  0.00    +0.001 A 
ATOM     34  C   UNL     1       8.729   7.097   7.864  0.00  0.00    +0.000 A 
ENDBRANCH  27  29
ENDBRANCH  17  21
TORSDOF 6
ENDMDL
MODEL 5
REMARK VINA RESULT:      -7.4      4.419     11.211
REMARK  Name = 11942696
REMARK  6 active torsions:
REMARK  status: ('A' for Active; 'I' for Inactive)
REMARK    1  A    between atoms: N_4  and  C_11
REMARK    2  A    between atoms: N_5  and  C_12
REMARK    3  A    between atoms: N_6  and  C_18
REMARK    4  A    between atoms: C_17  and  C_21
REMARK    5  A    between atoms: C_18  and  C_22
REMARK    6  A    between atoms: C_27  and  C_29
REMARK                            x       y       z     vdW  Elec       q    Type
REMARK                         _______ _______ _______ _____ _____    ______ ____
ROOT
ATOM      4  N   UNL     1      -7.848 -13.146  19.770  0.00  0.00    -0.306 N 
ATOM      7  N   UNL     1     -10.030 -12.506  20.238  0.00  0.00    -0.214 NA
ATOM      8  N   UNL     1      -9.196 -14.673  20.883  0.00  0.00    -0.223 NA
ATOM     15  C   UNL     1      -9.078 -13.454  20.321  0.00  0.00    +0.216 A 
ATOM     17  C   UNL     1     -11.216 -12.841  20.786  0.00  0.00    +0.076 A 
ATOM     19  C   UNL     1     -10.408 -14.941  21.411  0.00  0.00    +0.116 A 
ATOM     20  C   UNL     1     -11.467 -14.056  21.390  0.00  0.00    +0.048 A 
ATOM     35  H   UNL     1      -7.143 -13.874  19.781  0.00  0.00    +0.149 HD
ENDROOT
BRANCH   4  11
ATOM      1  O   UNL     1      -5.325 -11.352  19.756  0.00  0.00    -0.370 OA
ATOM      2  O   UNL     1      -6.768 -11.012  17.010  0.00  0.00    -0.370 OA
ATOM      9  C   UNL     1      -6.655 -12.108  17.933  0.00  0.00    +0.171 C 
ATOM     10  C   UNL     1      -5.253 -12.066  18.511  0.00  0.00    +0.171 C 
ATOM     11  C   UNL     1      -7.554 -11.883  19.127  0.00  0.00    +0.130 C 
ATOM     12  C   UNL     1      -4.460 -11.276  17.496  0.00  0.00    +0.131 C 
ATOM     13  C   UNL     1      -6.694 -11.020  20.032  0.00  0.00    +0.185 C 
ATOM     14  C   UNL     1      -5.506 -10.333  16.930  0.00  0.00    +0.185 C 
BRANCH  12   5
ATOM      3  O   UNL     1      -2.372 -10.634  15.610  0.00  0.00    -0.253 OA
ATOM      5  N   UNL     1      -3.921 -12.136  16.470  0.00  0.00    -0.292 N 
ATOM      6  N   UNL     1      -2.578 -12.762  14.710  0.00  0.00    -0.296 N 
ATOM     16  C   UNL     1      -2.908 -11.741  15.598  0.00  0.00    +0.300 C 
ATOM     36  H   UNL     1      -4.249 -13.095  16.420  0.00  0.00    +0.151 HD
ATOM     37  H   UNL     1      -3.062 -13.651  14.787  0.00  0.00    +0.151 HD
BRANCH   6  18
ATOM     18  C   UNL     1      -1.558 -12.620  13.698  0.00  0.00    +0.132 C 
BRANCH  18  22
ATOM     22  C   UNL     1      -2.167 -12.029  12.470  0.00  0.00    -0.016 C 
ATOM     28  C   UNL     1      -1.961 -10.771  12.067  0.00  0.00    +0.005 C 
ENDBRANCH  18  22
ENDBRANCH   6  18
ENDBRANCH  12   5
ENDBRANCH   4  11
BRANCH  17  21
ATOM     21  C   UNL     1     -12.240 -11.827  20.699  0.00  0.00    +0.001 A 
ATOM     23  C   UNL     1     -12.020 -10.677  19.941  0.00  0.00    +0.010 A 
ATOM     24  C   UNL     1     -13.450 -11.999  21.372  0.00  0.00    +0.010 A 
ATOM     25  C   UNL     1     -13.010  -9.698  19.857  0.00  0.00    +0.009 A 
ATOM     26  C   UNL     1     -14.441 -11.019  21.287  0.00  0.00    +0.009 A 
ATOM     27  C   UNL     1     -14.220  -9.869  20.529  0.00  0.00    -0.018 A 
BRANCH  27  29
ATOM     29  C   UNL     1     -15.247  -8.853  20.442  0.00  0.00    -0.018 A 
ATOM     30  C   UNL     1     -15.541  -8.062  21.552  0.00  0.00    +0.008 A 
ATOM     31  C   UNL     1     -15.941  -8.666  19.247  0.00  0.00    +0.008 A 
ATOM     32  C   UNL     1     -16.531  -7.082  21.467  0.00  0.00    +0.001 A 
ATOM     33  C   UNL     1     -16.932  -7.686  19.163  0.00  0.00    +0.001 A 
ATOM     34  C   UNL     1     -17.226  -6.894  20.273  0.00  0.00    +0.000 A 
ENDBRANCH  27  29
ENDBRANCH  17  21
TORSDOF 6
ENDMDL
MODEL 6
REMARK VINA RESULT:      -7.3      3.901      9.934
REMARK  Name = 11942696
REMARK  6 active torsions:
REMARK  status: ('A' for Active; 'I' for Inactive)
REMARK    1  A    between atoms: N_4  and  C_11
REMARK    2  A    between atoms: N_5  and  C_12
REMARK    3  A    between atoms: N_6  and  C_18
REMARK    4  A    between atoms: C_17  and  C_21
REMARK    5  A    between atoms: C_18  and  C_22
REMARK    6  A    between atoms: C_27  and  C_29
REMARK                            x       y       z     vdW  Elec       q    Type
REMARK                         _______ _______ _______ _____ _____    ______ ____
ROOT
ATOM      4  N   UNL     1      -3.453 -10.038  11.826  0.00  0.00    -0.306 N 
ATOM      7  N   UNL     1      -4.171 -10.559  13.971  0.00  0.00    -0.214 NA
ATOM      8  N   UNL     1      -1.829 -10.339  13.457  0.00  0.00    -0.223 NA
ATOM     15  C   UNL     1      -3.138 -10.325  13.142  0.00  0.00    +0.216 A 
ATOM     17  C   UNL     1      -3.828 -10.835  15.246  0.00  0.00    +0.076 A 
ATOM     19  C   UNL     1      -1.556 -10.621  14.747  0.00  0.00    +0.116 A 
ATOM     20  C   UNL     1      -2.524 -10.881  15.696  0.00  0.00    +0.048 A 
ATOM     35  H   UNL     1      -2.679  -9.913  11.185  0.00  0.00    +0.149 HD
ENDROOT
BRANCH   4  11
ATOM      1  O   UNL     1      -4.774  -8.379   9.571  0.00  0.00    -0.370 OA
ATOM      2  O   UNL     1      -6.254 -11.120   9.749  0.00  0.00    -0.370 OA
ATOM      9  C   UNL     1      -4.899 -10.716  10.003  0.00  0.00    +0.171 C 
ATOM     10  C   UNL     1      -4.542  -9.664   8.970  0.00  0.00    +0.171 C 
ATOM     11  C   UNL     1      -4.809  -9.985  11.322  0.00  0.00    +0.130 C 
ATOM     12  C   UNL     1      -5.523  -9.904   7.846  0.00  0.00    +0.131 C 
ATOM     13  C   UNL     1      -5.171  -8.561  10.939  0.00  0.00    +0.185 C 
ATOM     14  C   UNL     1      -6.739 -10.434   8.585  0.00  0.00    +0.185 C 
BRANCH  12   5
ATOM      3  O   UNL     1      -6.358 -10.279   5.110  0.00  0.00    -0.253 OA
ATOM      5  N   UNL     1      -5.016 -10.876   6.908  0.00  0.00    -0.292 N 
ATOM      6  N   UNL     1      -4.821 -12.005   4.913  0.00  0.00    -0.296 N 
ATOM     16  C   UNL     1      -5.480 -10.988   5.599  0.00  0.00    +0.300 C 
ATOM     36  H   UNL     1      -4.240 -11.465   7.194  0.00  0.00    +0.151 HD
ATOM     37  H   UNL     1      -4.094 -12.527   5.394  0.00  0.00    +0.151 HD
BRANCH   6  18
ATOM     18  C   UNL     1      -5.108 -12.335   3.538  0.00  0.00    +0.132 C 
BRANCH  18  22
ATOM     22  C   UNL     1      -3.883 -12.909   2.907  0.00  0.00    -0.016 C 
ATOM     28  C   UNL     1      -2.645 -12.454   3.131  0.00  0.00    +0.005 C 
ENDBRANCH  18  22
ENDBRANCH   6  18
ENDBRANCH  12   5
ENDBRANCH   4  11
BRANCH  17  21
ATOM     21  C   UNL     1      -4.933 -11.087  16.139  0.00  0.00    +0.001 A 
ATOM     23  C   UNL     1      -4.828 -10.759  17.491  0.00  0.00    +0.010 A 
ATOM     24  C   UNL     1      -6.108 -11.659  15.649  0.00  0.00    +0.010 A 
ATOM     25  C   UNL     1      -5.897 -11.003  18.353  0.00  0.00    +0.009 A 
ATOM     26  C   UNL     1      -7.178 -11.902  16.512  0.00  0.00    +0.009 A 
ATOM     27  C   UNL     1      -7.072 -11.574  17.863  0.00  0.00    -0.018 A 
BRANCH  27  29
ATOM     29  C   UNL     1      -8.181 -11.827  18.758  0.00  0.00    -0.018 A 
ATOM     30  C   UNL     1      -8.339 -13.087  19.334  0.00  0.00    +0.008 A 
ATOM     31  C   UNL     1      -9.091 -10.810  19.044  0.00  0.00    +0.008 A 
ATOM     32  C   UNL     1      -9.408 -13.330  20.196  0.00  0.00    +0.001 A 
ATOM     33  C   UNL     1     -10.161 -11.053  19.907  0.00  0.00    +0.001 A 
ATOM     34  C   UNL     1     -10.319 -12.314  20.483  0.00  0.00    +0.000 A 
ENDBRANCH  27  29
ENDBRANCH  17  21
TORSDOF 6
ENDMDL
MODEL 7
REMARK VINA RESULT:      -7.2     25.811     28.729
REMARK  Name = 11942696
REMARK  6 active torsions:
REMARK  status: ('A' for Active; 'I' for Inactive)
REMARK    1  A    between atoms: N_4  and  C_11
REMARK    2  A    between atoms: N_5  and  C_12
REMARK    3  A    between atoms: N_6  and  C_18
REMARK    4  A    between atoms: C_17  and  C_21
REMARK    5  A    between atoms: C_18  and  C_22
REMARK    6  A    between atoms: C_27  and  C_29
REMARK                            x       y       z     vdW  Elec       q    Type
REMARK                         _______ _______ _______ _____ _____    ______ ____
ROOT
ATOM      4  N   UNL     1      11.885   8.217   6.069  0.00  0.00    -0.306 N 
ATOM      7  N   UNL     1      11.391   6.640   4.439  0.00  0.00    -0.214 NA
ATOM      8  N   UNL     1      10.627   6.373   6.708  0.00  0.00    -0.223 NA
ATOM     15  C   UNL     1      11.275   7.025   5.723  0.00  0.00    +0.216 A 
ATOM     17  C   UNL     1      10.783   5.474   4.136  0.00  0.00    +0.076 A 
ATOM     19  C   UNL     1      10.043   5.216   6.336  0.00  0.00    +0.116 A 
ATOM     20  C   UNL     1      10.090   4.711   5.053  0.00  0.00    +0.048 A 
ATOM     35  H   UNL     1      11.846   8.486   7.045  0.00  0.00    +0.149 HD
ENDROOT
BRANCH   4  11
ATOM      1  O   UNL     1      13.784  10.629   6.462  0.00  0.00    -0.370 OA
ATOM      2  O   UNL     1      14.721   9.064   3.931  0.00  0.00    -0.370 OA
ATOM      9  C   UNL     1      14.085   8.663   5.156  0.00  0.00    +0.171 C 
ATOM     10  C   UNL     1      14.670   9.515   6.266  0.00  0.00    +0.171 C 
ATOM     11  C   UNL     1      12.622   9.040   5.133  0.00  0.00    +0.130 C 
ATOM     12  C   UNL     1      15.994   9.987   5.709  0.00  0.00    +0.131 C 
ATOM     13  C   UNL     1      12.642  10.482   5.605  0.00  0.00    +0.185 C 
ATOM     14  C   UNL     1      15.710  10.063   4.219  0.00  0.00    +0.185 C 
BRANCH  12   5
ATOM      3  O   UNL     1      18.707  10.589   6.483  0.00  0.00    -0.253 OA
ATOM      5  N   UNL     1      17.047   9.041   5.993  0.00  0.00    -0.292 N 
ATOM      6  N   UNL     1      19.150   8.313   6.576  0.00  0.00    -0.296 N 
ATOM     16  C   UNL     1      18.336   9.423   6.362  0.00  0.00    +0.300 C 
ATOM     36  H   UNL     1      16.823   8.051   5.987  0.00  0.00    +0.151 HD
ATOM     37  H   UNL     1      18.749   7.386   6.470  0.00  0.00    +0.151 HD
BRANCH   6  18
ATOM     18  C   UNL     1      20.534   8.423   6.968  0.00  0.00    +0.132 C 
BRANCH  18  22
ATOM     22  C   UNL     1      21.392   7.818   5.907  0.00  0.00    -0.016 C 
ATOM     28  C   UNL     1      20.917   7.102   4.882  0.00  0.00    +0.005 C 
ENDBRANCH  18  22
ENDBRANCH   6  18
ENDBRANCH  12   5
ENDBRANCH   4  11
BRANCH  17  21
ATOM     21  C   UNL     1      10.906   5.057   2.760  0.00  0.00    +0.001 A 
ATOM     23  C   UNL     1      11.914   4.168   2.387  0.00  0.00    +0.010 A 
ATOM     24  C   UNL     1      10.015   5.543   1.803  0.00  0.00    +0.010 A 
ATOM     25  C   UNL     1      12.031   3.764   1.057  0.00  0.00    +0.009 A 
ATOM     26  C   UNL     1      10.132   5.140   0.472  0.00  0.00    +0.009 A 
ATOM     27  C   UNL     1      11.141   4.250   0.100  0.00  0.00    -0.018 A 
BRANCH  27  29
ATOM     29  C   UNL     1      11.262   3.832  -1.281  0.00  0.00    -0.018 A 
ATOM     30  C   UNL     1      12.208   2.872  -1.638  0.00  0.00    +0.008 A 
ATOM     31  C   UNL     1      10.432   4.390  -2.253  0.00  0.00    +0.008 A 
ATOM     32  C   UNL     1      12.324   2.470  -2.968  0.00  0.00    +0.001 A 
ATOM     33  C   UNL     1      10.549   3.987  -3.584  0.00  0.00    +0.001 A 
ATOM     34  C   UNL     1      11.495   3.026  -3.941  0.00  0.00    +0.000 A 
ENDBRANCH  27  29
ENDBRANCH  17  21
TORSDOF 6
ENDMDL
MODEL 8
REMARK VINA RESULT:      -7.2      6.672     10.980
REMARK  Name = 11942696
REMARK  6 active torsions:
REMARK  status: ('A' for Active; 'I' for Inactive)
REMARK    1  A    between atoms: N_4  and  C_11
REMARK    2  A    between atoms: N_5  and  C_12
REMARK    3  A    between atoms: N_6  and  C_18
REMARK    4  A    between atoms: C_17  and  C_21
REMARK    5  A    between atoms: C_18  and  C_22
REMARK    6  A    between atoms: C_27  and  C_29
REMARK                            x       y       z     vdW  Elec       q    Type
REMARK                         _______ _______ _______ _____ _____    ______ ____
ROOT
ATOM      4  N   UNL     1     -14.149  -6.262  14.788  0.00  0.00    -0.306 N 
ATOM      7  N   UNL     1     -12.694  -7.617  15.986  0.00  0.00    -0.214 NA
ATOM      8  N   UNL     1     -15.071  -7.685  16.374  0.00  0.00    -0.223 NA
ATOM     15  C   UNL     1     -13.963  -7.230  15.758  0.00  0.00    +0.216 A 
ATOM     17  C   UNL     1     -12.549  -8.562  16.938  0.00  0.00    +0.076 A 
ATOM     19  C   UNL     1     -14.854  -8.628  17.314  0.00  0.00    +0.116 A 
ATOM     20  C   UNL     1     -13.602  -9.109  17.642  0.00  0.00    +0.048 A 
ATOM     35  H   UNL     1     -15.096  -5.928  14.648  0.00  0.00    +0.149 HD
ENDROOT
BRANCH   4  11
ATOM      1  O   UNL     1     -13.501  -6.211  11.762  0.00  0.00    -0.370 OA
ATOM      2  O   UNL     1     -12.445  -3.559  13.022  0.00  0.00    -0.370 OA
ATOM      9  C   UNL     1     -13.553  -4.421  13.329  0.00  0.00    +0.171 C 
ATOM     10  C   UNL     1     -14.105  -4.931  12.012  0.00  0.00    +0.171 C 
ATOM     11  C   UNL     1     -13.067  -5.667  14.033  0.00  0.00    +0.130 C 
ATOM     12  C   UNL     1     -13.629  -3.918  10.996  0.00  0.00    +0.131 C 
ATOM     13  C   UNL     1     -12.673  -6.570  12.879  0.00  0.00    +0.185 C 
ATOM     14  C   UNL     1     -12.315  -3.450  11.597  0.00  0.00    +0.185 C 
BRANCH  12   5
ATOM      3  O   UNL     1     -14.477  -2.630   8.558  0.00  0.00    -0.253 OA
ATOM      5  N   UNL     1     -14.564  -2.826  10.870  0.00  0.00    -0.292 N 
ATOM      6  N   UNL     1     -15.836  -1.228   9.811  0.00  0.00    -0.296 N 
ATOM     16  C   UNL     1     -14.918  -2.262   9.645  0.00  0.00    +0.300 C 
ATOM     36  H   UNL     1     -15.037  -2.494  11.705  0.00  0.00    +0.151 HD
ATOM     37  H   UNL     1     -16.159  -1.007  10.748  0.00  0.00    +0.151 HD
BRANCH   6  18
ATOM     18  C   UNL     1     -16.371  -0.472   8.704  0.00  0.00    +0.132 C 
BRANCH  18  22
ATOM     22  C   UNL     1     -15.567   0.774   8.530  0.00  0.00    -0.016 C 
ATOM     28  C   UNL     1     -15.529   1.768   9.424  0.00  0.00    +0.005 C 
ENDBRANCH  18  22
ENDBRANCH   6  18
ENDBRANCH  12   5
ENDBRANCH   4  11
BRANCH  17  21
ATOM     21  C   UNL     1     -11.190  -8.980  17.186  0.00  0.00    +0.001 A 
ATOM     23  C   UNL     1     -10.145  -8.435  16.440  0.00  0.00    +0.010 A 
ATOM     24  C   UNL     1     -10.922  -9.927  18.174  0.00  0.00    +0.010 A 
ATOM     25  C   UNL     1      -8.832  -8.838  16.680  0.00  0.00    +0.009 A 
ATOM     26  C   UNL     1      -9.607 -10.331  18.415  0.00  0.00    +0.009 A 
ATOM     27  C   UNL     1      -8.563  -9.785  17.668  0.00  0.00    -0.018 A 
BRANCH  27  29
ATOM     29  C   UNL     1      -7.200 -10.204  17.918  0.00  0.00    -0.018 A 
ATOM     30  C   UNL     1      -6.863 -10.793  19.136  0.00  0.00    +0.008 A 
ATOM     31  C   UNL     1      -6.225 -10.020  16.938  0.00  0.00    +0.008 A 
ATOM     32  C   UNL     1      -5.550 -11.197  19.376  0.00  0.00    +0.001 A 
ATOM     33  C   UNL     1      -4.910 -10.424  17.179  0.00  0.00    +0.001 A 
ATOM     34  C   UNL     1      -4.574 -11.013  18.398  0.00  0.00    +0.000 A 
ENDBRANCH  27  29
ENDBRANCH  17  21
TORSDOF 6
ENDMDL
MODEL 9
REMARK VINA RESULT:      -7.2     22.017     26.655
REMARK  Name = 11942696
REMARK  6 active torsions:
REMARK  status: ('A' for Active; 'I' for Inactive)
REMARK    1  A    between atoms: N_4  and  C_11
REMARK    2  A    between atoms: N_5  and  C_12
REMARK    3  A    between atoms: N_6  and  C_18
REMARK    4  A    between atoms: C_17  and  C_21
REMARK    5  A    between atoms: C_18  and  C_22
REMARK    6  A    between atoms: C_27  and  C_29
REMARK                            x       y       z     vdW  Elec       q    Type
REMARK                         _______ _______ _______ _____ _____    ______ ____
ROOT
ATOM      4  N   UNL     1     -13.228   7.926  33.888  0.00  0.00    -0.306 N 
ATOM      7  N   UNL     1     -14.090   6.128  32.700  0.00  0.00    -0.214 NA
ATOM      8  N   UNL     1     -13.796   6.021  35.088  0.00  0.00    -0.223 NA
ATOM     15  C   UNL     1     -13.727   6.636  33.892  0.00  0.00    +0.216 A 
ATOM     17  C   UNL     1     -14.573   4.869  32.740  0.00  0.00    +0.076 A 
ATOM     19  C   UNL     1     -14.288   4.765  35.056  0.00  0.00    +0.116 A 
ATOM     20  C   UNL     1     -14.694   4.131  33.899  0.00  0.00    +0.048 A 
ATOM     35  H   UNL     1     -12.903   8.294  34.775  0.00  0.00    +0.149 HD
ENDROOT
BRANCH   4  11
ATOM      1  O   UNL     1     -12.852  10.966  33.445  0.00  0.00    -0.370 OA
ATOM      2  O   UNL     1     -11.381   9.463  31.140  0.00  0.00    -0.370 OA
ATOM      9  C   UNL     1     -11.642   9.140  32.515  0.00  0.00    +0.171 C 
ATOM     10  C   UNL     1     -11.527  10.426  33.310  0.00  0.00    +0.171 C 
ATOM     11  C   UNL     1     -13.085   8.725  32.691  0.00  0.00    +0.130 C 
ATOM     12  C   UNL     1     -10.680  11.323  32.437  0.00  0.00    +0.131 C 
ATOM     13  C   UNL     1     -13.795  10.055  32.859  0.00  0.00    +0.185 C 
ATOM     14  C   UNL     1     -11.047  10.855  31.039  0.00  0.00    +0.185 C 
BRANCH  12   5
ATOM      3  O   UNL     1      -8.708  13.374  32.918  0.00  0.00    -0.253 OA
ATOM      5  N   UNL     1      -9.274  11.133  32.700  0.00  0.00    -0.292 N 
ATOM      6  N   UNL     1      -7.096  11.723  33.151  0.00  0.00    -0.296 N 
ATOM     16  C   UNL     1      -8.389  12.187  32.922  0.00  0.00    +0.300 C 
ATOM     36  H   UNL     1      -8.923  10.185  32.792  0.00  0.00    +0.151 HD
ATOM     37  H   UNL     1      -6.931  10.720  33.154  0.00  0.00    +0.151 HD
BRANCH   6  18
ATOM     18  C   UNL     1      -5.983  12.604  33.409  0.00  0.00    +0.132 C 
BRANCH  18  22
ATOM     22  C   UNL     1      -4.963  12.431  32.333  0.00  0.00    -0.016 C 
ATOM     28  C   UNL     1      -4.129  13.397  31.934  0.00  0.00    +0.005 C 
ENDBRANCH  18  22
ENDBRANCH   6  18
ENDBRANCH  12   5
ENDBRANCH   4  11
BRANCH  17  21
ATOM     21  C   UNL     1     -14.964   4.320  31.463  0.00  0.00    +0.001 A 
ATOM     23  C   UNL     1     -14.344   3.168  30.979  0.00  0.00    +0.010 A 
ATOM     24  C   UNL     1     -15.963   4.943  30.714  0.00  0.00    +0.010 A 
ATOM     25  C   UNL     1     -14.723   2.638  29.746  0.00  0.00    +0.009 A 
ATOM     26  C   UNL     1     -16.342   4.412  29.480  0.00  0.00    +0.009 A 
ATOM     27  C   UNL     1     -15.722   3.260  28.996  0.00  0.00    -0.018 A 
BRANCH  27  29
ATOM     29  C   UNL     1     -16.115   2.711  27.717  0.00  0.00    -0.018 A 
ATOM     30  C   UNL     1     -16.563   1.393  27.631  0.00  0.00    +0.008 A 
ATOM     31  C   UNL     1     -16.046   3.501  26.569  0.00  0.00    +0.008 A 
ATOM     32  C   UNL     1     -16.942   0.865  26.397  0.00  0.00    +0.001 A 
ATOM     33  C   UNL     1     -16.425   2.971  25.335  0.00  0.00    +0.001 A 
ATOM     34  C   UNL     1     -16.874   1.653  25.249  0.00  0.00    +0.000 A 
ENDBRANCH  27  29
ENDBRANCH  17  21
TORSDOF 6
ENDMDL
MODEL 10
REMARK VINA RESULT:      -7.2      3.724      5.611
REMARK  Name = 11942696
REMARK  6 active torsions:
REMARK  status: ('A' for Active; 'I' for Inactive)
REMARK    1  A    between atoms: N_4  and  C_11
REMARK    2  A    between atoms: N_5  and  C_12
REMARK    3  A    between atoms: N_6  and  C_18
REMARK    4  A    between atoms: C_17  and  C_21
REMARK    5  A    between atoms: C_18  and  C_22
REMARK    6  A    between atoms: C_27  and  C_29
REMARK                            x       y       z     vdW  Elec       q    Type
REMARK                         _______ _______ _______ _____ _____    ______ ____
ROOT
ATOM      4  N   UNL     1      -9.099 -10.948  19.408  0.00  0.00    -0.306 N 
ATOM      7  N   UNL     1      -7.398 -10.791  17.836  0.00  0.00    -0.214 NA
ATOM      8  N   UNL     1      -6.923 -11.274  20.148  0.00  0.00    -0.223 NA
ATOM     15  C   UNL     1      -7.748 -11.007  19.117  0.00  0.00    +0.216 A 
ATOM     17  C   UNL     1      -6.073 -10.856  17.589  0.00  0.00    +0.076 A 
ATOM     19  C   UNL     1      -5.613 -11.325  19.830  0.00  0.00    +0.116 A 
ATOM     20  C   UNL     1      -5.125 -11.120  18.555  0.00  0.00    +0.048 A 
ATOM     35  H   UNL     1      -9.365 -11.057  20.379  0.00  0.00    +0.149 HD
ENDROOT
BRANCH   4  11
ATOM      1  O   UNL     1     -11.929 -12.115  18.947  0.00  0.00    -0.370 OA
ATOM      2  O   UNL     1     -11.947  -9.139  18.011  0.00  0.00    -0.370 OA
ATOM      9  C   UNL     1     -11.224  -9.844  19.034  0.00  0.00    +0.171 C 
ATOM     10  C   UNL     1     -12.170 -10.872  19.626  0.00  0.00    +0.171 C 
ATOM     11  C   UNL     1     -10.119 -10.670  18.419  0.00  0.00    +0.130 C 
ATOM     12  C   UNL     1     -13.545 -10.345  19.286  0.00  0.00    +0.131 C 
ATOM     13  C   UNL     1     -10.836 -11.950  18.031  0.00  0.00    +0.185 C 
ATOM     14  C   UNL     1     -13.299  -9.618  17.976  0.00  0.00    +0.185 C 
BRANCH  12   5
ATOM      3  O   UNL     1     -16.173  -9.169  19.468  0.00  0.00    -0.253 OA
ATOM      5  N   UNL     1     -14.024  -9.440  20.304  0.00  0.00    -0.292 N 
ATOM      6  N   UNL     1     -15.513  -8.075  21.404  0.00  0.00    -0.296 N 
ATOM     16  C   UNL     1     -15.316  -8.918  20.313  0.00  0.00    +0.300 C 
ATOM     36  H   UNL     1     -13.414  -9.224  21.085  0.00  0.00    +0.151 HD
ATOM     37  H   UNL     1     -14.751  -7.942  22.062  0.00  0.00    +0.151 HD
BRANCH   6  18
ATOM     18  C   UNL     1     -16.764  -7.400  21.656  0.00  0.00    +0.132 C 
BRANCH  18  22
ATOM     22  C   UNL     1     -16.521  -5.928  21.719  0.00  0.00    -0.016 C 
ATOM     28  C   UNL     1     -16.460  -5.231  22.859  0.00  0.00    +0.005 C 
ENDBRANCH  18  22
ENDBRANCH   6  18
ENDBRANCH  12   5
ENDBRANCH   4  11
BRANCH  17  21
ATOM     21  C   UNL     1      -5.694 -10.624  16.215  0.00  0.00    +0.001 A 
ATOM     23  C   UNL     1      -6.621 -10.105  15.313  0.00  0.00    +0.010 A 
ATOM     24  C   UNL     1      -4.397 -10.919  15.792  0.00  0.00    +0.010 A 
ATOM     25  C   UNL     1      -6.254  -9.881  13.986  0.00  0.00    +0.009 A 
ATOM     26  C   UNL     1      -4.029 -10.694  14.465  0.00  0.00    +0.009 A 
ATOM     27  C   UNL     1      -4.957 -10.175  13.562  0.00  0.00    -0.018 A 
BRANCH  27  29
ATOM     29  C   UNL     1      -4.575  -9.943  12.186  0.00  0.00    -0.018 A 
ATOM     30  C   UNL     1      -5.538  -9.575  11.247  0.00  0.00    +0.008 A 
ATOM     31  C   UNL     1      -3.243 -10.085  11.800  0.00  0.00    +0.008 A 
ATOM     32  C   UNL     1      -5.169  -9.351   9.921  0.00  0.00    +0.001 A 
ATOM     33  C   UNL     1      -2.874  -9.860  10.473  0.00  0.00    +0.001 A 
ATOM     34  C   UNL     1      -3.838  -9.493   9.533  0.00  0.00    +0.000 A 
ENDBRANCH  27  29
ENDBRANCH  17  21
TORSDOF 6
ENDMDL
