MODEL 1
REMARK VINA RESULT:      -6.9      0.000      0.000
REMARK  Name = 75536564
REMARK  9 active torsions:
REMARK  status: ('A' for Active; 'I' for Inactive)
REMARK    1  A    between atoms: S_1  and  C_24
REMARK    2  A    between atoms: S_1  and  C_27
REMARK    3  A    between atoms: O_3  and  C_10
REMARK    4  A    between atoms: N_7  and  C_18
REMARK    5  A    between atoms: N_8  and  C_12
REMARK    6  A    between atoms: N_8  and  C_20
REMARK    7  A    between atoms: C_9  and  C_18
REMARK    8  A    between atoms: C_11  and  C_19
REMARK    9  A    between atoms: C_20  and  C_21
REMARK                            x       y       z     vdW  Elec       q    Type
REMARK                         _______ _______ _______ _____ _____    ______ ____
ROOT
ATOM      2  O   UNL     1     -16.957   3.910  22.073  0.00  0.00    -0.371 OA
ATOM      9  C   UNL     1     -16.616   5.306  22.060  0.00  0.00    +0.165 C 
ATOM     10  C   UNL     1     -15.867   5.568  23.359  0.00  0.00    +0.164 C 
ATOM     12  C   UNL     1     -16.588   4.627  24.307  0.00  0.00    +0.111 C 
ATOM     17  C   UNL     1     -16.811   3.416  23.416  0.00  0.00    +0.181 C 
ENDROOT
BRANCH  10   3
ATOM      3  O   UNL     1     -15.962   6.922  23.758  0.00  0.00    -0.388 OA
ATOM     30  H   UNL     1     -16.894   7.121  23.949  0.00  0.00    +0.210 HD
ENDBRANCH  10   3
BRANCH  12   8
ATOM      8  N   UNL     1     -15.829   4.315  25.508  0.00  0.00    -0.305 NA
ATOM     29  H   UNL     1     -15.104   5.021  25.636  0.00  0.00    +0.123 HD
BRANCH   8  20
ATOM     20  C   UNL     1     -16.690   4.305  26.684  0.00  0.00    +0.116 C 
BRANCH  20  21
ATOM     21  C   UNL     1     -16.282   3.242  27.669  0.00  0.00    -0.033 A 
ATOM     22  C   UNL     1     -16.616   1.908  27.432  0.00  0.00    +0.007 A 
ATOM     23  C   UNL     1     -15.571   3.589  28.816  0.00  0.00    +0.007 A 
ATOM     24  C   UNL     1     -15.526   1.270  29.492  0.00  0.00    +0.088 A 
ATOM     25  C   UNL     1     -16.238   0.922  28.343  0.00  0.00    +0.027 A 
ATOM     26  C   UNL     1     -15.192   2.604  29.729  0.00  0.00    +0.027 A 
BRANCH  24   1
ATOM      1  S   UNL     1     -15.049   0.036  30.631  0.00  0.00    -0.006 S 
ATOM      5  O   UNL     1     -14.717   0.668  31.900  0.00  0.00    -0.170 OA
ATOM      6  O   UNL     1     -16.049  -1.022  30.591  0.00  0.00    -0.170 OA
ATOM     27  C   UNL     1     -13.534  -0.617  29.966  0.00  0.00    +0.200 C 
ENDBRANCH  24   1
ENDBRANCH  20  21
ENDBRANCH   8  20
ENDBRANCH  12   8
BRANCH   9  18
ATOM     18  C   UNL     1     -15.798   5.622  20.820  0.00  0.00    +0.138 C 
BRANCH  18   7
ATOM      4  O   UNL     1     -14.823   8.171  19.829  0.00  0.00    -0.276 OA
ATOM      7  N   UNL     1     -14.567   6.277  21.160  0.00  0.00    -0.313 N 
ATOM     19  C   UNL     1     -14.180   7.505  20.634  0.00  0.00    +0.216 C 
ATOM     28  H   UNL     1     -13.957   5.810  21.824  0.00  0.00    +0.149 HD
BRANCH  19  11
ATOM     11  C   UNL     1     -12.863   7.973  21.175  0.00  0.00    +0.075 C 
ATOM     13  C   UNL     1     -11.715   7.155  20.581  0.00  0.00    +0.013 C 
ATOM     14  C   UNL     1     -12.609   9.428  20.769  0.00  0.00    +0.013 C 
ATOM     15  C   UNL     1     -11.159   8.028  19.464  0.00  0.00    +0.001 C 
ATOM     16  C   UNL     1     -11.271   9.429  20.039  0.00  0.00    +0.001 C 
ENDBRANCH  19  11
ENDBRANCH  18   7
ENDBRANCH   9  18
TORSDOF 8
ENDMDL
MODEL 2
REMARK VINA RESULT:      -6.8      3.683     10.186
REMARK  Name = 75536564
REMARK  9 active torsions:
REMARK  status: ('A' for Active; 'I' for Inactive)
REMARK    1  A    between atoms: S_1  and  C_24
REMARK    2  A    between atoms: S_1  and  C_27
REMARK    3  A    between atoms: O_3  and  C_10
REMARK    4  A    between atoms: N_7  and  C_18
REMARK    5  A    between atoms: N_8  and  C_12
REMARK    6  A    between atoms: N_8  and  C_20
REMARK    7  A    between atoms: C_9  and  C_18
REMARK    8  A    between atoms: C_11  and  C_19
REMARK    9  A    between atoms: C_20  and  C_21
REMARK                            x       y       z     vdW  Elec       q    Type
REMARK                         _______ _______ _______ _____ _____    ______ ____
ROOT
ATOM      2  O   UNL     1     -17.539   5.389  24.465  0.00  0.00    -0.371 OA
ATOM      9  C   UNL     1     -17.071   4.237  25.187  0.00  0.00    +0.165 C 
ATOM     10  C   UNL     1     -15.759   3.833  24.530  0.00  0.00    +0.164 C 
ATOM     12  C   UNL     1     -16.042   4.173  23.077  0.00  0.00    +0.111 C 
ATOM     17  C   UNL     1     -16.823   5.470  23.220  0.00  0.00    +0.181 C 
ENDROOT
BRANCH  10   3
ATOM      3  O   UNL     1     -15.474   2.461  24.722  0.00  0.00    -0.388 OA
ATOM     30  H   UNL     1     -16.083   2.113  25.396  0.00  0.00    +0.210 HD
ENDBRANCH  10   3
BRANCH  12   8
ATOM      8  N   UNL     1     -14.843   4.320  22.269  0.00  0.00    -0.305 NA
ATOM     29  H   UNL     1     -15.112   4.441  21.292  0.00  0.00    +0.123 HD
BRANCH   8  20
ATOM     20  C   UNL     1     -14.065   5.479  22.690  0.00  0.00    +0.116 C 
BRANCH  20  21
ATOM     21  C   UNL     1     -13.523   6.248  21.515  0.00  0.00    -0.033 A 
ATOM     22  C   UNL     1     -14.392   6.952  20.682  0.00  0.00    +0.007 A 
ATOM     23  C   UNL     1     -12.152   6.255  21.259  0.00  0.00    +0.007 A 
ATOM     24  C   UNL     1     -12.519   7.672  19.336  0.00  0.00    +0.088 A 
ATOM     25  C   UNL     1     -13.891   7.664  19.593  0.00  0.00    +0.027 A 
ATOM     26  C   UNL     1     -11.649   6.967  20.169  0.00  0.00    +0.027 A 
BRANCH  24   1
ATOM      1  S   UNL     1     -11.890   8.567  17.976  0.00  0.00    -0.006 S 
ATOM      5  O   UNL     1     -10.707   7.885  17.468  0.00  0.00    -0.170 OA
ATOM      6  O   UNL     1     -12.999   8.854  17.076  0.00  0.00    -0.170 OA
ATOM     27  C   UNL     1     -11.340  10.106  18.675  0.00  0.00    +0.200 C 
ENDBRANCH  24   1
ENDBRANCH  20  21
ENDBRANCH   8  20
ENDBRANCH  12   8
BRANCH   9  18
ATOM     18  C   UNL     1     -16.926   4.579  26.659  0.00  0.00    +0.138 C 
BRANCH  18   7
ATOM      4  O   UNL     1     -16.395   4.394  29.507  0.00  0.00    -0.276 OA
ATOM      7  N   UNL     1     -16.052   3.656  27.325  0.00  0.00    -0.313 N 
ATOM     19  C   UNL     1     -15.858   3.640  28.702  0.00  0.00    +0.216 C 
ATOM     28  H   UNL     1     -15.557   2.983  26.748  0.00  0.00    +0.149 HD
BRANCH  19  11
ATOM     11  C   UNL     1     -14.913   2.560  29.137  0.00  0.00    +0.075 C 
ATOM     13  C   UNL     1     -14.297   2.899  30.496  0.00  0.00    +0.013 C 
ATOM     14  C   UNL     1     -15.667   1.239  29.325  0.00  0.00    +0.013 C 
ATOM     15  C   UNL     1     -15.111   2.095  31.498  0.00  0.00    +0.001 C 
ATOM     16  C   UNL     1     -15.383   0.798  30.756  0.00  0.00    +0.001 C 
ENDBRANCH  19  11
ENDBRANCH  18   7
ENDBRANCH   9  18
TORSDOF 8
ENDMDL
MODEL 3
REMARK VINA RESULT:      -6.7      1.642      2.543
REMARK  Name = 75536564
REMARK  9 active torsions:
REMARK  status: ('A' for Active; 'I' for Inactive)
REMARK    1  A    between atoms: S_1  and  C_24
REMARK    2  A    between atoms: S_1  and  C_27
REMARK    3  A    between atoms: O_3  and  C_10
REMARK    4  A    between atoms: N_7  and  C_18
REMARK    5  A    between atoms: N_8  and  C_12
REMARK    6  A    between atoms: N_8  and  C_20
REMARK    7  A    between atoms: C_9  and  C_18
REMARK    8  A    between atoms: C_11  and  C_19
REMARK    9  A    between atoms: C_20  and  C_21
REMARK                            x       y       z     vdW  Elec       q    Type
REMARK                         _______ _______ _______ _____ _____    ______ ____
ROOT
ATOM      2  O   UNL     1     -15.931   6.758  23.048  0.00  0.00    -0.371 OA
ATOM      9  C   UNL     1     -14.699   6.470  22.368  0.00  0.00    +0.165 C 
ATOM     10  C   UNL     1     -14.671   4.961  22.168  0.00  0.00    +0.164 C 
ATOM     12  C   UNL     1     -15.359   4.485  23.435  0.00  0.00    +0.111 C 
ATOM     17  C   UNL     1     -16.449   5.533  23.596  0.00  0.00    +0.181 C 
ENDROOT
BRANCH  10   3
ATOM      3  O   UNL     1     -13.351   4.469  22.046  0.00  0.00    -0.388 OA
ATOM     30  H   UNL     1     -13.375   3.501  22.136  0.00  0.00    +0.210 HD
ENDBRANCH  10   3
BRANCH  12   8
ATOM      8  N   UNL     1     -15.883   3.133  23.341  0.00  0.00    -0.305 NA
ATOM     29  H   UNL     1     -15.158   2.474  23.625  0.00  0.00    +0.123 HD
BRANCH   8  20
ATOM     20  C   UNL     1     -17.044   2.958  24.206  0.00  0.00    +0.116 C 
BRANCH  20  21
ATOM     21  C   UNL     1     -16.649   2.525  25.593  0.00  0.00    -0.033 A 
ATOM     22  C   UNL     1     -16.181   3.467  26.511  0.00  0.00    +0.007 A 
ATOM     23  C   UNL     1     -16.751   1.185  25.961  0.00  0.00    +0.007 A 
ATOM     24  C   UNL     1     -15.918   1.724  28.163  0.00  0.00    +0.088 A 
ATOM     25  C   UNL     1     -15.816   3.067  27.795  0.00  0.00    +0.027 A 
ATOM     26  C   UNL     1     -16.386   0.783  27.246  0.00  0.00    +0.027 A 
BRANCH  24   1
ATOM      1  S   UNL     1     -15.464   1.224  29.773  0.00  0.00    -0.006 S 
ATOM      5  O   UNL     1     -16.183   0.002  30.108  0.00  0.00    -0.170 OA
ATOM      6  O   UNL     1     -14.010   1.252  29.859  0.00  0.00    -0.170 OA
ATOM     27  C   UNL     1     -16.099   2.505  30.830  0.00  0.00    +0.200 C 
ENDBRANCH  24   1
ENDBRANCH  20  21
ENDBRANCH   8  20
ENDBRANCH  12   8
BRANCH   9  18
ATOM     18  C   UNL     1     -14.636   7.250  21.067  0.00  0.00    +0.138 C 
BRANCH  18   7
ATOM      4  O   UNL     1     -12.680   9.395  21.090  0.00  0.00    -0.276 OA
ATOM      7  N   UNL     1     -13.314   7.231  20.509  0.00  0.00    -0.313 N 
ATOM     19  C   UNL     1     -12.440   8.310  20.568  0.00  0.00    +0.216 C 
ATOM     28  H   UNL     1     -13.013   6.375  20.053  0.00  0.00    +0.149 HD
BRANCH  19  11
ATOM     11  C   UNL     1     -11.117   8.014  19.931  0.00  0.00    +0.075 C 
ATOM     13  C   UNL     1     -11.310   7.277  18.604  0.00  0.00    +0.013 C 
ATOM     14  C   UNL     1     -10.385   9.318  19.595  0.00  0.00    +0.013 C 
ATOM     15  C   UNL     1     -11.176   8.357  17.541  0.00  0.00    +0.001 C 
ATOM     16  C   UNL     1     -10.086   9.254  18.101  0.00  0.00    +0.001 C 
ENDBRANCH  19  11
ENDBRANCH  18   7
ENDBRANCH   9  18
TORSDOF 8
ENDMDL
MODEL 4
REMARK VINA RESULT:      -6.5      5.652      8.824
REMARK  Name = 75536564
REMARK  9 active torsions:
REMARK  status: ('A' for Active; 'I' for Inactive)
REMARK    1  A    between atoms: S_1  and  C_24
REMARK    2  A    between atoms: S_1  and  C_27
REMARK    3  A    between atoms: O_3  and  C_10
REMARK    4  A    between atoms: N_7  and  C_18
REMARK    5  A    between atoms: N_8  and  C_12
REMARK    6  A    between atoms: N_8  and  C_20
REMARK    7  A    between atoms: C_9  and  C_18
REMARK    8  A    between atoms: C_11  and  C_19
REMARK    9  A    between atoms: C_20  and  C_21
REMARK                            x       y       z     vdW  Elec       q    Type
REMARK                         _______ _______ _______ _____ _____    ______ ____
ROOT
ATOM      2  O   UNL     1     -10.929  10.707  15.991  0.00  0.00    -0.371 OA
ATOM      9  C   UNL     1     -10.876   9.320  15.620  0.00  0.00    +0.165 C 
ATOM     10  C   UNL     1     -10.756   8.541  16.922  0.00  0.00    +0.164 C 
ATOM     12  C   UNL     1      -9.904   9.485  17.751  0.00  0.00    +0.111 C 
ATOM     17  C   UNL     1     -10.477  10.835  17.351  0.00  0.00    +0.181 C 
ENDROOT
BRANCH  10   3
ATOM      3  O   UNL     1     -10.142   7.281  16.728  0.00  0.00    -0.388 OA
ATOM     30  H   UNL     1     -10.681   6.605  17.174  0.00  0.00    +0.210 HD
ENDBRANCH  10   3
BRANCH  12   8
ATOM      8  N   UNL     1      -9.984   9.238  19.182  0.00  0.00    -0.305 NA
ATOM     29  H   UNL     1      -9.198   9.696  19.643  0.00  0.00    +0.123 HD
BRANCH   8  20
ATOM     20  C   UNL     1     -11.226   9.763  19.736  0.00  0.00    +0.116 C 
BRANCH  20  21
ATOM     21  C   UNL     1     -12.024   8.693  20.434  0.00  0.00    -0.033 A 
ATOM     22  C   UNL     1     -11.613   7.362  20.368  0.00  0.00    +0.007 A 
ATOM     23  C   UNL     1     -13.174   9.033  21.145  0.00  0.00    +0.007 A 
ATOM     24  C   UNL     1     -13.502   6.711  21.726  0.00  0.00    +0.088 A 
ATOM     25  C   UNL     1     -12.351   6.371  21.013  0.00  0.00    +0.027 A 
ATOM     26  C   UNL     1     -13.914   8.043  21.792  0.00  0.00    +0.027 A 
BRANCH  24   1
ATOM      1  S   UNL     1     -14.425   5.471  22.537  0.00  0.00    -0.006 S 
ATOM      5  O   UNL     1     -14.977   4.564  21.540  0.00  0.00    -0.170 OA
ATOM      6  O   UNL     1     -13.610   4.942  23.621  0.00  0.00    -0.170 OA
ATOM     27  C   UNL     1     -15.796   6.342  23.260  0.00  0.00    +0.200 C 
ENDBRANCH  24   1
ENDBRANCH  20  21
ENDBRANCH   8  20
ENDBRANCH  12   8
BRANCH   9  18
ATOM     18  C   UNL     1     -12.110   8.956  14.814  0.00  0.00    +0.138 C 
BRANCH  18   7
ATOM      4  O   UNL     1     -14.921   9.608  15.131  0.00  0.00    -0.276 OA
ATOM      7  N   UNL     1     -13.078   8.271  15.621  0.00  0.00    -0.313 N 
ATOM     19  C   UNL     1     -14.411   8.655  15.713  0.00  0.00    +0.216 C 
ATOM     28  H   UNL     1     -12.760   7.462  16.145  0.00  0.00    +0.149 HD
BRANCH  19  11
ATOM     11  C   UNL     1     -15.209   7.752  16.604  0.00  0.00    +0.075 C 
ATOM     13  C   UNL     1     -14.806   7.947  18.067  0.00  0.00    +0.013 C 
ATOM     14  C   UNL     1     -16.698   8.103  16.519  0.00  0.00    +0.013 C 
ATOM     15  C   UNL     1     -15.874   8.866  18.641  0.00  0.00    +0.001 C 
ATOM     16  C   UNL     1     -17.140   8.393  17.949  0.00  0.00    +0.001 C 
ENDBRANCH  19  11
ENDBRANCH  18   7
ENDBRANCH   9  18
TORSDOF 8
ENDMDL
MODEL 5
REMARK VINA RESULT:      -6.4     18.854     20.938
REMARK  Name = 75536564
REMARK  9 active torsions:
REMARK  status: ('A' for Active; 'I' for Inactive)
REMARK    1  A    between atoms: S_1  and  C_24
REMARK    2  A    between atoms: S_1  and  C_27
REMARK    3  A    between atoms: O_3  and  C_10
REMARK    4  A    between atoms: N_7  and  C_18
REMARK    5  A    between atoms: N_8  and  C_12
REMARK    6  A    between atoms: N_8  and  C_20
REMARK    7  A    between atoms: C_9  and  C_18
REMARK    8  A    between atoms: C_11  and  C_19
REMARK    9  A    between atoms: C_20  and  C_21
REMARK                            x       y       z     vdW  Elec       q    Type
REMARK                         _______ _______ _______ _____ _____    ______ ____
ROOT
ATOM      2  O   UNL     1      -7.595 -13.083  18.243  0.00  0.00    -0.371 OA
ATOM      9  C   UNL     1      -7.565 -12.327  19.465  0.00  0.00    +0.165 C 
ATOM     10  C   UNL     1      -6.250 -11.560  19.453  0.00  0.00    +0.164 C 
ATOM     12  C   UNL     1      -5.337 -12.555  18.760  0.00  0.00    +0.111 C 
ATOM     17  C   UNL     1      -6.264 -13.124  17.698  0.00  0.00    +0.181 C 
ENDROOT
BRANCH  10   3
ATOM      3  O   UNL     1      -5.816 -11.239  20.760  0.00  0.00    -0.388 OA
ATOM     30  H   UNL     1      -6.048 -11.977  21.350  0.00  0.00    +0.210 HD
ENDBRANCH  10   3
BRANCH  12   8
ATOM      8  N   UNL     1      -4.137 -11.954  18.202  0.00  0.00    -0.305 NA
ATOM     29  H   UNL     1      -3.741 -12.586  17.505  0.00  0.00    +0.123 HD
BRANCH   8  20
ATOM     20  C   UNL     1      -4.437 -10.678  17.565  0.00  0.00    +0.116 C 
BRANCH  20  21
ATOM     21  C   UNL     1      -3.999 -10.653  16.125  0.00  0.00    -0.033 A 
ATOM     22  C   UNL     1      -2.639 -10.676  15.809  0.00  0.00    +0.007 A 
ATOM     23  C   UNL     1      -4.950 -10.608  15.107  0.00  0.00    +0.007 A 
ATOM     24  C   UNL     1      -3.185 -10.608  13.457  0.00  0.00    +0.088 A 
ATOM     25  C   UNL     1      -2.233 -10.653  14.476  0.00  0.00    +0.027 A 
ATOM     26  C   UNL     1      -4.544 -10.585  13.772  0.00  0.00    +0.027 A 
BRANCH  24   1
ATOM      1  S   UNL     1      -2.676 -10.583  11.787  0.00  0.00    -0.006 S 
ATOM      5  O   UNL     1      -1.413  -9.864  11.689  0.00  0.00    -0.170 OA
ATOM      6  O   UNL     1      -2.777 -11.939  11.267  0.00  0.00    -0.170 OA
ATOM     27  C   UNL     1      -3.902  -9.590  10.966  0.00  0.00    +0.200 C 
ENDBRANCH  24   1
ENDBRANCH  20  21
ENDBRANCH   8  20
ENDBRANCH  12   8
BRANCH   9  18
ATOM     18  C   UNL     1      -8.786 -11.426  19.541  0.00  0.00    +0.138 C 
BRANCH  18   7
ATOM      4  O   UNL     1     -10.922  -9.744  18.525  0.00  0.00    -0.276 OA
ATOM      7  N   UNL     1      -8.666 -10.310  18.648  0.00  0.00    -0.313 N 
ATOM     19  C   UNL     1      -9.750  -9.556  18.212  0.00  0.00    +0.216 C 
ATOM     28  H   UNL     1      -7.734 -10.065  18.328  0.00  0.00    +0.149 HD
BRANCH  19  11
ATOM     11  C   UNL     1      -9.343  -8.433  17.306  0.00  0.00    +0.075 C 
ATOM     13  C   UNL     1      -8.859  -8.976  15.960  0.00  0.00    +0.013 C 
ATOM     14  C   UNL     1     -10.546  -7.535  17.000  0.00  0.00    +0.013 C 
ATOM     15  C   UNL     1     -10.053  -8.817  15.030  0.00  0.00    +0.001 C 
ATOM     16  C   UNL     1     -10.664  -7.501  15.480  0.00  0.00    +0.001 C 
ENDBRANCH  19  11
ENDBRANCH  18   7
ENDBRANCH   9  18
TORSDOF 8
ENDMDL
MODEL 6
REMARK VINA RESULT:      -6.4     17.938     19.759
REMARK  Name = 75536564
REMARK  9 active torsions:
REMARK  status: ('A' for Active; 'I' for Inactive)
REMARK    1  A    between atoms: S_1  and  C_24
REMARK    2  A    between atoms: S_1  and  C_27
REMARK    3  A    between atoms: O_3  and  C_10
REMARK    4  A    between atoms: N_7  and  C_18
REMARK    5  A    between atoms: N_8  and  C_12
REMARK    6  A    between atoms: N_8  and  C_20
REMARK    7  A    between atoms: C_9  and  C_18
REMARK    8  A    between atoms: C_11  and  C_19
REMARK    9  A    between atoms: C_20  and  C_21
REMARK                            x       y       z     vdW  Elec       q    Type
REMARK                         _______ _______ _______ _____ _____    ______ ____
ROOT
ATOM      2  O   UNL     1      -9.318 -13.388  18.284  0.00  0.00    -0.371 OA
ATOM      9  C   UNL     1     -10.135 -12.366  18.878  0.00  0.00    +0.165 C 
ATOM     10  C   UNL     1      -9.171 -11.330  19.438  0.00  0.00    +0.164 C 
ATOM     12  C   UNL     1      -8.023 -12.213  19.891  0.00  0.00    +0.111 C 
ATOM     17  C   UNL     1      -7.972 -13.238  18.770  0.00  0.00    +0.181 C 
ENDROOT
BRANCH  10   3
ATOM      3  O   UNL     1      -9.746 -10.595  20.501  0.00  0.00    -0.388 OA
ATOM     30  H   UNL     1      -9.107 -10.562  21.233  0.00  0.00    +0.210 HD
ENDBRANCH  10   3
BRANCH  12   8
ATOM      8  N   UNL     1      -6.769 -11.498  20.062  0.00  0.00    -0.305 NA
ATOM     29  H   UNL     1      -5.995 -12.121  19.829  0.00  0.00    +0.123 HD
BRANCH   8  20
ATOM     20  C   UNL     1      -6.710 -10.328  19.192  0.00  0.00    +0.116 C 
BRANCH  20  21
ATOM     21  C   UNL     1      -5.717 -10.510  18.075  0.00  0.00    -0.033 A 
ATOM     22  C   UNL     1      -4.543 -11.230  18.296  0.00  0.00    +0.007 A 
ATOM     23  C   UNL     1      -5.971  -9.959  16.820  0.00  0.00    +0.007 A 
ATOM     24  C   UNL     1      -3.877 -10.847  16.005  0.00  0.00    +0.088 A 
ATOM     25  C   UNL     1      -3.623 -11.399  17.262  0.00  0.00    +0.027 A 
ATOM     26  C   UNL     1      -5.052 -10.127  15.784  0.00  0.00    +0.027 A 
BRANCH  24   1
ATOM      1  S   UNL     1      -2.728 -11.061  14.709  0.00  0.00    -0.006 S 
ATOM      5  O   UNL     1      -2.345 -12.466  14.645  0.00  0.00    -0.170 OA
ATOM      6  O   UNL     1      -3.259 -10.404  13.524  0.00  0.00    -0.170 OA
ATOM     27  C   UNL     1      -1.291 -10.157  15.239  0.00  0.00    +0.200 C 
ENDBRANCH  24   1
ENDBRANCH  20  21
ENDBRANCH   8  20
ENDBRANCH  12   8
BRANCH   9  18
ATOM     18  C   UNL     1     -11.086 -11.801  17.837  0.00  0.00    +0.138 C 
BRANCH  18   7
ATOM      4  O   UNL     1      -9.277 -11.240  15.637  0.00  0.00    -0.276 OA
ATOM      7  N   UNL     1     -10.650 -10.515  17.374  0.00  0.00    -0.313 N 
ATOM     19  C   UNL     1      -9.777 -10.340  16.306  0.00  0.00    +0.216 C 
ATOM     28  H   UNL     1     -11.008  -9.698  17.859  0.00  0.00    +0.149 HD
BRANCH  19  11
ATOM     11  C   UNL     1      -9.506  -8.895  16.016  0.00  0.00    +0.075 C 
ATOM     13  C   UNL     1     -10.411  -8.392  14.889  0.00  0.00    +0.013 C 
ATOM     14  C   UNL     1      -9.832  -8.037  17.243  0.00  0.00    +0.013 C 
ATOM     15  C   UNL     1     -11.544  -7.667  15.601  0.00  0.00    +0.001 C 
ATOM     16  C   UNL     1     -10.841  -6.997  16.768  0.00  0.00    +0.001 C 
ENDBRANCH  19  11
ENDBRANCH  18   7
ENDBRANCH   9  18
TORSDOF 8
ENDMDL
MODEL 7
REMARK VINA RESULT:      -6.3      3.357      9.568
REMARK  Name = 75536564
REMARK  9 active torsions:
REMARK  status: ('A' for Active; 'I' for Inactive)
REMARK    1  A    between atoms: S_1  and  C_24
REMARK    2  A    between atoms: S_1  and  C_27
REMARK    3  A    between atoms: O_3  and  C_10
REMARK    4  A    between atoms: N_7  and  C_18
REMARK    5  A    between atoms: N_8  and  C_12
REMARK    6  A    between atoms: N_8  and  C_20
REMARK    7  A    between atoms: C_9  and  C_18
REMARK    8  A    between atoms: C_11  and  C_19
REMARK    9  A    between atoms: C_20  and  C_21
REMARK                            x       y       z     vdW  Elec       q    Type
REMARK                         _______ _______ _______ _____ _____    ______ ____
ROOT
ATOM      2  O   UNL     1     -18.441   3.041  26.265  0.00  0.00    -0.371 OA
ATOM      9  C   UNL     1     -18.133   1.639  26.327  0.00  0.00    +0.165 C 
ATOM     10  C   UNL     1     -16.925   1.433  25.424  0.00  0.00    +0.164 C 
ATOM     12  C   UNL     1     -17.204   2.444  24.327  0.00  0.00    +0.111 C 
ATOM     17  C   UNL     1     -17.767   3.608  25.127  0.00  0.00    +0.181 C 
ENDROOT
BRANCH  10   3
ATOM      3  O   UNL     1     -16.851   0.107  24.938  0.00  0.00    -0.388 OA
ATOM     30  H   UNL     1     -17.639  -0.375  25.240  0.00  0.00    +0.210 HD
ENDBRANCH  10   3
BRANCH  12   8
ATOM      8  N   UNL     1     -16.027   2.805  23.554  0.00  0.00    -0.305 NA
ATOM     29  H   UNL     1     -16.315   3.067  22.611  0.00  0.00    +0.123 HD
BRANCH   8  20
ATOM     20  C   UNL     1     -15.325   3.929  24.161  0.00  0.00    +0.116 C 
BRANCH  20  21
ATOM     21  C   UNL     1     -14.737   4.849  23.124  0.00  0.00    -0.033 A 
ATOM     22  C   UNL     1     -15.567   5.706  22.401  0.00  0.00    +0.007 A 
ATOM     23  C   UNL     1     -13.363   4.845  22.888  0.00  0.00    +0.007 A 
ATOM     24  C   UNL     1     -13.647   6.553  21.203  0.00  0.00    +0.088 A 
ATOM     25  C   UNL     1     -15.023   6.558  21.441  0.00  0.00    +0.027 A 
ATOM     26  C   UNL     1     -12.817   5.697  21.927  0.00  0.00    +0.027 A 
BRANCH  24   1
ATOM      1  S   UNL     1     -12.965   7.623  20.004  0.00  0.00    -0.006 S 
ATOM      5  O   UNL     1     -11.712   7.056  19.524  0.00  0.00    -0.170 OA
ATOM      6  O   UNL     1     -14.015   7.960  19.054  0.00  0.00    -0.170 OA
ATOM     27  C   UNL     1     -12.553   9.097  20.909  0.00  0.00    +0.200 C 
ENDBRANCH  24   1
ENDBRANCH  20  21
ENDBRANCH   8  20
ENDBRANCH  12   8
BRANCH   9  18
ATOM     18  C   UNL     1     -17.882   1.233  27.769  0.00  0.00    +0.138 C 
BRANCH  18   7
ATOM      4  O   UNL     1     -16.113   0.059  29.749  0.00  0.00    -0.276 OA
ATOM      7  N   UNL     1     -16.641   1.764  28.253  0.00  0.00    -0.313 N 
ATOM     19  C   UNL     1     -15.854   1.130  29.207  0.00  0.00    +0.216 C 
ATOM     28  H   UNL     1     -16.330   2.651  27.866  0.00  0.00    +0.149 HD
BRANCH  19  11
ATOM     11  C   UNL     1     -14.598   1.889  29.514  0.00  0.00    +0.075 C 
ATOM     13  C   UNL     1     -14.916   3.352  29.827  0.00  0.00    +0.013 C 
ATOM     14  C   UNL     1     -13.926   1.318  30.767  0.00  0.00    +0.013 C 
ATOM     15  C   UNL     1     -14.909   3.431  31.347  0.00  0.00    +0.001 C 
ATOM     16  C   UNL     1     -13.781   2.490  31.732  0.00  0.00    +0.001 C 
ENDBRANCH  19  11
ENDBRANCH  18   7
ENDBRANCH   9  18
TORSDOF 8
ENDMDL
MODEL 8
REMARK VINA RESULT:      -6.2     31.041     34.823
REMARK  Name = 75536564
REMARK  9 active torsions:
REMARK  status: ('A' for Active; 'I' for Inactive)
REMARK    1  A    between atoms: S_1  and  C_24
REMARK    2  A    between atoms: S_1  and  C_27
REMARK    3  A    between atoms: O_3  and  C_10
REMARK    4  A    between atoms: N_7  and  C_18
REMARK    5  A    between atoms: N_8  and  C_12
REMARK    6  A    between atoms: N_8  and  C_20
REMARK    7  A    between atoms: C_9  and  C_18
REMARK    8  A    between atoms: C_11  and  C_19
REMARK    9  A    between atoms: C_20  and  C_21
REMARK                            x       y       z     vdW  Elec       q    Type
REMARK                         _______ _______ _______ _____ _____    ______ ____
ROOT
ATOM      2  O   UNL     1       8.894   7.505   7.057  0.00  0.00    -0.371 OA
ATOM      9  C   UNL     1      10.202   7.464   7.651  0.00  0.00    +0.165 C 
ATOM     10  C   UNL     1      10.966   6.374   6.913  0.00  0.00    +0.164 C 
ATOM     12  C   UNL     1       9.857   5.374   6.639  0.00  0.00    +0.111 C 
ATOM     17  C   UNL     1       8.697   6.297   6.300  0.00  0.00    +0.181 C 
ENDROOT
BRANCH  10   3
ATOM      3  O   UNL     1      12.006   5.832   7.703  0.00  0.00    -0.388 OA
ATOM     30  H   UNL     1      12.724   6.486   7.755  0.00  0.00    +0.210 HD
ENDBRANCH  10   3
BRANCH  12   8
ATOM      8  N   UNL     1      10.166   4.439   5.570  0.00  0.00    -0.305 NA
ATOM     29  H   UNL     1       9.579   3.611   5.671  0.00  0.00    +0.123 HD
BRANCH   8  20
ATOM     20  C   UNL     1       9.919   5.035   4.263  0.00  0.00    +0.116 C 
BRANCH  20  21
ATOM     21  C   UNL     1      11.082   4.837   3.327  0.00  0.00    -0.033 A 
ATOM     22  C   UNL     1      11.946   5.898   3.055  0.00  0.00    +0.007 A 
ATOM     23  C   UNL     1      11.294   3.594   2.732  0.00  0.00    +0.007 A 
ATOM     24  C   UNL     1      13.236   4.471   1.593  0.00  0.00    +0.088 A 
ATOM     25  C   UNL     1      13.023   5.715   2.188  0.00  0.00    +0.027 A 
ATOM     26  C   UNL     1      12.371   3.410   1.865  0.00  0.00    +0.027 A 
BRANCH  24   1
ATOM      1  S   UNL     1      14.586   4.240   0.511  0.00  0.00    -0.006 S 
ATOM      5  O   UNL     1      15.504   3.274   1.100  0.00  0.00    -0.170 OA
ATOM      6  O   UNL     1      14.057   4.011  -0.826  0.00  0.00    -0.170 OA
ATOM     27  C   UNL     1      15.422   5.810   0.506  0.00  0.00    +0.200 C 
ENDBRANCH  24   1
ENDBRANCH  20  21
ENDBRANCH   8  20
ENDBRANCH  12   8
BRANCH   9  18
ATOM     18  C   UNL     1      10.855   8.832   7.548  0.00  0.00    +0.138 C 
BRANCH  18   7
ATOM      4  O   UNL     1      12.392  10.532   5.766  0.00  0.00    -0.276 OA
ATOM      7  N   UNL     1      12.248   8.721   7.224  0.00  0.00    -0.313 N 
ATOM     19  C   UNL     1      12.905   9.586   6.355  0.00  0.00    +0.216 C 
ATOM     28  H   UNL     1      12.771   7.969   7.662  0.00  0.00    +0.149 HD
BRANCH  19  11
ATOM     11  C   UNL     1      14.362   9.261   6.214  0.00  0.00    +0.075 C 
ATOM     13  C   UNL     1      14.627   7.801   6.587  0.00  0.00    +0.013 C 
ATOM     14  C   UNL     1      14.801   9.417   4.754  0.00  0.00    +0.013 C 
ATOM     15  C   UNL     1      14.702   7.071   5.254  0.00  0.00    +0.001 C 
ATOM     16  C   UNL     1      15.401   8.074   4.354  0.00  0.00    +0.001 C 
ENDBRANCH  19  11
ENDBRANCH  18   7
ENDBRANCH   9  18
TORSDOF 8
ENDMDL
MODEL 9
REMARK VINA RESULT:      -6.1     16.567     17.871
REMARK  Name = 75536564
REMARK  9 active torsions:
REMARK  status: ('A' for Active; 'I' for Inactive)
REMARK    1  A    between atoms: S_1  and  C_24
REMARK    2  A    between atoms: S_1  and  C_27
REMARK    3  A    between atoms: O_3  and  C_10
REMARK    4  A    between atoms: N_7  and  C_18
REMARK    5  A    between atoms: N_8  and  C_12
REMARK    6  A    between atoms: N_8  and  C_20
REMARK    7  A    between atoms: C_9  and  C_18
REMARK    8  A    between atoms: C_11  and  C_19
REMARK    9  A    between atoms: C_20  and  C_21
REMARK                            x       y       z     vdW  Elec       q    Type
REMARK                         _______ _______ _______ _____ _____    ______ ____
ROOT
ATOM      2  O   UNL     1     -12.440  -8.469  16.646  0.00  0.00    -0.371 OA
ATOM      9  C   UNL     1     -12.313  -7.166  16.053  0.00  0.00    +0.165 C 
ATOM     10  C   UNL     1     -10.829  -6.974  15.772  0.00  0.00    +0.164 C 
ATOM     12  C   UNL     1     -10.212  -7.704  16.951  0.00  0.00    +0.111 C 
ATOM     17  C   UNL     1     -11.139  -8.902  17.081  0.00  0.00    +0.181 C 
ENDROOT
BRANCH  10   3
ATOM      3  O   UNL     1     -10.473  -5.606  15.731  0.00  0.00    -0.388 OA
ATOM     30  H   UNL     1      -9.833  -5.434  16.443  0.00  0.00    +0.210 HD
ENDBRANCH  10   3
BRANCH  12   8
ATOM      8  N   UNL     1      -8.824  -8.083  16.741  0.00  0.00    -0.305 NA
ATOM     29  H   UNL     1      -8.315  -7.988  17.620  0.00  0.00    +0.123 HD
BRANCH   8  20
ATOM     20  C   UNL     1      -8.721  -9.463  16.283  0.00  0.00    +0.116 C 
BRANCH  20  21
ATOM     21  C   UNL     1      -7.299  -9.841  15.959  0.00  0.00    -0.033 A 
ATOM     22  C   UNL     1      -6.909 -10.010  14.630  0.00  0.00    +0.007 A 
ATOM     23  C   UNL     1      -6.375 -10.023  16.986  0.00  0.00    +0.007 A 
ATOM     24  C   UNL     1      -4.667 -10.542  15.358  0.00  0.00    +0.088 A 
ATOM     25  C   UNL     1      -5.593 -10.361  14.329  0.00  0.00    +0.027 A 
ATOM     26  C   UNL     1      -5.058 -10.373  16.686  0.00  0.00    +0.027 A 
BRANCH  24   1
ATOM      1  S   UNL     1      -3.019 -10.977  14.981  0.00  0.00    -0.006 S 
ATOM      5  O   UNL     1      -2.632 -10.327  13.736  0.00  0.00    -0.170 OA
ATOM      6  O   UNL     1      -2.216 -10.776  16.180  0.00  0.00    -0.170 OA
ATOM     27  C   UNL     1      -3.086 -12.724  14.655  0.00  0.00    +0.200 C 
ENDBRANCH  24   1
ENDBRANCH  20  21
ENDBRANCH   8  20
ENDBRANCH  12   8
BRANCH   9  18
ATOM     18  C   UNL     1     -13.176  -7.083  14.806  0.00  0.00    +0.138 C 
BRANCH  18   7
ATOM      4  O   UNL     1     -12.451  -6.022  12.203  0.00  0.00    -0.276 OA
ATOM      7  N   UNL     1     -13.306  -5.729  14.349  0.00  0.00    -0.313 N 
ATOM     19  C   UNL     1     -12.931  -5.308  13.078  0.00  0.00    +0.216 C 
ATOM     28  H   UNL     1     -13.697  -5.053  14.999  0.00  0.00    +0.149 HD
BRANCH  19  11
ATOM     11  C   UNL     1     -13.197  -3.851  12.854  0.00  0.00    +0.075 C 
ATOM     13  C   UNL     1     -12.759  -3.433  11.449  0.00  0.00    +0.013 C 
ATOM     14  C   UNL     1     -14.700  -3.566  12.937  0.00  0.00    +0.013 C 
ATOM     15  C   UNL     1     -14.042  -3.426  10.632  0.00  0.00    +0.001 C 
ATOM     16  C   UNL     1     -15.071  -2.899  11.616  0.00  0.00    +0.001 C 
ENDBRANCH  19  11
ENDBRANCH  18   7
ENDBRANCH   9  18
TORSDOF 8
ENDMDL
MODEL 10
REMARK VINA RESULT:      -6.1      5.980      7.778
REMARK  Name = 75536564
REMARK  9 active torsions:
REMARK  status: ('A' for Active; 'I' for Inactive)
REMARK    1  A    between atoms: S_1  and  C_24
REMARK    2  A    between atoms: S_1  and  C_27
REMARK    3  A    between atoms: O_3  and  C_10
REMARK    4  A    between atoms: N_7  and  C_18
REMARK    5  A    between atoms: N_8  and  C_12
REMARK    6  A    between atoms: N_8  and  C_20
REMARK    7  A    between atoms: C_9  and  C_18
REMARK    8  A    between atoms: C_11  and  C_19
REMARK    9  A    between atoms: C_20  and  C_21
REMARK                            x       y       z     vdW  Elec       q    Type
REMARK                         _______ _______ _______ _____ _____    ______ ____
ROOT
ATOM      2  O   UNL     1     -14.211  10.036  33.138  0.00  0.00    -0.371 OA
ATOM      9  C   UNL     1     -12.903   9.727  32.630  0.00  0.00    +0.165 C 
ATOM     10  C   UNL     1     -12.999   8.326  32.042  0.00  0.00    +0.164 C 
ATOM     12  C   UNL     1     -13.983   7.675  32.998  0.00  0.00    +0.111 C 
ATOM     17  C   UNL     1     -14.962   8.812  33.241  0.00  0.00    +0.181 C 
ENDROOT
BRANCH  10   3
ATOM      3  O   UNL     1     -11.743   7.675  32.025  0.00  0.00    -0.388 OA
ATOM     30  H   UNL     1     -11.556   7.393  31.114  0.00  0.00    +0.210 HD
ENDBRANCH  10   3
BRANCH  12   8
ATOM      8  N   UNL     1     -14.620   6.485  32.458  0.00  0.00    -0.305 NA
ATOM     29  H   UNL     1     -14.406   6.415  31.463  0.00  0.00    +0.123 HD
BRANCH   8  20
ATOM     20  C   UNL     1     -14.140   5.283  33.129  0.00  0.00    +0.116 C 
BRANCH  20  21
ATOM     21  C   UNL     1     -14.406   4.044  32.316  0.00  0.00    -0.033 A 
ATOM     22  C   UNL     1     -13.752   2.851  32.629  0.00  0.00    +0.007 A 
ATOM     23  C   UNL     1     -15.305   4.087  31.251  0.00  0.00    +0.007 A 
ATOM     24  C   UNL     1     -14.898   1.747  30.812  0.00  0.00    +0.088 A 
ATOM     25  C   UNL     1     -13.998   1.703  31.877  0.00  0.00    +0.027 A 
ATOM     26  C   UNL     1     -15.552   2.939  30.498  0.00  0.00    +0.027 A 
BRANCH  24   1
ATOM      1  S   UNL     1     -15.209   0.308  29.873  0.00  0.00    -0.006 S 
ATOM      5  O   UNL     1     -15.934  -0.647  30.699  0.00  0.00    -0.170 OA
ATOM      6  O   UNL     1     -15.763   0.720  28.591  0.00  0.00    -0.170 OA
ATOM     27  C   UNL     1     -13.598  -0.383  29.575  0.00  0.00    +0.200 C 
ENDBRANCH  24   1
ENDBRANCH  20  21
ENDBRANCH   8  20
ENDBRANCH  12   8
BRANCH   9  18
ATOM     18  C   UNL     1     -12.486  10.777  31.614  0.00  0.00    +0.138 C 
BRANCH  18   7
ATOM      4  O   UNL     1     -10.865  11.750  29.412  0.00  0.00    -0.276 OA
ATOM      7  N   UNL     1     -12.377  10.216  30.298  0.00  0.00    -0.313 N 
ATOM     19  C   UNL     1     -11.570  10.751  29.300  0.00  0.00    +0.216 C 
ATOM     28  H   UNL     1     -12.921   9.382  30.100  0.00  0.00    +0.149 HD
BRANCH  19  11
ATOM     11  C   UNL     1     -11.623   9.956  28.031  0.00  0.00    +0.075 C 
ATOM     13  C   UNL     1     -12.854  10.339  27.206  0.00  0.00    +0.013 C 
ATOM     14  C   UNL     1     -10.405  10.273  27.156  0.00  0.00    +0.013 C 
ATOM     15  C   UNL     1     -12.328  11.307  26.157  0.00  0.00    +0.001 C 
ATOM     16  C   UNL     1     -10.965  10.733  25.814  0.00  0.00    +0.001 C 
ENDBRANCH  19  11
ENDBRANCH  18   7
ENDBRANCH   9  18
TORSDOF 8
ENDMDL
