MODEL 1
REMARK VINA RESULT:      -8.9      0.000      0.000
REMARK  Name = 7674781
REMARK  2 active torsions:
REMARK  status: ('A' for Active; 'I' for Inactive)
REMARK    1  A    between atoms: C_14  and  C_19
REMARK    2  A    between atoms: C_16  and  C_20
REMARK                            x       y       z     vdW  Elec       q    Type
REMARK                         _______ _______ _______ _____ _____    ______ ____
ROOT
ATOM      1  O   UNL     1      10.846   8.986  17.250  0.00  0.00    -0.268 OA
ATOM      2  O   UNL     1      11.551  11.778  21.403  0.00  0.00    -0.268 OA
ATOM      3  N   UNL     1      12.058   8.223  19.104  0.00  0.00    -0.311 N 
ATOM      4  N   UNL     1      12.443   9.671  21.879  0.00  0.00    -0.295 N 
ATOM      7  C   UNL     1      10.913   7.788  21.360  0.00  0.00    +0.027 C 
ATOM      8  C   UNL     1      13.342   7.477  21.130  0.00  0.00    +0.054 C 
ATOM      9  C   UNL     1      12.048   6.800  21.580  0.00  0.00    +0.018 C 
ATOM     10  C   UNL     1      10.806   8.078  19.862  0.00  0.00    +0.130 C 
ATOM     11  C   UNL     1      11.144   9.070  22.178  0.00  0.00    +0.113 C 
ATOM     12  C   UNL     1      13.582   8.747  21.976  0.00  0.00    +0.117 C 
ATOM     13  C   UNL     1      13.304   7.838  19.641  0.00  0.00    +0.034 A 
ATOM     14  C   UNL     1      14.410   7.835  18.850  0.00  0.00    +0.002 A 
ATOM     15  C   UNL     1      11.909   8.652  17.772  0.00  0.00    +0.252 A 
ATOM     16  C   UNL     1      12.507  11.009  21.483  0.00  0.00    +0.266 C 
ATOM     17  C   UNL     1      14.293   8.276  17.471  0.00  0.00    +0.015 A 
ATOM     18  C   UNL     1      13.136   8.681  16.947  0.00  0.00    +0.071 A 
ENDROOT
BRANCH  14  19
ATOM     19  C   UNL     1      15.685   7.415  19.368  0.00  0.00    -0.016 A 
ATOM     21  C   UNL     1      16.364   8.228  20.272  0.00  0.00    +0.017 A 
ATOM     22  C   UNL     1      16.228   6.203  18.964  0.00  0.00    +0.009 A 
ATOM     23  C   UNL     1      17.608   7.833  20.788  0.00  0.00    -0.017 A 
ATOM     24  C   UNL     1      17.464   5.795  19.466  0.00  0.00    +0.009 A 
ATOM     25  C   UNL     1      18.167   6.598  20.379  0.00  0.00    -0.018 A 
ATOM     27  C   UNL     1      18.312   8.635  21.700  0.00  0.00    +0.008 A 
ATOM     28  C   UNL     1      19.412   6.203  20.895  0.00  0.00    +0.008 A 
ATOM     30  C   UNL     1      19.548   8.227  22.203  0.00  0.00    +0.001 A 
ATOM     31  C   UNL     1      20.097   7.014  21.801  0.00  0.00    +0.001 A 
ENDBRANCH  14  19
BRANCH  16  20
ATOM      5  N   UNL     1      14.210  11.339  19.840  0.00  0.00    -0.247 NA
ATOM      6  N   UNL     1      15.779  12.768  21.673  0.00  0.00    -0.259 NA
ATOM     20  C   UNL     1      13.814  11.559  21.105  0.00  0.00    +0.144 A 
ATOM     26  C   UNL     1      14.577  12.259  22.008  0.00  0.00    +0.143 A 
ATOM     29  C   UNL     1      15.412  11.850  19.506  0.00  0.00    +0.131 A 
ATOM     32  C   UNL     1      16.182  12.552  20.407  0.00  0.00    +0.130 A 
ENDBRANCH  16  20
TORSDOF 2
ENDMDL
MODEL 2
REMARK VINA RESULT:      -7.8     13.661     16.735
REMARK  Name = 7674781
REMARK  2 active torsions:
REMARK  status: ('A' for Active; 'I' for Inactive)
REMARK    1  A    between atoms: C_14  and  C_19
REMARK    2  A    between atoms: C_16  and  C_20
REMARK                            x       y       z     vdW  Elec       q    Type
REMARK                         _______ _______ _______ _____ _____    ______ ____
ROOT
ATOM      1  O   UNL     1       7.147   9.309   4.743  0.00  0.00    -0.268 OA
ATOM      2  O   UNL     1      11.299  10.018   7.534  0.00  0.00    -0.268 OA
ATOM      3  N   UNL     1       8.701   7.608   5.162  0.00  0.00    -0.311 N 
ATOM      4  N   UNL     1      11.229   7.734   7.044  0.00  0.00    -0.295 N 
ATOM      7  C   UNL     1       9.043   6.666   7.525  0.00  0.00    +0.027 C 
ATOM      8  C   UNL     1      10.413   5.837   5.659  0.00  0.00    +0.054 C 
ATOM      9  C   UNL     1       9.494   5.407   6.801  0.00  0.00    +0.018 C 
ATOM     10  C   UNL     1       8.229   7.520   6.552  0.00  0.00    +0.130 C 
ATOM     11  C   UNL     1      10.253   7.430   8.089  0.00  0.00    +0.113 C 
ATOM     12  C   UNL     1      11.640   6.578   6.234  0.00  0.00    +0.117 C 
ATOM     13  C   UNL     1       9.684   6.734   4.652  0.00  0.00    +0.034 A 
ATOM     14  C   UNL     1       9.971   6.741   3.322  0.00  0.00    +0.002 A 
ATOM     15  C   UNL     1       8.020   8.534   4.352  0.00  0.00    +0.252 A 
ATOM     16  C   UNL     1      11.645   9.054   6.855  0.00  0.00    +0.266 C 
ATOM     17  C   UNL     1       9.289   7.687   2.458  0.00  0.00    +0.015 A 
ATOM     18  C   UNL     1       8.383   8.550   2.918  0.00  0.00    +0.071 A 
ENDROOT
BRANCH  14  19
ATOM     19  C   UNL     1      10.946   5.836   2.776  0.00  0.00    -0.016 A 
ATOM     21  C   UNL     1      12.202   6.313   2.407  0.00  0.00    +0.017 A 
ATOM     22  C   UNL     1      10.629   4.493   2.619  0.00  0.00    +0.009 A 
ATOM     23  C   UNL     1      13.165   5.443   1.873  0.00  0.00    -0.017 A 
ATOM     24  C   UNL     1      11.575   3.614   2.090  0.00  0.00    +0.009 A 
ATOM     25  C   UNL     1      12.847   4.073   1.712  0.00  0.00    -0.018 A 
ATOM     27  C   UNL     1      14.437   5.902   1.494  0.00  0.00    +0.008 A 
ATOM     28  C   UNL     1      13.811   3.203   1.177  0.00  0.00    +0.008 A 
ATOM     30  C   UNL     1      15.382   5.023   0.965  0.00  0.00    +0.001 A 
ATOM     31  C   UNL     1      15.070   3.677   0.806  0.00  0.00    +0.001 A 
ENDBRANCH  14  19
BRANCH  16  20
ATOM      5  N   UNL     1      11.989   9.560   4.545  0.00  0.00    -0.247 NA
ATOM      6  N   UNL     1      14.767   9.643   4.920  0.00  0.00    -0.259 NA
ATOM     20  C   UNL     1      12.558   9.341   5.743  0.00  0.00    +0.144 A 
ATOM     26  C   UNL     1      13.918   9.382   5.933  0.00  0.00    +0.143 A 
ATOM     29  C   UNL     1      12.839   9.823   3.532  0.00  0.00    +0.131 A 
ATOM     32  C   UNL     1      14.203   9.864   3.716  0.00  0.00    +0.130 A 
ENDBRANCH  16  20
TORSDOF 2
ENDMDL
MODEL 3
REMARK VINA RESULT:      -7.5      2.311      4.311
REMARK  Name = 7674781
REMARK  2 active torsions:
REMARK  status: ('A' for Active; 'I' for Inactive)
REMARK    1  A    between atoms: C_14  and  C_19
REMARK    2  A    between atoms: C_16  and  C_20
REMARK                            x       y       z     vdW  Elec       q    Type
REMARK                         _______ _______ _______ _____ _____    ______ ____
ROOT
ATOM      1  O   UNL     1      13.067  10.041  16.207  0.00  0.00    -0.268 OA
ATOM      2  O   UNL     1      10.544   8.079  20.121  0.00  0.00    -0.268 OA
ATOM      3  N   UNL     1      14.130   9.279  18.150  0.00  0.00    -0.311 N 
ATOM      4  N   UNL     1      12.814   7.817  20.615  0.00  0.00    -0.295 N 
ATOM      7  C   UNL     1      14.132   6.791  18.781  0.00  0.00    +0.027 C 
ATOM      8  C   UNL     1      15.195   8.440  20.265  0.00  0.00    +0.054 C 
ATOM      9  C   UNL     1      15.422   7.128  19.515  0.00  0.00    +0.018 C 
ATOM     10  C   UNL     1      13.858   7.889  17.753  0.00  0.00    +0.130 C 
ATOM     11  C   UNL     1      12.970   6.630  19.775  0.00  0.00    +0.113 C 
ATOM     12  C   UNL     1      14.046   8.262  21.281  0.00  0.00    +0.117 C 
ATOM     13  C   UNL     1      14.874   9.592  19.306  0.00  0.00    +0.034 A 
ATOM     14  C   UNL     1      15.243  10.879  19.547  0.00  0.00    +0.002 A 
ATOM     15  C   UNL     1      13.706  10.260  17.236  0.00  0.00    +0.252 A 
ATOM     16  C   UNL     1      11.573   8.454  20.680  0.00  0.00    +0.266 C 
ATOM     17  C   UNL     1      14.818  11.918  18.625  0.00  0.00    +0.015 A 
ATOM     18  C   UNL     1      14.083  11.657  17.544  0.00  0.00    +0.071 A 
ENDROOT
BRANCH  14  19
ATOM     19  C   UNL     1      16.029  11.216  20.703  0.00  0.00    -0.016 A 
ATOM     21  C   UNL     1      15.394  11.599  21.882  0.00  0.00    +0.017 A 
ATOM     22  C   UNL     1      17.414  11.158  20.635  0.00  0.00    +0.009 A 
ATOM     23  C   UNL     1      16.147  11.931  23.019  0.00  0.00    -0.017 A 
ATOM     24  C   UNL     1      18.178  11.484  21.756  0.00  0.00    +0.009 A 
ATOM     25  C   UNL     1      17.560  11.872  22.956  0.00  0.00    -0.018 A 
ATOM     27  C   UNL     1      15.530  12.319  24.219  0.00  0.00    +0.008 A 
ATOM     28  C   UNL     1      18.313  12.204  24.094  0.00  0.00    +0.008 A 
ATOM     30  C   UNL     1      16.294  12.645  25.340  0.00  0.00    +0.001 A 
ATOM     31  C   UNL     1      17.682  12.588  25.278  0.00  0.00    +0.001 A 
ENDBRANCH  14  19
BRANCH  16  20
ATOM      5  N   UNL     1      11.843  10.823  20.839  0.00  0.00    -0.247 NA
ATOM      6  N   UNL     1      10.912  10.808  23.484  0.00  0.00    -0.259 NA
ATOM     20  C   UNL     1      11.469   9.692  21.461  0.00  0.00    +0.144 A 
ATOM     26  C   UNL     1      11.011   9.678  22.756  0.00  0.00    +0.143 A 
ATOM     29  C   UNL     1      11.743  11.953  21.567  0.00  0.00    +0.131 A 
ATOM     32  C   UNL     1      11.286  11.945  22.867  0.00  0.00    +0.130 A 
ENDBRANCH  16  20
TORSDOF 2
ENDMDL
MODEL 4
REMARK VINA RESULT:      -7.3     27.838     29.752
REMARK  Name = 7674781
REMARK  2 active torsions:
REMARK  status: ('A' for Active; 'I' for Inactive)
REMARK    1  A    between atoms: C_14  and  C_19
REMARK    2  A    between atoms: C_16  and  C_20
REMARK                            x       y       z     vdW  Elec       q    Type
REMARK                         _______ _______ _______ _____ _____    ______ ____
ROOT
ATOM      1  O   UNL     1      -6.986 -15.076  17.254  0.00  0.00    -0.268 OA
ATOM      2  O   UNL     1      -8.413 -10.671  19.279  0.00  0.00    -0.268 OA
ATOM      3  N   UNL     1      -5.981 -13.035  16.693  0.00  0.00    -0.311 N 
ATOM      4  N   UNL     1      -6.531 -10.205  17.973  0.00  0.00    -0.295 N 
ATOM      7  C   UNL     1      -4.606 -11.709  18.408  0.00  0.00    +0.027 C 
ATOM      8  C   UNL     1      -4.956 -10.808  16.146  0.00  0.00    +0.054 C 
ATOM      9  C   UNL     1      -3.891 -11.153  17.186  0.00  0.00    +0.018 C 
ATOM     10  C   UNL     1      -5.319 -13.002  18.006  0.00  0.00    +0.130 C 
ATOM     11  C   UNL     1      -5.582 -10.670  18.984  0.00  0.00    +0.113 C 
ATOM     12  C   UNL     1      -5.915  -9.742  16.722  0.00  0.00    +0.117 C 
ATOM     13  C   UNL     1      -5.748 -12.047  15.714  0.00  0.00    +0.034 A 
ATOM     14  C   UNL     1      -6.251 -12.205  14.460  0.00  0.00    +0.002 A 
ATOM     15  C   UNL     1      -6.761 -14.179  16.442  0.00  0.00    +0.252 A 
ATOM     16  C   UNL     1      -7.902 -10.283  18.230  0.00  0.00    +0.266 C 
ATOM     17  C   UNL     1      -7.063 -13.372  14.167  0.00  0.00    +0.015 A 
ATOM     18  C   UNL     1      -7.332 -14.303  15.083  0.00  0.00    +0.071 A 
ENDROOT
BRANCH  14  19
ATOM     19  C   UNL     1      -5.998 -11.226  13.437  0.00  0.00    -0.016 A 
ATOM     21  C   UNL     1      -4.813 -11.280  12.707  0.00  0.00    +0.017 A 
ATOM     22  C   UNL     1      -6.936 -10.234  13.185  0.00  0.00    +0.009 A 
ATOM     23  C   UNL     1      -4.551 -10.332  11.706  0.00  0.00    -0.017 A 
ATOM     24  C   UNL     1      -6.693  -9.284  12.193  0.00  0.00    +0.009 A 
ATOM     25  C   UNL     1      -5.505  -9.319  11.444  0.00  0.00    -0.018 A 
ATOM     27  C   UNL     1      -3.364 -10.366  10.956  0.00  0.00    +0.008 A 
ATOM     28  C   UNL     1      -5.243  -8.371  10.442  0.00  0.00    +0.008 A 
ATOM     30  C   UNL     1      -3.120  -9.416   9.964  0.00  0.00    +0.001 A 
ATOM     31  C   UNL     1      -4.057  -8.420   9.708  0.00  0.00    +0.001 A 
ENDBRANCH  14  19
BRANCH  16  20
ATOM      5  N   UNL     1      -9.167 -10.851  16.284  0.00  0.00    -0.247 NA
ATOM      6  N   UNL     1     -10.173  -8.239  16.108  0.00  0.00    -0.259 NA
ATOM     20  C   UNL     1      -8.831  -9.892  17.163  0.00  0.00    +0.144 A 
ATOM     26  C   UNL     1      -9.320  -8.611  17.084  0.00  0.00    +0.143 A 
ATOM     29  C   UNL     1     -10.021 -10.479  15.310  0.00  0.00    +0.131 A 
ATOM     32  C   UNL     1     -10.515  -9.196  15.224  0.00  0.00    +0.130 A 
ENDBRANCH  16  20
TORSDOF 2
ENDMDL
MODEL 5
REMARK VINA RESULT:      -7.2     26.482     29.739
REMARK  Name = 7674781
REMARK  2 active torsions:
REMARK  status: ('A' for Active; 'I' for Inactive)
REMARK    1  A    between atoms: C_14  and  C_19
REMARK    2  A    between atoms: C_16  and  C_20
REMARK                            x       y       z     vdW  Elec       q    Type
REMARK                         _______ _______ _______ _____ _____    ______ ____
ROOT
ATOM      1  O   UNL     1      -1.924 -10.689  16.660  0.00  0.00    -0.268 OA
ATOM      2  O   UNL     1      -4.724 -14.831  15.924  0.00  0.00    -0.268 OA
ATOM      3  N   UNL     1      -3.746 -10.745  15.190  0.00  0.00    -0.311 N 
ATOM      4  N   UNL     1      -5.774 -13.117  14.729  0.00  0.00    -0.295 N 
ATOM      7  C   UNL     1      -6.145 -11.050  16.049  0.00  0.00    +0.027 C 
ATOM      8  C   UNL     1      -5.714 -10.886  13.634  0.00  0.00    +0.054 C 
ATOM      9  C   UNL     1      -6.539 -10.307  14.782  0.00  0.00    +0.018 C 
ATOM     10  C   UNL     1      -4.668 -10.774  16.335  0.00  0.00    +0.130 C 
ATOM     11  C   UNL     1      -6.432 -12.554  15.907  0.00  0.00    +0.113 C 
ATOM     12  C   UNL     1      -6.029 -12.391  13.478  0.00  0.00    +0.117 C 
ATOM     13  C   UNL     1      -4.211 -10.686  13.859  0.00  0.00    +0.034 A 
ATOM     14  C   UNL     1      -3.329 -10.495  12.842  0.00  0.00    +0.002 A 
ATOM     15  C   UNL     1      -2.381 -10.656  15.518  0.00  0.00    +0.252 A 
ATOM     16  C   UNL     1      -4.936 -14.225  14.875  0.00  0.00    +0.266 C 
ATOM     17  C   UNL     1      -1.911 -10.402  13.145  0.00  0.00    +0.015 A 
ATOM     18  C   UNL     1      -1.440 -10.492  14.388  0.00  0.00    +0.071 A 
ENDROOT
BRANCH  14  19
ATOM     19  C   UNL     1      -3.784 -10.399  11.481  0.00  0.00    -0.016 A 
ATOM     21  C   UNL     1      -3.750 -11.524  10.660  0.00  0.00    +0.017 A 
ATOM     22  C   UNL     1      -4.255  -9.187  10.995  0.00  0.00    +0.009 A 
ATOM     23  C   UNL     1      -4.191 -11.447   9.330  0.00  0.00    -0.017 A 
ATOM     24  C   UNL     1      -4.698  -9.093   9.675  0.00  0.00    +0.009 A 
ATOM     25  C   UNL     1      -4.673 -10.213   8.829  0.00  0.00    -0.018 A 
ATOM     27  C   UNL     1      -4.166 -12.568   8.484  0.00  0.00    +0.008 A 
ATOM     28  C   UNL     1      -5.114 -10.138   7.499  0.00  0.00    +0.008 A 
ATOM     30  C   UNL     1      -4.609 -12.474   7.164  0.00  0.00    +0.001 A 
ATOM     31  C   UNL     1      -5.081 -11.261   6.672  0.00  0.00    +0.001 A 
ENDBRANCH  14  19
BRANCH  16  20
ATOM      5  N   UNL     1      -4.839 -15.664  12.969  0.00  0.00    -0.247 NA
ATOM      6  N   UNL     1      -2.317 -14.658  12.269  0.00  0.00    -0.259 NA
ATOM     20  C   UNL     1      -4.220 -14.714  13.691  0.00  0.00    +0.144 A 
ATOM     26  C   UNL     1      -2.985 -14.216  13.353  0.00  0.00    +0.143 A 
ATOM     29  C   UNL     1      -4.171 -16.104  11.884  0.00  0.00    +0.131 A 
ATOM     32  C   UNL     1      -2.932 -15.609  11.541  0.00  0.00    +0.130 A 
ENDBRANCH  16  20
TORSDOF 2
ENDMDL
MODEL 6
REMARK VINA RESULT:      -7.2     25.715     28.517
REMARK  Name = 7674781
REMARK  2 active torsions:
REMARK  status: ('A' for Active; 'I' for Inactive)
REMARK    1  A    between atoms: C_14  and  C_19
REMARK    2  A    between atoms: C_16  and  C_20
REMARK                            x       y       z     vdW  Elec       q    Type
REMARK                         _______ _______ _______ _____ _____    ______ ____
ROOT
ATOM      1  O   UNL     1     -10.662  12.964  17.735  0.00  0.00    -0.268 OA
ATOM      2  O   UNL     1     -14.254  11.069  14.729  0.00  0.00    -0.268 OA
ATOM      3  N   UNL     1     -11.128  10.672  17.603  0.00  0.00    -0.311 N 
ATOM      4  N   UNL     1     -13.145   9.230  15.653  0.00  0.00    -0.295 N 
ATOM      7  C   UNL     1     -10.675   9.341  15.456  0.00  0.00    +0.027 C 
ATOM      8  C   UNL     1     -11.689   8.231  17.403  0.00  0.00    +0.054 C 
ATOM      9  C   UNL     1     -10.543   8.152  16.395  0.00  0.00    +0.018 C 
ATOM     10  C   UNL     1     -10.506  10.624  16.271  0.00  0.00    +0.130 C 
ATOM     11  C   UNL     1     -12.024   9.302  14.718  0.00  0.00    +0.113 C 
ATOM     12  C   UNL     1     -13.040   8.162  16.656  0.00  0.00    +0.117 C 
ATOM     13  C   UNL     1     -11.617   9.513  18.240  0.00  0.00    +0.034 A 
ATOM     14  C   UNL     1     -12.033   9.577  19.534  0.00  0.00    +0.002 A 
ATOM     15  C   UNL     1     -11.089  11.926  18.240  0.00  0.00    +0.252 A 
ATOM     16  C   UNL     1     -14.170  10.177  15.570  0.00  0.00    +0.266 C 
ATOM     17  C   UNL     1     -12.010  10.856  20.221  0.00  0.00    +0.015 A 
ATOM     18  C   UNL     1     -11.588  11.975  19.632  0.00  0.00    +0.071 A 
ENDROOT
BRANCH  14  19
ATOM     19  C   UNL     1     -12.505   8.400  20.214  0.00  0.00    -0.016 A 
ATOM     21  C   UNL     1     -13.852   8.292  20.553  0.00  0.00    +0.017 A 
ATOM     22  C   UNL     1     -11.615   7.381  20.526  0.00  0.00    +0.009 A 
ATOM     23  C   UNL     1     -14.328   7.150  21.216  0.00  0.00    -0.017 A 
ATOM     24  C   UNL     1     -12.072   6.239  21.185  0.00  0.00    +0.009 A 
ATOM     25  C   UNL     1     -13.425   6.107  21.537  0.00  0.00    -0.018 A 
ATOM     27  C   UNL     1     -15.681   7.018  21.568  0.00  0.00    +0.008 A 
ATOM     28  C   UNL     1     -13.903   4.966  22.200  0.00  0.00    +0.008 A 
ATOM     30  C   UNL     1     -16.138   5.876  22.226  0.00  0.00    +0.001 A 
ATOM     31  C   UNL     1     -15.250   4.853  22.543  0.00  0.00    +0.001 A 
ENDBRANCH  14  19
BRANCH  16  20
ATOM      5  N   UNL     1     -14.996  10.781  17.730  0.00  0.00    -0.247 NA
ATOM      6  N   UNL     1     -17.399   9.416  17.253  0.00  0.00    -0.259 NA
ATOM     20  C   UNL     1     -15.237  10.133  16.577  0.00  0.00    +0.144 A 
ATOM     26  C   UNL     1     -16.412   9.464  16.337  0.00  0.00    +0.143 A 
ATOM     29  C   UNL     1     -15.983  10.733  18.646  0.00  0.00    +0.131 A 
ATOM     32  C   UNL     1     -17.164  10.063  18.412  0.00  0.00    +0.130 A 
ENDBRANCH  16  20
TORSDOF 2
ENDMDL
MODEL 7
REMARK VINA RESULT:      -6.8     28.235     31.394
REMARK  Name = 7674781
REMARK  2 active torsions:
REMARK  status: ('A' for Active; 'I' for Inactive)
REMARK    1  A    between atoms: C_14  and  C_19
REMARK    2  A    between atoms: C_16  and  C_20
REMARK                            x       y       z     vdW  Elec       q    Type
REMARK                         _______ _______ _______ _____ _____    ______ ____
ROOT
ATOM      1  O   UNL     1      -3.711 -11.111  17.382  0.00  0.00    -0.268 OA
ATOM      2  O   UNL     1      -7.073 -10.062  13.758  0.00  0.00    -0.268 OA
ATOM      3  N   UNL     1      -5.781 -12.196  17.217  0.00  0.00    -0.311 N 
ATOM      4  N   UNL     1      -7.937 -11.887  14.936  0.00  0.00    -0.295 N 
ATOM      7  C   UNL     1      -6.322 -13.744  15.243  0.00  0.00    +0.027 C 
ATOM      8  C   UNL     1      -8.018 -13.313  16.971  0.00  0.00    +0.054 C 
ATOM      9  C   UNL     1      -7.275 -14.416  16.220  0.00  0.00    +0.018 C 
ATOM     10  C   UNL     1      -5.298 -12.936  16.042  0.00  0.00    +0.130 C 
ATOM     11  C   UNL     1      -7.097 -12.866  14.247  0.00  0.00    +0.113 C 
ATOM     12  C   UNL     1      -8.818 -12.452  15.968  0.00  0.00    +0.117 C 
ATOM     13  C   UNL     1      -7.057 -12.427  17.772  0.00  0.00    +0.034 A 
ATOM     14  C   UNL     1      -7.398 -11.842  18.952  0.00  0.00    +0.002 A 
ATOM     15  C   UNL     1      -4.840 -11.338  17.817  0.00  0.00    +0.252 A 
ATOM     16  C   UNL     1      -7.811 -10.532  14.622  0.00  0.00    +0.266 C 
ATOM     17  C   UNL     1      -6.452 -10.947  19.596  0.00  0.00    +0.015 A 
ATOM     18  C   UNL     1      -5.254 -10.681  19.075  0.00  0.00    +0.071 A 
ENDROOT
BRANCH  14  19
ATOM     19  C   UNL     1      -8.682 -12.089  19.552  0.00  0.00    -0.016 A 
ATOM     21  C   UNL     1      -9.647 -11.086  19.556  0.00  0.00    +0.017 A 
ATOM     22  C   UNL     1      -8.949 -13.327  20.122  0.00  0.00    +0.009 A 
ATOM     23  C   UNL     1     -10.905 -11.311  20.137  0.00  0.00    -0.017 A 
ATOM     24  C   UNL     1     -10.194 -13.568  20.704  0.00  0.00    +0.009 A 
ATOM     25  C   UNL     1     -11.183 -12.572  20.719  0.00  0.00    -0.018 A 
ATOM     27  C   UNL     1     -11.894 -10.315  20.153  0.00  0.00    +0.008 A 
ATOM     28  C   UNL     1     -12.441 -12.796  21.300  0.00  0.00    +0.008 A 
ATOM     30  C   UNL     1     -13.139 -10.556  20.735  0.00  0.00    +0.001 A 
ATOM     31  C   UNL     1     -13.412 -11.794  21.308  0.00  0.00    +0.001 A 
ENDBRANCH  14  19
BRANCH  16  20
ATOM      5  N   UNL     1      -9.714  -9.096  14.797  0.00  0.00    -0.247 NA
ATOM      6  N   UNL     1      -8.934  -8.283  17.365  0.00  0.00    -0.259 NA
ATOM     20  C   UNL     1      -8.603  -9.564  15.391  0.00  0.00    +0.144 A 
ATOM     26  C   UNL     1      -8.216  -9.171  16.649  0.00  0.00    +0.143 A 
ATOM     29  C   UNL     1     -10.432  -8.208  15.513  0.00  0.00    +0.131 A 
ATOM     32  C   UNL     1     -10.048  -7.809  16.775  0.00  0.00    +0.130 A 
ENDBRANCH  16  20
TORSDOF 2
ENDMDL
MODEL 8
REMARK VINA RESULT:      -6.8      2.196      4.523
REMARK  Name = 7674781
REMARK  2 active torsions:
REMARK  status: ('A' for Active; 'I' for Inactive)
REMARK    1  A    between atoms: C_14  and  C_19
REMARK    2  A    between atoms: C_16  and  C_20
REMARK                            x       y       z     vdW  Elec       q    Type
REMARK                         _______ _______ _______ _____ _____    ______ ____
ROOT
ATOM      1  O   UNL     1      13.185   8.476  16.668  0.00  0.00    -0.268 OA
ATOM      2  O   UNL     1      11.250   7.523  21.238  0.00  0.00    -0.268 OA
ATOM      3  N   UNL     1      14.431   8.674  18.642  0.00  0.00    -0.311 N 
ATOM      4  N   UNL     1      13.529   7.924  21.569  0.00  0.00    -0.295 N 
ATOM      7  C   UNL     1      15.010   6.619  20.067  0.00  0.00    +0.027 C 
ATOM      8  C   UNL     1      15.700   8.863  20.803  0.00  0.00    +0.054 C 
ATOM      9  C   UNL     1      16.203   7.449  20.516  0.00  0.00    +0.018 C 
ATOM     10  C   UNL     1      14.474   7.209  18.761  0.00  0.00    +0.130 C 
ATOM     11  C   UNL     1      13.934   6.578  21.164  0.00  0.00    +0.113 C 
ATOM     12  C   UNL     1      14.640   8.816  21.926  0.00  0.00    +0.117 C 
ATOM     13  C   UNL     1      15.107   9.517  19.550  0.00  0.00    +0.034 A 
ATOM     14  C   UNL     1      15.178  10.854  19.308  0.00  0.00    +0.002 A 
ATOM     15  C   UNL     1      13.778   9.167  17.497  0.00  0.00    +0.252 A 
ATOM     16  C   UNL     1      12.177   8.273  21.537  0.00  0.00    +0.266 C 
ATOM     17  C   UNL     1      14.511  11.396  18.137  0.00  0.00    +0.015 A 
ATOM     18  C   UNL     1      13.833  10.629  17.283  0.00  0.00    +0.071 A 
ENDROOT
BRANCH  14  19
ATOM     19  C   UNL     1      15.890  11.726  20.203  0.00  0.00    -0.016 A 
ATOM     21  C   UNL     1      17.274  11.837  20.104  0.00  0.00    +0.017 A 
ATOM     22  C   UNL     1      15.191  12.452  21.158  0.00  0.00    +0.009 A 
ATOM     23  C   UNL     1      17.983  12.685  20.970  0.00  0.00    -0.017 A 
ATOM     24  C   UNL     1      15.879  13.300  22.027  0.00  0.00    +0.009 A 
ATOM     25  C   UNL     1      17.275  13.428  21.946  0.00  0.00    -0.018 A 
ATOM     27  C   UNL     1      19.379  12.813  20.890  0.00  0.00    +0.008 A 
ATOM     28  C   UNL     1      17.985  14.275  22.811  0.00  0.00    +0.008 A 
ATOM     30  C   UNL     1      20.068  13.661  21.758  0.00  0.00    +0.001 A 
ATOM     31  C   UNL     1      19.373  14.390  22.717  0.00  0.00    +0.001 A 
ENDBRANCH  14  19
BRANCH  16  20
ATOM      5  N   UNL     1      12.008  10.570  20.900  0.00  0.00    -0.247 NA
ATOM      6  N   UNL     1      10.953  11.246  23.409  0.00  0.00    -0.259 NA
ATOM     20  C   UNL     1      11.810   9.656  21.865  0.00  0.00    +0.144 A 
ATOM     26  C   UNL     1      11.293   9.980  23.096  0.00  0.00    +0.143 A 
ATOM     29  C   UNL     1      11.668  11.836  21.214  0.00  0.00    +0.131 A 
ATOM     32  C   UNL     1      11.149  12.168  22.446  0.00  0.00    +0.130 A 
ENDBRANCH  16  20
TORSDOF 2
ENDMDL
MODEL 9
REMARK VINA RESULT:      -6.8     14.084     17.330
REMARK  Name = 7674781
REMARK  2 active torsions:
REMARK  status: ('A' for Active; 'I' for Inactive)
REMARK    1  A    between atoms: C_14  and  C_19
REMARK    2  A    between atoms: C_16  and  C_20
REMARK                            x       y       z     vdW  Elec       q    Type
REMARK                         _______ _______ _______ _____ _____    ______ ____
ROOT
ATOM      1  O   UNL     1       8.658  11.179   4.703  0.00  0.00    -0.268 OA
ATOM      2  O   UNL     1      11.815   8.810   7.858  0.00  0.00    -0.268 OA
ATOM      3  N   UNL     1       9.034   8.868   4.625  0.00  0.00    -0.311 N 
ATOM      4  N   UNL     1      10.764   7.134   6.611  0.00  0.00    -0.295 N 
ATOM      7  C   UNL     1       8.293   7.330   6.542  0.00  0.00    +0.027 C 
ATOM      8  C   UNL     1       9.491   6.398   4.607  0.00  0.00    +0.054 C 
ATOM      9  C   UNL     1       8.234   6.258   5.464  0.00  0.00    +0.018 C 
ATOM     10  C   UNL     1       8.260   8.701   5.864  0.00  0.00    +0.130 C 
ATOM     11  C   UNL     1       9.544   7.151   7.417  0.00  0.00    +0.113 C 
ATOM     12  C   UNL     1      10.743   6.188   5.487  0.00  0.00    +0.117 C 
ATOM     13  C   UNL     1       9.558   7.765   3.918  0.00  0.00    +0.034 A 
ATOM     14  C   UNL     1      10.123   7.952   2.695  0.00  0.00    +0.002 A 
ATOM     15  C   UNL     1       9.108  10.185   4.134  0.00  0.00    +0.252 A 
ATOM     16  C   UNL     1      11.801   8.019   6.916  0.00  0.00    +0.266 C 
ATOM     17  C   UNL     1      10.220   9.299   2.160  0.00  0.00    +0.015 A 
ATOM     18  C   UNL     1       9.767  10.364   2.822  0.00  0.00    +0.071 A 
ENDROOT
BRANCH  14  19
ATOM     19  C   UNL     1      10.634   6.838   1.943  0.00  0.00    -0.016 A 
ATOM     21  C   UNL     1      11.969   6.466   2.080  0.00  0.00    +0.017 A 
ATOM     22  C   UNL     1       9.793   6.141   1.086  0.00  0.00    +0.009 A 
ATOM     23  C   UNL     1      12.483   5.380   1.354  0.00  0.00    -0.017 A 
ATOM     24  C   UNL     1      10.288   5.059   0.356  0.00  0.00    +0.009 A 
ATOM     25  C   UNL     1      11.630   4.666   0.478  0.00  0.00    -0.018 A 
ATOM     27  C   UNL     1      13.826   4.987   1.476  0.00  0.00    +0.008 A 
ATOM     28  C   UNL     1      12.145   3.580  -0.248  0.00  0.00    +0.008 A 
ATOM     30  C   UNL     1      14.320   3.905   0.746  0.00  0.00    +0.001 A 
ATOM     31  C   UNL     1      13.482   3.204  -0.114  0.00  0.00    +0.001 A 
ENDBRANCH  14  19
BRANCH  16  20
ATOM      5  N   UNL     1      12.881   8.797   4.931  0.00  0.00    -0.247 NA
ATOM      6  N   UNL     1      15.190   7.329   5.545  0.00  0.00    -0.259 NA
ATOM     20  C   UNL     1      12.977   8.040   6.037  0.00  0.00    +0.144 A 
ATOM     26  C   UNL     1      14.105   7.319   6.344  0.00  0.00    +0.143 A 
ATOM     29  C   UNL     1      13.966   8.807   4.132  0.00  0.00    +0.131 A 
ATOM     32  C   UNL     1      15.101   8.086   4.434  0.00  0.00    +0.130 A 
ENDBRANCH  16  20
TORSDOF 2
ENDMDL
MODEL 10
REMARK VINA RESULT:      -6.7     14.450     18.458
REMARK  Name = 7674781
REMARK  2 active torsions:
REMARK  status: ('A' for Active; 'I' for Inactive)
REMARK    1  A    between atoms: C_14  and  C_19
REMARK    2  A    between atoms: C_16  and  C_20
REMARK                            x       y       z     vdW  Elec       q    Type
REMARK                         _______ _______ _______ _____ _____    ______ ____
ROOT
ATOM      1  O   UNL     1      13.395   3.936   2.089  0.00  0.00    -0.268 OA
ATOM      2  O   UNL     1      13.745   6.579   6.382  0.00  0.00    -0.268 OA
ATOM      3  N   UNL     1      12.767   6.188   2.249  0.00  0.00    -0.311 N 
ATOM      4  N   UNL     1      13.100   8.104   4.732  0.00  0.00    -0.295 N 
ATOM      7  C   UNL     1      14.502   8.028   2.687  0.00  0.00    +0.027 C 
ATOM      8  C   UNL     1      12.117   8.601   2.503  0.00  0.00    +0.054 C 
ATOM      9  C   UNL     1      13.510   8.931   1.969  0.00  0.00    +0.018 C 
ATOM     10  C   UNL     1      14.184   6.576   2.328  0.00  0.00    +0.130 C 
ATOM     11  C   UNL     1      14.454   8.269   4.205  0.00  0.00    +0.113 C 
ATOM     12  C   UNL     1      12.068   8.873   4.023  0.00  0.00    +0.117 C 
ATOM     13  C   UNL     1      11.732   7.145   2.219  0.00  0.00    +0.034 A 
ATOM     14  C   UNL     1      10.452   6.750   1.980  0.00  0.00    +0.002 A 
ATOM     15  C   UNL     1      12.529   4.811   2.083  0.00  0.00    +0.252 A 
ATOM     16  C   UNL     1      12.878   7.221   5.791  0.00  0.00    +0.266 C 
ATOM     17  C   UNL     1      10.170   5.336   1.808  0.00  0.00    +0.015 A 
ATOM     18  C   UNL     1      11.123   4.406   1.869  0.00  0.00    +0.071 A 
ENDROOT
BRANCH  14  19
ATOM     19  C   UNL     1       9.386   7.713   1.912  0.00  0.00    -0.016 A 
ATOM     21  C   UNL     1       8.707   8.075   3.073  0.00  0.00    +0.017 A 
ATOM     22  C   UNL     1       9.041   8.275   0.690  0.00  0.00    +0.009 A 
ATOM     23  C   UNL     1       7.665   9.014   3.024  0.00  0.00    -0.017 A 
ATOM     24  C   UNL     1       8.007   9.210   0.623  0.00  0.00    +0.009 A 
ATOM     25  C   UNL     1       7.309   9.590   1.781  0.00  0.00    -0.018 A 
ATOM     27  C   UNL     1       6.966   9.394   4.181  0.00  0.00    +0.008 A 
ATOM     28  C   UNL     1       6.266  10.529   1.733  0.00  0.00    +0.008 A 
ATOM     30  C   UNL     1       5.932  10.329   4.114  0.00  0.00    +0.001 A 
ATOM     31  C   UNL     1       5.583  10.894   2.893  0.00  0.00    +0.001 A 
ENDBRANCH  14  19
BRANCH  16  20
ATOM      5  N   UNL     1      11.050   7.837   7.201  0.00  0.00    -0.247 NA
ATOM      6  N   UNL     1       9.450   5.812   6.104  0.00  0.00    -0.259 NA
ATOM     20  C   UNL     1      11.497   7.010   6.241  0.00  0.00    +0.144 A 
ATOM     26  C   UNL     1      10.719   6.016   5.699  0.00  0.00    +0.143 A 
ATOM     29  C   UNL     1       9.780   7.632   7.606  0.00  0.00    +0.131 A 
ATOM     32  C   UNL     1       8.995   6.637   7.066  0.00  0.00    +0.130 A 
ENDBRANCH  16  20
TORSDOF 2
ENDMDL
