MODEL 1
REMARK VINA RESULT:      -6.3      0.000      0.000
REMARK  Name = 40777712
REMARK  14 active torsions:
REMARK  status: ('A' for Active; 'I' for Inactive)
REMARK    1  A    between atoms: O_2  and  C_29
REMARK    2  A    between atoms: O_2  and  C_30
REMARK    3  A    between atoms: O_3  and  C_31
REMARK    4  A    between atoms: N_5  and  C_17
REMARK    5  A    between atoms: N_6  and  C_10
REMARK    6  A    between atoms: C_8  and  C_11
REMARK    7  A    between atoms: C_14  and  C_18
REMARK    8  A    between atoms: C_15  and  C_20
REMARK    9  A    between atoms: C_16  and  C_19
REMARK   10  A    between atoms: C_16  and  C_26
REMARK   11  A    between atoms: C_16  and  C_27
REMARK   12  A    between atoms: C_16  and  C_28
REMARK   13  A    between atoms: C_21  and  C_29
REMARK   14  A    between atoms: C_30  and  C_31
REMARK                            x       y       z     vdW  Elec       q    Type
REMARK                         _______ _______ _______ _____ _____    ______ ____
ROOT
ATOM      5  N   UNL     1      12.344   4.102  -1.285  0.00  0.00    -0.236 N 
ATOM      7  N   UNL     1      13.638   3.804  -1.077  0.00  0.00    -0.171 NA
ATOM     11  C   UNL     1      12.556   4.253   0.884  0.00  0.00    +0.003 A 
ATOM     14  C   UNL     1      11.651   4.377  -0.143  0.00  0.00    +0.046 A 
ATOM     15  C   UNL     1      13.761   3.898   0.249  0.00  0.00    +0.064 A 
ATOM     18  C   UNL     1      10.217   4.730  -0.129  0.00  0.00    +0.066 C 
ATOM     20  C   UNL     1      15.070   3.638   0.875  0.00  0.00    +0.068 C 
ENDROOT
BRANCH   5  17
ATOM     17  C   UNL     1      11.834   4.104  -2.583  0.00  0.00    +0.066 A 
ATOM     19  C   UNL     1      10.823   4.109  -5.184  0.00  0.00    -0.042 A 
ATOM     22  C   UNL     1      11.340   2.925  -3.143  0.00  0.00    +0.028 A 
ATOM     23  C   UNL     1      11.822   5.285  -3.325  0.00  0.00    +0.028 A 
ATOM     24  C   UNL     1      10.834   2.927  -4.442  0.00  0.00    +0.006 A 
ATOM     25  C   UNL     1      11.317   5.288  -4.625  0.00  0.00    +0.006 A 
BRANCH  19  16
ATOM     16  C   UNL     1      10.283   4.112  -6.573  0.00  0.00    -0.013 C 
ATOM     26  C   UNL     1       9.772   2.697  -6.985  0.00  0.00    +0.015 C 
ATOM     27  C   UNL     1      11.375   4.535  -7.605  0.00  0.00    +0.015 C 
ATOM     28  C   UNL     1       9.078   5.078  -6.824  0.00  0.00    +0.015 C 
ENDBRANCH  19  16
ENDBRANCH   5  17
BRANCH  11   8
ATOM      8  C   UNL     1      12.309   4.452   2.362  0.00  0.00    +0.047 C 
ATOM      9  C   UNL     1      11.986   5.914   2.733  0.00  0.00    +0.039 C 
ATOM     10  C   UNL     1      10.980   5.840   3.889  0.00  0.00    +0.097 C 
ATOM     12  C   UNL     1      11.121   3.712   2.905  0.00  0.00    -0.021 C 
ATOM     13  C   UNL     1      10.404   4.471   3.740  0.00  0.00    -0.009 C 
BRANCH  10   6
ATOM      1  O   UNL     1      10.937   8.125   5.663  0.00  0.00    -0.273 OA
ATOM      6  N   UNL     1      11.607   5.950   5.180  0.00  0.00    -0.307 N 
ATOM     21  C   UNL     1      11.532   7.095   5.966  0.00  0.00    +0.239 C 
ATOM     32  H   UNL     1      12.161   5.167   5.516  0.00  0.00    +0.149 HD
BRANCH  21  29
ATOM     29  C   UNL     1      12.280   6.933   7.272  0.00  0.00    +0.256 C 
BRANCH  29   2
ATOM      2  O   UNL     1      11.791   5.822   7.992  0.00  0.00    -0.359 OA
BRANCH   2  30
ATOM     30  C   UNL     1      10.435   6.001   8.390  0.00  0.00    +0.280 C 
BRANCH  30  31
ATOM      4  O   UNL     1       9.076   4.502   9.736  0.00  0.00    -0.248 OA
ATOM     31  C   UNL     1       9.849   4.679   8.807  0.00  0.00    +0.331 C 
BRANCH  31   3
ATOM      3  O   UNL     1      10.301   3.690   7.996  0.00  0.00    -0.479 OA
ATOM     33  H   UNL     1       9.675   2.935   7.956  0.00  0.00    +0.295 HD
ENDBRANCH  31   3
ENDBRANCH  30  31
ENDBRANCH   2  30
ENDBRANCH  29   2
ENDBRANCH  21  29
ENDBRANCH  10   6
ENDBRANCH  11   8
TORSDOF 9
ENDMDL
MODEL 2
REMARK VINA RESULT:      -6.2     35.075     40.449
REMARK  Name = 40777712
REMARK  14 active torsions:
REMARK  status: ('A' for Active; 'I' for Inactive)
REMARK    1  A    between atoms: O_2  and  C_29
REMARK    2  A    between atoms: O_2  and  C_30
REMARK    3  A    between atoms: O_3  and  C_31
REMARK    4  A    between atoms: N_5  and  C_17
REMARK    5  A    between atoms: N_6  and  C_10
REMARK    6  A    between atoms: C_8  and  C_11
REMARK    7  A    between atoms: C_14  and  C_18
REMARK    8  A    between atoms: C_15  and  C_20
REMARK    9  A    between atoms: C_16  and  C_19
REMARK   10  A    between atoms: C_16  and  C_26
REMARK   11  A    between atoms: C_16  and  C_27
REMARK   12  A    between atoms: C_16  and  C_28
REMARK   13  A    between atoms: C_21  and  C_29
REMARK   14  A    between atoms: C_30  and  C_31
REMARK                            x       y       z     vdW  Elec       q    Type
REMARK                         _______ _______ _______ _____ _____    ______ ____
ROOT
ATOM      5  N   UNL     1     -14.196   5.159  32.260  0.00  0.00    -0.236 N 
ATOM      7  N   UNL     1     -13.699   3.914  32.358  0.00  0.00    -0.171 NA
ATOM     11  C   UNL     1     -15.201   4.085  30.646  0.00  0.00    +0.003 A 
ATOM     14  C   UNL     1     -15.098   5.315  31.250  0.00  0.00    +0.046 A 
ATOM     15  C   UNL     1     -14.317   3.263  31.370  0.00  0.00    +0.064 A 
ATOM     18  C   UNL     1     -15.773   6.595  30.956  0.00  0.00    +0.066 C 
ATOM     20  C   UNL     1     -14.028   1.834  31.153  0.00  0.00    +0.068 C 
ENDROOT
BRANCH   5  17
ATOM     17  C   UNL     1     -13.771   6.146  33.151  0.00  0.00    +0.066 A 
ATOM     19  C   UNL     1     -12.926   8.124  34.928  0.00  0.00    -0.042 A 
ATOM     22  C   UNL     1     -13.988   5.993  34.520  0.00  0.00    +0.028 A 
ATOM     23  C   UNL     1     -13.130   7.288  32.670  0.00  0.00    +0.028 A 
ATOM     24  C   UNL     1     -13.566   6.981  35.409  0.00  0.00    +0.006 A 
ATOM     25  C   UNL     1     -12.708   8.277  33.559  0.00  0.00    +0.006 A 
BRANCH  19  16
ATOM     16  C   UNL     1     -12.475   9.181  35.878  0.00  0.00    -0.013 C 
ATOM     26  C   UNL     1     -13.534  10.319  36.002  0.00  0.00    +0.015 C 
ATOM     27  C   UNL     1     -11.137   9.833  35.407  0.00  0.00    +0.015 C 
ATOM     28  C   UNL     1     -12.209   8.698  37.343  0.00  0.00    +0.015 C 
ENDBRANCH  19  16
ENDBRANCH   5  17
BRANCH  11   8
ATOM      8  C   UNL     1     -16.068   3.705  29.468  0.00  0.00    +0.047 C 
ATOM      9  C   UNL     1     -15.337   2.827  28.431  0.00  0.00    +0.039 C 
ATOM     10  C   UNL     1     -16.397   1.869  27.872  0.00  0.00    +0.097 C 
ATOM     12  C   UNL     1     -17.264   2.867  29.814  0.00  0.00    -0.021 C 
ATOM     13  C   UNL     1     -17.441   1.871  28.939  0.00  0.00    -0.009 C 
BRANCH  10   6
ATOM      1  O   UNL     1     -16.328   0.557  25.295  0.00  0.00    -0.273 OA
ATOM      6  N   UNL     1     -16.978   2.339  26.642  0.00  0.00    -0.307 N 
ATOM     21  C   UNL     1     -16.893   1.636  25.445  0.00  0.00    +0.239 C 
ATOM     32  H   UNL     1     -17.439   3.245  26.640  0.00  0.00    +0.149 HD
BRANCH  21  29
ATOM     29  C   UNL     1     -17.593   2.360  24.314  0.00  0.00    +0.256 C 
BRANCH  29   2
ATOM      2  O   UNL     1     -16.695   2.618  23.257  0.00  0.00    -0.359 OA
BRANCH   2  30
ATOM     30  C   UNL     1     -16.483   4.014  23.068  0.00  0.00    +0.280 C 
BRANCH  30  31
ATOM      4  O   UNL     1     -14.394   4.624  21.988  0.00  0.00    -0.248 OA
ATOM     31  C   UNL     1     -15.008   4.299  22.992  0.00  0.00    +0.331 C 
BRANCH  31   3
ATOM      3  O   UNL     1     -14.438   4.146  24.214  0.00  0.00    -0.479 OA
ATOM     33  H   UNL     1     -14.329   5.004  24.677  0.00  0.00    +0.295 HD
ENDBRANCH  31   3
ENDBRANCH  30  31
ENDBRANCH   2  30
ENDBRANCH  29   2
ENDBRANCH  21  29
ENDBRANCH  10   6
ENDBRANCH  11   8
TORSDOF 9
ENDMDL
MODEL 3
REMARK VINA RESULT:      -6.0     26.914     31.464
REMARK  Name = 40777712
REMARK  14 active torsions:
REMARK  status: ('A' for Active; 'I' for Inactive)
REMARK    1  A    between atoms: O_2  and  C_29
REMARK    2  A    between atoms: O_2  and  C_30
REMARK    3  A    between atoms: O_3  and  C_31
REMARK    4  A    between atoms: N_5  and  C_17
REMARK    5  A    between atoms: N_6  and  C_10
REMARK    6  A    between atoms: C_8  and  C_11
REMARK    7  A    between atoms: C_14  and  C_18
REMARK    8  A    between atoms: C_15  and  C_20
REMARK    9  A    between atoms: C_16  and  C_19
REMARK   10  A    between atoms: C_16  and  C_26
REMARK   11  A    between atoms: C_16  and  C_27
REMARK   12  A    between atoms: C_16  and  C_28
REMARK   13  A    between atoms: C_21  and  C_29
REMARK   14  A    between atoms: C_30  and  C_31
REMARK                            x       y       z     vdW  Elec       q    Type
REMARK                         _______ _______ _______ _____ _____    ______ ____
ROOT
ATOM      5  N   UNL     1      -7.326 -10.216  16.939  0.00  0.00    -0.236 N 
ATOM      7  N   UNL     1      -7.960  -9.042  16.773  0.00  0.00    -0.171 NA
ATOM     11  C   UNL     1      -9.209 -10.504  18.007  0.00  0.00    +0.003 A 
ATOM     14  C   UNL     1      -8.030 -11.125  17.671  0.00  0.00    +0.046 A 
ATOM     15  C   UNL     1      -9.110  -9.225  17.427  0.00  0.00    +0.064 A 
ATOM     18  C   UNL     1      -7.531 -12.480  17.979  0.00  0.00    +0.066 C 
ATOM     20  C   UNL     1     -10.098  -8.133  17.472  0.00  0.00    +0.068 C 
ENDROOT
BRANCH   5  17
ATOM     17  C   UNL     1      -6.061 -10.403  16.380  0.00  0.00    +0.066 A 
ATOM     19  C   UNL     1      -3.533 -10.770  15.259  0.00  0.00    -0.042 A 
ATOM     22  C   UNL     1      -4.930 -10.414  17.197  0.00  0.00    +0.028 A 
ATOM     23  C   UNL     1      -5.927 -10.576  15.002  0.00  0.00    +0.028 A 
ATOM     24  C   UNL     1      -3.666 -10.598  16.637  0.00  0.00    +0.006 A 
ATOM     25  C   UNL     1      -4.662 -10.759  14.442  0.00  0.00    +0.006 A 
BRANCH  19  16
ATOM     16  C   UNL     1      -2.181 -10.966  14.661  0.00  0.00    -0.013 C 
ATOM     26  C   UNL     1      -1.064 -10.389  15.584  0.00  0.00    +0.015 C 
ATOM     27  C   UNL     1      -2.065 -10.250  13.278  0.00  0.00    +0.015 C 
ATOM     28  C   UNL     1      -1.773 -12.453  14.395  0.00  0.00    +0.015 C 
ENDBRANCH  19  16
ENDBRANCH   5  17
BRANCH  11   8
ATOM      8  C   UNL     1     -10.353 -11.070  18.817  0.00  0.00    +0.047 C 
ATOM      9  C   UNL     1     -10.707 -10.213  20.050  0.00  0.00    +0.039 C 
ATOM     10  C   UNL     1     -12.227 -10.332  20.218  0.00  0.00    +0.097 C 
ATOM     12  C   UNL     1     -11.662 -11.144  18.088  0.00  0.00    -0.021 C 
ATOM     13  C   UNL     1     -12.681 -10.745  18.857  0.00  0.00    -0.009 C 
BRANCH  10   6
ATOM      1  O   UNL     1     -14.814 -10.679  21.469  0.00  0.00    -0.273 OA
ATOM      6  N   UNL     1     -12.604 -11.345  21.169  0.00  0.00    -0.307 N 
ATOM     21  C   UNL     1     -13.878 -11.434  21.720  0.00  0.00    +0.239 C 
ATOM     32  H   UNL     1     -11.895 -12.003  21.480  0.00  0.00    +0.149 HD
BRANCH  21  29
ATOM     29  C   UNL     1     -13.997 -12.592  22.687  0.00  0.00    +0.256 C 
BRANCH  29   2
ATOM      2  O   UNL     1     -13.513 -13.781  22.101  0.00  0.00    -0.359 OA
BRANCH   2  30
ATOM     30  C   UNL     1     -12.682 -14.515  22.997  0.00  0.00    +0.280 C 
BRANCH  30  31
ATOM      4  O   UNL     1     -10.821 -13.762  21.629  0.00  0.00    -0.248 OA
ATOM     31  C   UNL     1     -11.236 -14.292  22.648  0.00  0.00    +0.331 C 
BRANCH  31   3
ATOM      3  O   UNL     1     -10.438 -14.770  23.636  0.00  0.00    -0.479 OA
ATOM     33  H   UNL     1     -10.951 -15.246  24.322  0.00  0.00    +0.295 HD
ENDBRANCH  31   3
ENDBRANCH  30  31
ENDBRANCH   2  30
ENDBRANCH  29   2
ENDBRANCH  21  29
ENDBRANCH  10   6
ENDBRANCH  11   8
TORSDOF 9
ENDMDL
MODEL 4
REMARK VINA RESULT:      -6.0     25.796     30.988
REMARK  Name = 40777712
REMARK  14 active torsions:
REMARK  status: ('A' for Active; 'I' for Inactive)
REMARK    1  A    between atoms: O_2  and  C_29
REMARK    2  A    between atoms: O_2  and  C_30
REMARK    3  A    between atoms: O_3  and  C_31
REMARK    4  A    between atoms: N_5  and  C_17
REMARK    5  A    between atoms: N_6  and  C_10
REMARK    6  A    between atoms: C_8  and  C_11
REMARK    7  A    between atoms: C_14  and  C_18
REMARK    8  A    between atoms: C_15  and  C_20
REMARK    9  A    between atoms: C_16  and  C_19
REMARK   10  A    between atoms: C_16  and  C_26
REMARK   11  A    between atoms: C_16  and  C_27
REMARK   12  A    between atoms: C_16  and  C_28
REMARK   13  A    between atoms: C_21  and  C_29
REMARK   14  A    between atoms: C_30  and  C_31
REMARK                            x       y       z     vdW  Elec       q    Type
REMARK                         _______ _______ _______ _____ _____    ______ ____
ROOT
ATOM      5  N   UNL     1      -9.069 -11.020  19.110  0.00  0.00    -0.236 N 
ATOM      7  N   UNL     1      -8.108 -11.043  20.051  0.00  0.00    -0.171 NA
ATOM     11  C   UNL     1      -7.224 -11.134  17.946  0.00  0.00    +0.003 A 
ATOM     14  C   UNL     1      -8.592 -11.070  17.834  0.00  0.00    +0.046 A 
ATOM     15  C   UNL     1      -6.984 -11.113  19.333  0.00  0.00    +0.064 A 
ATOM     18  C   UNL     1      -9.463 -11.057  16.641  0.00  0.00    +0.066 C 
ATOM     20  C   UNL     1      -5.685 -11.161  20.027  0.00  0.00    +0.068 C 
ENDROOT
BRANCH   5  17
ATOM     17  C   UNL     1     -10.409 -10.946  19.492  0.00  0.00    +0.066 A 
ATOM     19  C   UNL     1     -13.090 -10.798  20.247  0.00  0.00    -0.042 A 
ATOM     22  C   UNL     1     -11.051 -12.071  20.009  0.00  0.00    +0.028 A 
ATOM     23  C   UNL     1     -11.107  -9.747  19.353  0.00  0.00    +0.028 A 
ATOM     24  C   UNL     1     -12.392 -11.998  20.386  0.00  0.00    +0.006 A 
ATOM     25  C   UNL     1     -12.448  -9.673  19.730  0.00  0.00    +0.006 A 
BRANCH  19  16
ATOM     16  C   UNL     1     -14.524 -10.719  20.650  0.00  0.00    -0.013 C 
ATOM     26  C   UNL     1     -14.979  -9.239  20.837  0.00  0.00    +0.015 C 
ATOM     27  C   UNL     1     -14.774 -11.461  22.000  0.00  0.00    +0.015 C 
ATOM     28  C   UNL     1     -15.542 -11.343  19.638  0.00  0.00    +0.015 C 
ENDBRANCH  19  16
ENDBRANCH   5  17
BRANCH  11   8
ATOM      8  C   UNL     1      -6.208 -11.207  16.829  0.00  0.00    +0.047 C 
ATOM      9  C   UNL     1      -5.143 -10.094  16.901  0.00  0.00    +0.039 C 
ATOM     10  C   UNL     1      -3.843 -10.725  16.386  0.00  0.00    +0.097 C 
ATOM     12  C   UNL     1      -5.373 -12.454  16.822  0.00  0.00    -0.021 C 
ATOM     13  C   UNL     1      -4.086 -12.186  16.575  0.00  0.00    -0.009 C 
BRANCH  10   6
ATOM      1  O   UNL     1      -1.356 -11.029  14.939  0.00  0.00    -0.273 OA
ATOM      6  N   UNL     1      -3.612 -10.463  14.990  0.00  0.00    -0.307 N 
ATOM     21  C   UNL     1      -2.376 -10.638  14.378  0.00  0.00    +0.239 C 
ATOM     32  H   UNL     1      -4.380 -10.096  14.433  0.00  0.00    +0.149 HD
BRANCH  21  29
ATOM     29  C   UNL     1      -2.419 -10.289  12.906  0.00  0.00    +0.256 C 
BRANCH  29   2
ATOM      2  O   UNL     1      -3.566 -10.841  12.296  0.00  0.00    -0.359 OA
BRANCH   2  30
ATOM     30  C   UNL     1      -4.234  -9.895  11.466  0.00  0.00    +0.280 C 
BRANCH  30  31
ATOM      4  O   UNL     1      -5.928  -9.819  13.206  0.00  0.00    -0.248 OA
ATOM     31  C   UNL     1      -5.553  -9.517  12.084  0.00  0.00    +0.331 C 
BRANCH  31   3
ATOM      3  O   UNL     1      -6.284  -8.780  11.210  0.00  0.00    -0.479 OA
ATOM     33  H   UNL     1      -5.802  -8.623  10.371  0.00  0.00    +0.295 HD
ENDBRANCH  31   3
ENDBRANCH  30  31
ENDBRANCH   2  30
ENDBRANCH  29   2
ENDBRANCH  21  29
ENDBRANCH  10   6
ENDBRANCH  11   8
TORSDOF 9
ENDMDL
MODEL 5
REMARK VINA RESULT:      -6.0     36.994     40.146
REMARK  Name = 40777712
REMARK  14 active torsions:
REMARK  status: ('A' for Active; 'I' for Inactive)
REMARK    1  A    between atoms: O_2  and  C_29
REMARK    2  A    between atoms: O_2  and  C_30
REMARK    3  A    between atoms: O_3  and  C_31
REMARK    4  A    between atoms: N_5  and  C_17
REMARK    5  A    between atoms: N_6  and  C_10
REMARK    6  A    between atoms: C_8  and  C_11
REMARK    7  A    between atoms: C_14  and  C_18
REMARK    8  A    between atoms: C_15  and  C_20
REMARK    9  A    between atoms: C_16  and  C_19
REMARK   10  A    between atoms: C_16  and  C_26
REMARK   11  A    between atoms: C_16  and  C_27
REMARK   12  A    between atoms: C_16  and  C_28
REMARK   13  A    between atoms: C_21  and  C_29
REMARK   14  A    between atoms: C_30  and  C_31
REMARK                            x       y       z     vdW  Elec       q    Type
REMARK                         _______ _______ _______ _____ _____    ______ ____
ROOT
ATOM      5  N   UNL     1     -11.185   9.726  33.317  0.00  0.00    -0.236 N 
ATOM      7  N   UNL     1     -11.397   9.331  34.584  0.00  0.00    -0.171 NA
ATOM     11  C   UNL     1     -12.811   8.279  33.130  0.00  0.00    +0.003 A 
ATOM     14  C   UNL     1     -12.004   9.125  32.408  0.00  0.00    +0.046 A 
ATOM     15  C   UNL     1     -12.391   8.447  34.463  0.00  0.00    +0.064 A 
ATOM     18  C   UNL     1     -11.952   9.406  30.958  0.00  0.00    +0.066 C 
ATOM     20  C   UNL     1     -12.916   7.780  35.668  0.00  0.00    +0.068 C 
ENDROOT
BRANCH   5  17
ATOM     17  C   UNL     1     -10.194  10.668  33.043  0.00  0.00    +0.066 A 
ATOM     19  C   UNL     1      -8.206  12.547  32.492  0.00  0.00    -0.042 A 
ATOM     22  C   UNL     1     -10.421  11.669  32.098  0.00  0.00    +0.028 A 
ATOM     23  C   UNL     1      -8.971  10.608  33.713  0.00  0.00    +0.028 A 
ATOM     24  C   UNL     1      -9.428  12.608  31.822  0.00  0.00    +0.006 A 
ATOM     25  C   UNL     1      -7.977  11.547  33.437  0.00  0.00    +0.006 A 
BRANCH  19  16
ATOM     16  C   UNL     1      -7.144  13.551  32.197  0.00  0.00    -0.013 C 
ATOM     26  C   UNL     1      -6.245  13.809  33.446  0.00  0.00    +0.015 C 
ATOM     27  C   UNL     1      -7.761  14.920  31.772  0.00  0.00    +0.015 C 
ATOM     28  C   UNL     1      -6.155  13.166  31.046  0.00  0.00    +0.015 C 
ENDBRANCH  19  16
ENDBRANCH   5  17
BRANCH  11   8
ATOM      8  C   UNL     1     -13.901   7.372  32.608  0.00  0.00    +0.047 C 
ATOM      9  C   UNL     1     -13.690   5.890  32.979  0.00  0.00    +0.039 C 
ATOM     10  C   UNL     1     -15.093   5.310  33.197  0.00  0.00    +0.097 C 
ATOM     12  C   UNL     1     -15.268   7.652  33.159  0.00  0.00    -0.021 C 
ATOM     13  C   UNL     1     -15.916   6.525  33.474  0.00  0.00    -0.009 C 
BRANCH  10   6
ATOM      1  O   UNL     1     -14.663   2.558  32.415  0.00  0.00    -0.273 OA
ATOM      6  N   UNL     1     -15.610   4.648  32.028  0.00  0.00    -0.307 N 
ATOM     21  C   UNL     1     -15.348   3.314  31.732  0.00  0.00    +0.239 C 
ATOM     32  H   UNL     1     -16.161   5.191  31.369  0.00  0.00    +0.149 HD
BRANCH  21  29
ATOM     29  C   UNL     1     -16.017   2.879  30.446  0.00  0.00    +0.256 C 
BRANCH  29   2
ATOM      2  O   UNL     1     -15.063   2.378  29.534  0.00  0.00    -0.359 OA
BRANCH   2  30
ATOM     30  C   UNL     1     -15.334   1.027  29.171  0.00  0.00    +0.280 C 
BRANCH  30  31
ATOM      4  O   UNL     1     -14.171  -1.076  29.531  0.00  0.00    -0.248 OA
ATOM     31  C   UNL     1     -14.215   0.139  29.644  0.00  0.00    +0.331 C 
BRANCH  31   3
ATOM      3  O   UNL     1     -13.240   0.884  30.223  0.00  0.00    -0.479 OA
ATOM     33  H   UNL     1     -12.579   0.325  30.685  0.00  0.00    +0.295 HD
ENDBRANCH  31   3
ENDBRANCH  30  31
ENDBRANCH   2  30
ENDBRANCH  29   2
ENDBRANCH  21  29
ENDBRANCH  10   6
ENDBRANCH  11   8
TORSDOF 9
ENDMDL
MODEL 6
REMARK VINA RESULT:      -5.9     25.974     31.143
REMARK  Name = 40777712
REMARK  14 active torsions:
REMARK  status: ('A' for Active; 'I' for Inactive)
REMARK    1  A    between atoms: O_2  and  C_29
REMARK    2  A    between atoms: O_2  and  C_30
REMARK    3  A    between atoms: O_3  and  C_31
REMARK    4  A    between atoms: N_5  and  C_17
REMARK    5  A    between atoms: N_6  and  C_10
REMARK    6  A    between atoms: C_8  and  C_11
REMARK    7  A    between atoms: C_14  and  C_18
REMARK    8  A    between atoms: C_15  and  C_20
REMARK    9  A    between atoms: C_16  and  C_19
REMARK   10  A    between atoms: C_16  and  C_26
REMARK   11  A    between atoms: C_16  and  C_27
REMARK   12  A    between atoms: C_16  and  C_28
REMARK   13  A    between atoms: C_21  and  C_29
REMARK   14  A    between atoms: C_30  and  C_31
REMARK                            x       y       z     vdW  Elec       q    Type
REMARK                         _______ _______ _______ _____ _____    ______ ____
ROOT
ATOM      5  N   UNL     1      -9.100 -11.101  19.100  0.00  0.00    -0.236 N 
ATOM      7  N   UNL     1      -8.116 -11.063  20.015  0.00  0.00    -0.171 NA
ATOM     11  C   UNL     1      -7.283 -11.213  17.894  0.00  0.00    +0.003 A 
ATOM     14  C   UNL     1      -8.655 -11.189  17.815  0.00  0.00    +0.046 A 
ATOM     15  C   UNL     1      -7.009 -11.132  19.272  0.00  0.00    +0.064 A 
ATOM     18  C   UNL     1      -9.556 -11.245  16.646  0.00  0.00    +0.066 C 
ATOM     20  C   UNL     1      -5.692 -11.119  19.933  0.00  0.00    +0.068 C 
ENDROOT
BRANCH   5  17
ATOM     17  C   UNL     1     -10.432 -11.047  19.514  0.00  0.00    +0.066 A 
ATOM     19  C   UNL     1     -13.091 -10.942  20.349  0.00  0.00    -0.042 A 
ATOM     22  C   UNL     1     -11.139  -9.847  19.441  0.00  0.00    +0.028 A 
ATOM     23  C   UNL     1     -11.055 -12.195  20.004  0.00  0.00    +0.028 A 
ATOM     24  C   UNL     1     -12.469  -9.794  19.858  0.00  0.00    +0.006 A 
ATOM     25  C   UNL     1     -12.385 -12.142  20.422  0.00  0.00    +0.006 A 
BRANCH  19  16
ATOM     16  C   UNL     1     -14.513 -10.885  20.796  0.00  0.00    -0.013 C 
ATOM     26  C   UNL     1     -15.447 -11.651  19.809  0.00  0.00    +0.015 C 
ATOM     27  C   UNL     1     -15.022  -9.411  20.877  0.00  0.00    +0.015 C 
ATOM     28  C   UNL     1     -14.800 -11.502  22.205  0.00  0.00    +0.015 C 
ENDBRANCH  19  16
ENDBRANCH   5  17
BRANCH  11   8
ATOM      8  C   UNL     1      -6.294 -11.304  16.754  0.00  0.00    +0.047 C 
ATOM      9  C   UNL     1      -5.429 -10.036  16.596  0.00  0.00    +0.039 C 
ATOM     10  C   UNL     1      -4.053 -10.525  16.125  0.00  0.00    +0.097 C 
ATOM     12  C   UNL     1      -5.262 -12.383  16.903  0.00  0.00    -0.021 C 
ATOM     13  C   UNL     1      -4.044 -11.955  16.555  0.00  0.00    -0.009 C 
BRANCH  10   6
ATOM      1  O   UNL     1      -1.582 -10.643  14.625  0.00  0.00    -0.273 OA
ATOM      6  N   UNL     1      -3.900 -10.462  14.695  0.00  0.00    -0.307 N 
ATOM     21  C   UNL     1      -2.665 -10.526  14.059  0.00  0.00    +0.239 C 
ATOM     32  H   UNL     1      -4.732 -10.326  14.126  0.00  0.00    +0.149 HD
BRANCH  21  29
ATOM     29  C   UNL     1      -2.799 -10.437  12.554  0.00  0.00    +0.256 C 
BRANCH  29   2
ATOM      2  O   UNL     1      -2.209 -11.559  11.935  0.00  0.00    -0.359 OA
BRANCH   2  30
ATOM     30  C   UNL     1      -3.026 -12.721  12.052  0.00  0.00    +0.280 C 
BRANCH  30  31
ATOM      4  O   UNL     1      -2.420 -15.068  12.216  0.00  0.00    -0.248 OA
ATOM     31  C   UNL     1      -2.183 -13.896  12.466  0.00  0.00    +0.331 C 
BRANCH  31   3
ATOM      3  O   UNL     1      -1.103 -13.473  13.169  0.00  0.00    -0.479 OA
ATOM     33  H   UNL     1      -1.297 -13.397  14.128  0.00  0.00    +0.295 HD
ENDBRANCH  31   3
ENDBRANCH  30  31
ENDBRANCH   2  30
ENDBRANCH  29   2
ENDBRANCH  21  29
ENDBRANCH  10   6
ENDBRANCH  11   8
TORSDOF 9
ENDMDL
MODEL 7
REMARK VINA RESULT:      -5.9     38.243     40.040
REMARK  Name = 40777712
REMARK  14 active torsions:
REMARK  status: ('A' for Active; 'I' for Inactive)
REMARK    1  A    between atoms: O_2  and  C_29
REMARK    2  A    between atoms: O_2  and  C_30
REMARK    3  A    between atoms: O_3  and  C_31
REMARK    4  A    between atoms: N_5  and  C_17
REMARK    5  A    between atoms: N_6  and  C_10
REMARK    6  A    between atoms: C_8  and  C_11
REMARK    7  A    between atoms: C_14  and  C_18
REMARK    8  A    between atoms: C_15  and  C_20
REMARK    9  A    between atoms: C_16  and  C_19
REMARK   10  A    between atoms: C_16  and  C_26
REMARK   11  A    between atoms: C_16  and  C_27
REMARK   12  A    between atoms: C_16  and  C_28
REMARK   13  A    between atoms: C_21  and  C_29
REMARK   14  A    between atoms: C_30  and  C_31
REMARK                            x       y       z     vdW  Elec       q    Type
REMARK                         _______ _______ _______ _____ _____    ______ ____
ROOT
ATOM      5  N   UNL     1     -13.119   7.651  33.624  0.00  0.00    -0.236 N 
ATOM      7  N   UNL     1     -13.250   7.652  34.962  0.00  0.00    -0.171 NA
ATOM     11  C   UNL     1     -11.725   9.204  34.268  0.00  0.00    +0.003 A 
ATOM     14  C   UNL     1     -12.219   8.563  33.158  0.00  0.00    +0.046 A 
ATOM     15  C   UNL     1     -12.396   8.602  35.349  0.00  0.00    +0.064 A 
ATOM     18  C   UNL     1     -11.911   8.739  31.724  0.00  0.00    +0.066 C 
ATOM     20  C   UNL     1     -12.252   8.904  36.784  0.00  0.00    +0.068 C 
ENDROOT
BRANCH   5  17
ATOM     17  C   UNL     1     -13.875   6.766  32.855  0.00  0.00    +0.066 A 
ATOM     19  C   UNL     1     -15.390   4.992  31.325  0.00  0.00    -0.042 A 
ATOM     22  C   UNL     1     -15.008   7.219  32.178  0.00  0.00    +0.028 A 
ATOM     23  C   UNL     1     -13.501   5.425  32.766  0.00  0.00    +0.028 A 
ATOM     24  C   UNL     1     -15.766   6.333  31.413  0.00  0.00    +0.006 A 
ATOM     25  C   UNL     1     -14.259   4.538  32.002  0.00  0.00    +0.006 A 
BRANCH  19  16
ATOM     16  C   UNL     1     -16.201   4.044  30.508  0.00  0.00    -0.013 C 
ATOM     26  C   UNL     1     -16.137   4.406  28.992  0.00  0.00    +0.015 C 
ATOM     27  C   UNL     1     -17.702   4.069  30.934  0.00  0.00    +0.015 C 
ATOM     28  C   UNL     1     -15.769   2.542  30.595  0.00  0.00    +0.015 C 
ENDBRANCH  19  16
ENDBRANCH   5  17
BRANCH  11   8
ATOM      8  C   UNL     1     -10.693  10.308  34.314  0.00  0.00    +0.047 C 
ATOM      9  C   UNL     1      -9.369   9.933  33.618  0.00  0.00    +0.039 C 
ATOM     10  C   UNL     1      -8.846  11.230  32.987  0.00  0.00    +0.097 C 
ATOM     12  C   UNL     1     -11.088  11.567  33.599  0.00  0.00    -0.021 C 
ATOM     13  C   UNL     1     -10.077  12.068  32.882  0.00  0.00    -0.009 C 
BRANCH  10   6
ATOM      1  O   UNL     1      -6.505  12.693  32.121  0.00  0.00    -0.273 OA
ATOM      6  N   UNL     1      -7.886  11.905  33.820  0.00  0.00    -0.307 N 
ATOM     21  C   UNL     1      -6.785  12.587  33.312  0.00  0.00    +0.239 C 
ATOM     32  H   UNL     1      -7.997  11.850  34.829  0.00  0.00    +0.149 HD
BRANCH  21  29
ATOM     29  C   UNL     1      -5.945  13.203  34.409  0.00  0.00    +0.256 C 
BRANCH  29   2
ATOM      2  O   UNL     1      -5.732  12.278  35.453  0.00  0.00    -0.359 OA
BRANCH   2  30
ATOM     30  C   UNL     1      -4.583  11.469  35.219  0.00  0.00    +0.280 C 
BRANCH  30  31
ATOM      4  O   UNL     1      -4.055   9.382  36.347  0.00  0.00    -0.248 OA
ATOM     31  C   UNL     1      -4.837  10.069  35.708  0.00  0.00    +0.331 C 
BRANCH  31   3
ATOM      3  O   UNL     1      -6.078   9.662  35.338  0.00  0.00    -0.479 OA
ATOM     33  H   UNL     1      -6.069   8.754  34.968  0.00  0.00    +0.295 HD
ENDBRANCH  31   3
ENDBRANCH  30  31
ENDBRANCH   2  30
ENDBRANCH  29   2
ENDBRANCH  21  29
ENDBRANCH  10   6
ENDBRANCH  11   8
TORSDOF 9
ENDMDL
MODEL 8
REMARK VINA RESULT:      -5.9     23.896     26.512
REMARK  Name = 40777712
REMARK  14 active torsions:
REMARK  status: ('A' for Active; 'I' for Inactive)
REMARK    1  A    between atoms: O_2  and  C_29
REMARK    2  A    between atoms: O_2  and  C_30
REMARK    3  A    between atoms: O_3  and  C_31
REMARK    4  A    between atoms: N_5  and  C_17
REMARK    5  A    between atoms: N_6  and  C_10
REMARK    6  A    between atoms: C_8  and  C_11
REMARK    7  A    between atoms: C_14  and  C_18
REMARK    8  A    between atoms: C_15  and  C_20
REMARK    9  A    between atoms: C_16  and  C_19
REMARK   10  A    between atoms: C_16  and  C_26
REMARK   11  A    between atoms: C_16  and  C_27
REMARK   12  A    between atoms: C_16  and  C_28
REMARK   13  A    between atoms: C_21  and  C_29
REMARK   14  A    between atoms: C_30  and  C_31
REMARK                            x       y       z     vdW  Elec       q    Type
REMARK                         _______ _______ _______ _____ _____    ______ ____
ROOT
ATOM      5  N   UNL     1      -4.233 -11.499  11.212  0.00  0.00    -0.236 N 
ATOM      7  N   UNL     1      -3.058 -11.123  11.748  0.00  0.00    -0.171 NA
ATOM     11  C   UNL     1      -4.688 -11.295  13.339  0.00  0.00    +0.003 A 
ATOM     14  C   UNL     1      -5.240 -11.618  12.123  0.00  0.00    +0.046 A 
ATOM     15  C   UNL     1      -3.343 -10.999  13.046  0.00  0.00    +0.064 A 
ATOM     18  C   UNL     1      -6.616 -12.018  11.762  0.00  0.00    +0.066 C 
ATOM     20  C   UNL     1      -2.283 -10.589  13.984  0.00  0.00    +0.068 C 
ENDROOT
BRANCH   5  17
ATOM     17  C   UNL     1      -4.325 -11.729   9.840  0.00  0.00    +0.066 A 
ATOM     19  C   UNL     1      -4.516 -12.196   7.095  0.00  0.00    -0.042 A 
ATOM     22  C   UNL     1      -4.674 -10.690   8.977  0.00  0.00    +0.028 A 
ATOM     23  C   UNL     1      -4.070 -13.002   9.328  0.00  0.00    +0.028 A 
ATOM     24  C   UNL     1      -4.770 -10.922   7.605  0.00  0.00    +0.006 A 
ATOM     25  C   UNL     1      -4.166 -13.235   7.957  0.00  0.00    +0.006 A 
BRANCH  19  16
ATOM     16  C   UNL     1      -4.618 -12.445   5.629  0.00  0.00    -0.013 C 
ATOM     26  C   UNL     1      -3.220 -12.363   4.942  0.00  0.00    +0.015 C 
ATOM     27  C   UNL     1      -5.543 -11.393   4.939  0.00  0.00    +0.015 C 
ATOM     28  C   UNL     1      -5.200 -13.840   5.223  0.00  0.00    +0.015 C 
ENDBRANCH  19  16
ENDBRANCH   5  17
BRANCH  11   8
ATOM      8  C   UNL     1      -5.374 -11.265  14.685  0.00  0.00    +0.047 C 
ATOM      9  C   UNL     1      -4.807 -12.300  15.680  0.00  0.00    +0.039 C 
ATOM     10  C   UNL     1      -4.894 -11.642  17.063  0.00  0.00    +0.097 C 
ATOM     12  C   UNL     1      -5.222  -9.977  15.439  0.00  0.00    -0.021 C 
ATOM     13  C   UNL     1      -4.966 -10.187  16.735  0.00  0.00    -0.009 C 
BRANCH  10   6
ATOM      1  O   UNL     1      -5.299 -11.552  19.926  0.00  0.00    -0.273 OA
ATOM      6  N   UNL     1      -6.080 -12.021  17.785  0.00  0.00    -0.307 N 
ATOM     21  C   UNL     1      -6.184 -11.944  19.170  0.00  0.00    +0.239 C 
ATOM     32  H   UNL     1      -6.865 -12.399  17.261  0.00  0.00    +0.149 HD
BRANCH  21  29
ATOM     29  C   UNL     1      -7.539 -12.404  19.662  0.00  0.00    +0.256 C 
BRANCH  29   2
ATOM      2  O   UNL     1      -8.374 -11.298  19.928  0.00  0.00    -0.359 OA
BRANCH   2  30
ATOM     30  C   UNL     1      -9.460 -11.220  19.009  0.00  0.00    +0.280 C 
BRANCH  30  31
ATOM      4  O   UNL     1      -8.510 -10.266  16.986  0.00  0.00    -0.248 OA
ATOM     31  C   UNL     1      -9.190 -10.143  17.993  0.00  0.00    +0.331 C 
BRANCH  31   3
ATOM      3  O   UNL     1      -9.816  -8.994  18.351  0.00  0.00    -0.479 OA
ATOM     33  H   UNL     1     -10.227  -9.063  19.239  0.00  0.00    +0.295 HD
ENDBRANCH  31   3
ENDBRANCH  30  31
ENDBRANCH   2  30
ENDBRANCH  29   2
ENDBRANCH  21  29
ENDBRANCH  10   6
ENDBRANCH  11   8
TORSDOF 9
ENDMDL
MODEL 9
REMARK VINA RESULT:      -5.8     23.312     25.644
REMARK  Name = 40777712
REMARK  14 active torsions:
REMARK  status: ('A' for Active; 'I' for Inactive)
REMARK    1  A    between atoms: O_2  and  C_29
REMARK    2  A    between atoms: O_2  and  C_30
REMARK    3  A    between atoms: O_3  and  C_31
REMARK    4  A    between atoms: N_5  and  C_17
REMARK    5  A    between atoms: N_6  and  C_10
REMARK    6  A    between atoms: C_8  and  C_11
REMARK    7  A    between atoms: C_14  and  C_18
REMARK    8  A    between atoms: C_15  and  C_20
REMARK    9  A    between atoms: C_16  and  C_19
REMARK   10  A    between atoms: C_16  and  C_26
REMARK   11  A    between atoms: C_16  and  C_27
REMARK   12  A    between atoms: C_16  and  C_28
REMARK   13  A    between atoms: C_21  and  C_29
REMARK   14  A    between atoms: C_30  and  C_31
REMARK                            x       y       z     vdW  Elec       q    Type
REMARK                         _______ _______ _______ _____ _____    ______ ____
ROOT
ATOM      5  N   UNL     1      -6.580  -8.681   8.424  0.00  0.00    -0.236 N 
ATOM      7  N   UNL     1      -7.321  -7.606   8.740  0.00  0.00    -0.171 NA
ATOM     11  C   UNL     1      -7.815  -8.378   6.648  0.00  0.00    +0.003 A 
ATOM     14  C   UNL     1      -6.838  -9.183   7.182  0.00  0.00    +0.046 A 
ATOM     15  C   UNL     1      -8.073  -7.425   7.651  0.00  0.00    +0.064 A 
ATOM     18  C   UNL     1      -6.143 -10.360   6.623  0.00  0.00    +0.066 C 
ATOM     20  C   UNL     1      -9.038  -6.312   7.614  0.00  0.00    +0.068 C 
ENDROOT
BRANCH   5  17
ATOM     17  C   UNL     1      -5.655  -9.178   9.342  0.00  0.00    +0.066 A 
ATOM     19  C   UNL     1      -3.806 -10.179  11.176  0.00  0.00    -0.042 A 
ATOM     22  C   UNL     1      -4.304  -8.850   9.221  0.00  0.00    +0.028 A 
ATOM     23  C   UNL     1      -6.080 -10.007  10.381  0.00  0.00    +0.028 A 
ATOM     24  C   UNL     1      -3.379  -9.350  10.138  0.00  0.00    +0.006 A 
ATOM     25  C   UNL     1      -5.155 -10.508  11.297  0.00  0.00    +0.006 A 
BRANCH  19  16
ATOM     16  C   UNL     1      -2.817 -10.714  12.155  0.00  0.00    -0.013 C 
ATOM     26  C   UNL     1      -3.301 -10.501  13.623  0.00  0.00    +0.015 C 
ATOM     27  C   UNL     1      -1.434 -10.005  12.009  0.00  0.00    +0.015 C 
ATOM     28  C   UNL     1      -2.513 -12.245  12.036  0.00  0.00    +0.015 C 
ENDBRANCH  19  16
ENDBRANCH   5  17
BRANCH  11   8
ATOM      8  C   UNL     1      -8.464  -8.493   5.288  0.00  0.00    +0.047 C 
ATOM      9  C   UNL     1      -7.468  -8.323   4.121  0.00  0.00    +0.039 C 
ATOM     10  C   UNL     1      -7.964  -9.257   3.010  0.00  0.00    +0.097 C 
ATOM     12  C   UNL     1      -9.077  -9.831   4.996  0.00  0.00    -0.021 C 
ATOM     13  C   UNL     1      -8.806 -10.241   3.752  0.00  0.00    -0.009 C 
BRANCH  10   6
ATOM      1  O   UNL     1      -8.223  -9.893   0.199  0.00  0.00    -0.273 OA
ATOM      6  N   UNL     1      -8.779  -8.578   2.036  0.00  0.00    -0.307 N 
ATOM     21  C   UNL     1      -8.840  -8.957   0.699  0.00  0.00    +0.239 C 
ATOM     32  H   UNL     1      -9.306  -7.761   2.332  0.00  0.00    +0.149 HD
BRANCH  21  29
ATOM     29  C   UNL     1      -9.775  -8.072  -0.097  0.00  0.00    +0.256 C 
BRANCH  29   2
ATOM      2  O   UNL     1     -10.925  -7.757   0.658  0.00  0.00    -0.359 OA
BRANCH   2  30
ATOM     30  C   UNL     1     -11.625  -6.639   0.118  0.00  0.00    +0.280 C 
BRANCH  30  31
ATOM      4  O   UNL     1     -11.009  -4.291   0.220  0.00  0.00    -0.248 OA
ATOM     31  C   UNL     1     -11.143  -5.372   0.771  0.00  0.00    +0.331 C 
BRANCH  31   3
ATOM      3  O   UNL     1     -10.871  -5.596   2.081  0.00  0.00    -0.479 OA
ATOM     33  H   UNL     1     -10.197  -6.300   2.200  0.00  0.00    +0.295 HD
ENDBRANCH  31   3
ENDBRANCH  30  31
ENDBRANCH   2  30
ENDBRANCH  29   2
ENDBRANCH  21  29
ENDBRANCH  10   6
ENDBRANCH  11   8
TORSDOF 9
ENDMDL
MODEL 10
REMARK VINA RESULT:      -5.7     22.775     25.827
REMARK  Name = 40777712
REMARK  14 active torsions:
REMARK  status: ('A' for Active; 'I' for Inactive)
REMARK    1  A    between atoms: O_2  and  C_29
REMARK    2  A    between atoms: O_2  and  C_30
REMARK    3  A    between atoms: O_3  and  C_31
REMARK    4  A    between atoms: N_5  and  C_17
REMARK    5  A    between atoms: N_6  and  C_10
REMARK    6  A    between atoms: C_8  and  C_11
REMARK    7  A    between atoms: C_14  and  C_18
REMARK    8  A    between atoms: C_15  and  C_20
REMARK    9  A    between atoms: C_16  and  C_19
REMARK   10  A    between atoms: C_16  and  C_26
REMARK   11  A    between atoms: C_16  and  C_27
REMARK   12  A    between atoms: C_16  and  C_28
REMARK   13  A    between atoms: C_21  and  C_29
REMARK   14  A    between atoms: C_30  and  C_31
REMARK                            x       y       z     vdW  Elec       q    Type
REMARK                         _______ _______ _______ _____ _____    ______ ____
ROOT
ATOM      5  N   UNL     1      -6.311  -9.348   7.702  0.00  0.00    -0.236 N 
ATOM      7  N   UNL     1      -7.263  -8.419   7.892  0.00  0.00    -0.171 NA
ATOM     11  C   UNL     1      -7.190  -9.113   5.717  0.00  0.00    +0.003 A 
ATOM     14  C   UNL     1      -6.227  -9.798   6.418  0.00  0.00    +0.046 A 
ATOM     15  C   UNL     1      -7.796  -8.279   6.675  0.00  0.00    +0.064 A 
ATOM     18  C   UNL     1      -5.253 -10.818   5.978  0.00  0.00    +0.066 C 
ATOM     20  C   UNL     1      -8.898  -7.322   6.473  0.00  0.00    +0.068 C 
ENDROOT
BRANCH   5  17
ATOM     17  C   UNL     1      -5.525  -9.762   8.778  0.00  0.00    +0.066 A 
ATOM     19  C   UNL     1      -3.952 -10.598  10.925  0.00  0.00    -0.042 A 
ATOM     22  C   UNL     1      -4.331  -9.100   9.068  0.00  0.00    +0.028 A 
ATOM     23  C   UNL     1      -5.931 -10.842   9.563  0.00  0.00    +0.028 A 
ATOM     24  C   UNL     1      -3.545  -9.517  10.142  0.00  0.00    +0.006 A 
ATOM     25  C   UNL     1      -5.144 -11.260  10.636  0.00  0.00    +0.006 A 
BRANCH  19  16
ATOM     16  C   UNL     1      -3.110 -11.044  12.073  0.00  0.00    -0.013 C 
ATOM     26  C   UNL     1      -3.786 -10.702  13.437  0.00  0.00    +0.015 C 
ATOM     27  C   UNL     1      -1.712 -10.349  12.054  0.00  0.00    +0.015 C 
ATOM     28  C   UNL     1      -2.811 -12.579  12.130  0.00  0.00    +0.015 C 
ENDBRANCH  19  16
ENDBRANCH   5  17
BRANCH  11   8
ATOM      8  C   UNL     1      -7.521  -9.232   4.247  0.00  0.00    +0.047 C 
ATOM      9  C   UNL     1      -8.852  -9.965   3.980  0.00  0.00    +0.039 C 
ATOM     10  C   UNL     1      -9.459  -9.294   2.742  0.00  0.00    +0.097 C 
ATOM     12  C   UNL     1      -7.727  -7.923   3.541  0.00  0.00    -0.021 C 
ATOM     13  C   UNL     1      -8.781  -7.964   2.719  0.00  0.00    -0.009 C 
BRANCH  10   6
ATOM      1  O   UNL     1     -10.959  -9.230   0.268  0.00  0.00    -0.273 OA
ATOM      6  N   UNL     1      -9.156  -9.998   1.523  0.00  0.00    -0.307 N 
ATOM     21  C   UNL     1      -9.940  -9.906   0.378  0.00  0.00    +0.239 C 
ATOM     32  H   UNL     1      -8.353 -10.621   1.511  0.00  0.00    +0.149 HD
BRANCH  21  29
ATOM     29  C   UNL     1      -9.390 -10.748  -0.753  0.00  0.00    +0.256 C 
BRANCH  29   2
ATOM      2  O   UNL     1      -8.800  -9.931  -1.741  0.00  0.00    -0.359 OA
BRANCH   2  30
ATOM     30  C   UNL     1      -7.621 -10.519  -2.283  0.00  0.00    +0.280 C 
BRANCH  30  31
ATOM      4  O   UNL     1      -6.390  -8.474  -1.831  0.00  0.00    -0.248 OA
ATOM     31  C   UNL     1      -6.588  -9.454  -2.532  0.00  0.00    +0.331 C 
BRANCH  31   3
ATOM      3  O   UNL     1      -5.892  -9.733  -3.662  0.00  0.00    -0.479 OA
ATOM     33  H   UNL     1      -6.465 -10.119  -4.359  0.00  0.00    +0.295 HD
ENDBRANCH  31   3
ENDBRANCH  30  31
ENDBRANCH   2  30
ENDBRANCH  29   2
ENDBRANCH  21  29
ENDBRANCH  10   6
ENDBRANCH  11   8
TORSDOF 9
ENDMDL
