MODEL 1
REMARK VINA RESULT:      -8.0      0.000      0.000
REMARK  Name = 11884107
REMARK  9 active torsions:
REMARK  status: ('A' for Active; 'I' for Inactive)
REMARK    1  A    between atoms: S_1  and  N_8
REMARK    2  A    between atoms: S_1  and  C_17
REMARK    3  A    between atoms: O_4  and  C_14
REMARK    4  A    between atoms: O_4  and  C_18
REMARK    5  A    between atoms: N_8  and  C_13
REMARK    6  A    between atoms: N_9  and  C_23
REMARK    7  A    between atoms: C_28  and  C_30
REMARK    8  A    between atoms: C_30  and  C_34
REMARK    9  A    between atoms: C_30  and  C_35
REMARK                            x       y       z     vdW  Elec       q    Type
REMARK                         _______ _______ _______ _____ _____    ______ ____
ROOT
ATOM      2  O   UNL     1     -16.901   5.083  25.340  0.00  0.00    -0.369 OA
ATOM      3  O   UNL     1     -16.550   2.450  23.790  0.00  0.00    -0.368 OA
ATOM     11  C   UNL     1     -15.878   2.978  24.953  0.00  0.00    +0.171 C 
ATOM     12  C   UNL     1     -15.745   4.474  24.743  0.00  0.00    +0.191 C 
ATOM     13  C   UNL     1     -16.772   2.857  26.162  0.00  0.00    +0.133 C 
ATOM     14  C   UNL     1     -15.762   4.598  23.238  0.00  0.00    +0.235 C 
ATOM     15  C   UNL     1     -17.650   4.089  26.055  0.00  0.00    +0.183 C 
ATOM     16  C   UNL     1     -16.735   3.511  22.841  0.00  0.00    +0.207 C 
ENDROOT
BRANCH  13   8
ATOM      8  N   UNL     1     -15.962   2.926  27.400  0.00  0.00    -0.182 NA
ATOM     36  H   UNL     1     -15.074   3.440  27.361  0.00  0.00    +0.148 HD
BRANCH   8   1
ATOM      1  S   UNL     1     -16.289   1.863  28.683  0.00  0.00    +0.061 S 
ATOM      5  O   UNL     1     -15.750   0.553  28.375  0.00  0.00    -0.153 OA
ATOM      6  O   UNL     1     -17.681   2.008  29.066  0.00  0.00    -0.153 OA
BRANCH   1  17
ATOM     10  N   UNL     1     -16.461   4.628  29.784  0.00  0.00    -0.253 NA
ATOM     17  C   UNL     1     -15.321   2.558  29.989  0.00  0.00    +0.131 A 
ATOM     19  C   UNL     1     -15.526   3.870  30.386  0.00  0.00    +0.097 A 
ATOM     20  C   UNL     1     -14.366   1.738  30.582  0.00  0.00    +0.031 A 
ATOM     21  C   UNL     1     -14.723   4.370  31.433  0.00  0.00    +0.002 A 
ATOM     22  C   UNL     1     -13.579   2.237  31.613  0.00  0.00    +0.003 A 
ATOM     24  C   UNL     1     -13.756   3.550  32.039  0.00  0.00    +0.010 A 
ATOM     25  C   UNL     1     -14.922   5.696  31.841  0.00  0.00    +0.011 A 
ATOM     29  C   UNL     1     -16.622   5.903  30.208  0.00  0.00    +0.111 A 
ATOM     31  C   UNL     1     -15.885   6.480  31.223  0.00  0.00    +0.020 A 
ENDBRANCH   1  17
ENDBRANCH   8   1
ENDBRANCH  13   8
BRANCH  14   4
ATOM      4  O   UNL     1     -16.168   5.868  22.782  0.00  0.00    -0.442 OA
BRANCH   4  18
ATOM      7  O   UNL     1     -14.861   7.717  23.101  0.00  0.00    -0.226 OA
ATOM      9  N   UNL     1     -14.623   6.354  21.213  0.00  0.00    -0.251 N 
ATOM     18  C   UNL     1     -15.171   6.749  22.418  0.00  0.00    +0.405 C 
ATOM     37  H   UNL     1     -15.017   5.515  20.794  0.00  0.00    +0.158 HD
BRANCH   9  23
ATOM     23  C   UNL     1     -13.581   6.974  20.487  0.00  0.00    +0.036 A 
ATOM     26  C   UNL     1     -12.272   6.833  20.923  0.00  0.00    +0.024 A 
ATOM     27  C   UNL     1     -13.887   7.712  19.355  0.00  0.00    +0.024 A 
ATOM     28  C   UNL     1     -11.536   8.191  19.065  0.00  0.00    -0.045 A 
ATOM     32  C   UNL     1     -11.244   7.447  20.207  0.00  0.00    +0.006 A 
ATOM     33  C   UNL     1     -12.859   8.324  18.638  0.00  0.00    +0.006 A 
BRANCH  28  30
ATOM     30  C   UNL     1     -10.437   8.847  18.299  0.00  0.00    +0.013 C 
ATOM     34  C   UNL     1     -10.557   8.614  16.782  0.00  0.00    +0.012 C 
ATOM     35  C   UNL     1     -10.335  10.356  18.590  0.00  0.00    +0.012 C 
ENDBRANCH  28  30
ENDBRANCH   9  23
ENDBRANCH   4  18
ENDBRANCH  14   4
TORSDOF 7
ENDMDL
MODEL 2
REMARK VINA RESULT:      -7.8     28.966     32.570
REMARK  Name = 11884107
REMARK  9 active torsions:
REMARK  status: ('A' for Active; 'I' for Inactive)
REMARK    1  A    between atoms: S_1  and  N_8
REMARK    2  A    between atoms: S_1  and  C_17
REMARK    3  A    between atoms: O_4  and  C_14
REMARK    4  A    between atoms: O_4  and  C_18
REMARK    5  A    between atoms: N_8  and  C_13
REMARK    6  A    between atoms: N_9  and  C_23
REMARK    7  A    between atoms: C_28  and  C_30
REMARK    8  A    between atoms: C_30  and  C_34
REMARK    9  A    between atoms: C_30  and  C_35
REMARK                            x       y       z     vdW  Elec       q    Type
REMARK                         _______ _______ _______ _____ _____    ______ ____
ROOT
ATOM      2  O   UNL     1      16.285   8.901  20.582  0.00  0.00    -0.369 OA
ATOM      3  O   UNL     1      15.030   6.283  19.566  0.00  0.00    -0.368 OA
ATOM     11  C   UNL     1      14.784   7.070  20.750  0.00  0.00    +0.171 C 
ATOM     12  C   UNL     1      16.125   7.615  21.203  0.00  0.00    +0.191 C 
ATOM     13  C   UNL     1      13.993   8.303  20.392  0.00  0.00    +0.133 C 
ATOM     14  C   UNL     1      17.097   6.601  20.646  0.00  0.00    +0.235 C 
ATOM     15  C   UNL     1      15.064   9.267  19.920  0.00  0.00    +0.183 C 
ATOM     16  C   UNL     1      16.446   6.225  19.335  0.00  0.00    +0.207 C 
ENDROOT
BRANCH  13   8
ATOM      8  N   UNL     1      13.328   8.847  21.600  0.00  0.00    -0.182 NA
ATOM     36  H   UNL     1      13.872   8.881  22.469  0.00  0.00    +0.148 HD
BRANCH   8   1
ATOM      1  S   UNL     1      11.639   9.012  21.631  0.00  0.00    +0.061 S 
ATOM      5  O   UNL     1      11.080   8.081  22.591  0.00  0.00    -0.153 OA
ATOM      6  O   UNL     1      11.146   9.035  20.266  0.00  0.00    -0.153 OA
BRANCH   1  17
ATOM     10  N   UNL     1      12.486  11.571  20.357  0.00  0.00    -0.253 NA
ATOM     17  C   UNL     1      11.443  10.646  22.276  0.00  0.00    +0.131 A 
ATOM     19  C   UNL     1      11.895  11.739  21.555  0.00  0.00    +0.097 A 
ATOM     20  C   UNL     1      10.826  10.772  23.518  0.00  0.00    +0.031 A 
ATOM     21  C   UNL     1      11.712  13.018  22.121  0.00  0.00    +0.002 A 
ATOM     22  C   UNL     1      10.649  12.035  24.069  0.00  0.00    +0.003 A 
ATOM     24  C   UNL     1      11.090  13.157  23.374  0.00  0.00    +0.010 A 
ATOM     25  C   UNL     1      12.166  14.131  21.400  0.00  0.00    +0.011 A 
ATOM     29  C   UNL     1      12.910  12.670  19.692  0.00  0.00    +0.111 A 
ATOM     31  C   UNL     1      12.776  13.960  20.165  0.00  0.00    +0.020 A 
ENDBRANCH   1  17
ENDBRANCH   8   1
ENDBRANCH  13   8
BRANCH  14   4
ATOM      4  O   UNL     1      18.399   7.109  20.467  0.00  0.00    -0.442 OA
BRANCH   4  18
ATOM      7  O   UNL     1      19.554   6.579  22.368  0.00  0.00    -0.226 OA
ATOM      9  N   UNL     1      20.195   5.757  20.271  0.00  0.00    -0.251 N 
ATOM     18  C   UNL     1      19.415   6.479  21.155  0.00  0.00    +0.405 C 
ATOM     37  H   UNL     1      19.918   5.798  19.293  0.00  0.00    +0.158 HD
BRANCH   9  23
ATOM     23  C   UNL     1      21.333   4.971  20.557  0.00  0.00    +0.036 A 
ATOM     26  C   UNL     1      21.166   3.648  20.938  0.00  0.00    +0.024 A 
ATOM     27  C   UNL     1      22.594   5.537  20.455  0.00  0.00    +0.024 A 
ATOM     28  C   UNL     1      23.565   3.428  21.121  0.00  0.00    -0.045 A 
ATOM     32  C   UNL     1      22.290   2.872  21.223  0.00  0.00    +0.006 A 
ATOM     33  C   UNL     1      23.717   4.761  20.737  0.00  0.00    +0.006 A 
BRANCH  28  30
ATOM     30  C   UNL     1      24.767   2.599  21.425  0.00  0.00    +0.013 C 
ATOM     34  C   UNL     1      24.455   1.091  21.433  0.00  0.00    +0.012 C 
ATOM     35  C   UNL     1      25.938   2.885  20.467  0.00  0.00    +0.012 C 
ENDBRANCH  28  30
ENDBRANCH   9  23
ENDBRANCH   4  18
ENDBRANCH  14   4
TORSDOF 7
ENDMDL
MODEL 3
REMARK VINA RESULT:      -7.4     19.786     21.613
REMARK  Name = 11884107
REMARK  9 active torsions:
REMARK  status: ('A' for Active; 'I' for Inactive)
REMARK    1  A    between atoms: S_1  and  N_8
REMARK    2  A    between atoms: S_1  and  C_17
REMARK    3  A    between atoms: O_4  and  C_14
REMARK    4  A    between atoms: O_4  and  C_18
REMARK    5  A    between atoms: N_8  and  C_13
REMARK    6  A    between atoms: N_9  and  C_23
REMARK    7  A    between atoms: C_28  and  C_30
REMARK    8  A    between atoms: C_30  and  C_34
REMARK    9  A    between atoms: C_30  and  C_35
REMARK                            x       y       z     vdW  Elec       q    Type
REMARK                         _______ _______ _______ _____ _____    ______ ____
ROOT
ATOM      2  O   UNL     1      -3.965 -12.104  14.658  0.00  0.00    -0.369 OA
ATOM      3  O   UNL     1      -2.008 -10.789  16.633  0.00  0.00    -0.368 OA
ATOM     11  C   UNL     1      -3.363 -10.462  16.262  0.00  0.00    +0.171 C 
ATOM     12  C   UNL     1      -3.495 -10.752  14.779  0.00  0.00    +0.191 C 
ATOM     13  C   UNL     1      -4.322 -11.430  16.909  0.00  0.00    +0.133 C 
ATOM     14  C   UNL     1      -2.074 -10.607  14.288  0.00  0.00    +0.235 C 
ATOM     15  C   UNL     1      -4.299 -12.612  15.959  0.00  0.00    +0.183 C 
ATOM     16  C   UNL     1      -1.279 -11.154  15.452  0.00  0.00    +0.207 C 
ENDROOT
BRANCH  13   8
ATOM      8  N   UNL     1      -5.683 -10.846  16.948  0.00  0.00    -0.182 NA
ATOM     36  H   UNL     1      -5.881 -10.055  16.324  0.00  0.00    +0.148 HD
BRANCH   8   1
ATOM      1  S   UNL     1      -6.716 -11.201  18.248  0.00  0.00    +0.061 S 
ATOM      5  O   UNL     1      -6.134 -10.702  19.478  0.00  0.00    -0.153 OA
ATOM      6  O   UNL     1      -7.134 -12.587  18.148  0.00  0.00    -0.153 OA
BRANCH   1  17
ATOM     10  N   UNL     1      -9.390 -11.294  19.564  0.00  0.00    -0.253 NA
ATOM     17  C   UNL     1      -8.131 -10.209  17.871  0.00  0.00    +0.131 A 
ATOM     19  C   UNL     1      -9.309 -10.378  18.581  0.00  0.00    +0.097 A 
ATOM     20  C   UNL     1      -8.001  -9.274  16.849  0.00  0.00    +0.031 A 
ATOM     21  C   UNL     1     -10.404  -9.558  18.236  0.00  0.00    +0.002 A 
ATOM     22  C   UNL     1      -9.084  -8.471  16.513  0.00  0.00    +0.003 A 
ATOM     24  C   UNL     1     -10.284  -8.611  17.205  0.00  0.00    +0.010 A 
ATOM     25  C   UNL     1     -11.600  -9.721  18.948  0.00  0.00    +0.011 A 
ATOM     29  C   UNL     1     -10.562 -11.419  20.227  0.00  0.00    +0.111 A 
ATOM     31  C   UNL     1     -11.686 -10.665  19.961  0.00  0.00    +0.020 A 
ENDBRANCH   1  17
ENDBRANCH   8   1
ENDBRANCH  13   8
BRANCH  14   4
ATOM      4  O   UNL     1      -1.817 -11.308  13.093  0.00  0.00    -0.442 OA
BRANCH   4  18
ATOM      7  O   UNL     1      -1.463  -9.728  11.478  0.00  0.00    -0.226 OA
ATOM      9  N   UNL     1      -3.248 -11.239  11.350  0.00  0.00    -0.251 N 
ATOM     18  C   UNL     1      -2.124 -10.663  11.913  0.00  0.00    +0.405 C 
ATOM     37  H   UNL     1      -3.661 -12.012  11.865  0.00  0.00    +0.158 HD
BRANCH   9  23
ATOM     23  C   UNL     1      -3.897 -10.883  10.146  0.00  0.00    +0.036 A 
ATOM     26  C   UNL     1      -4.349  -9.583   9.977  0.00  0.00    +0.024 A 
ATOM     27  C   UNL     1      -4.071 -11.840   9.160  0.00  0.00    +0.024 A 
ATOM     28  C   UNL     1      -5.173 -10.185   7.787  0.00  0.00    -0.045 A 
ATOM     32  C   UNL     1      -4.992  -9.233   8.790  0.00  0.00    +0.006 A 
ATOM     33  C   UNL     1      -4.712 -11.489   7.972  0.00  0.00    +0.006 A 
BRANCH  28  30
ATOM     30  C   UNL     1      -5.859  -9.810   6.517  0.00  0.00    +0.013 C 
ATOM     34  C   UNL     1      -5.846 -10.951   5.483  0.00  0.00    +0.012 C 
ATOM     35  C   UNL     1      -7.304  -9.329   6.748  0.00  0.00    +0.012 C 
ENDBRANCH  28  30
ENDBRANCH   9  23
ENDBRANCH   4  18
ENDBRANCH  14   4
TORSDOF 7
ENDMDL
MODEL 4
REMARK VINA RESULT:      -7.3     17.444     20.404
REMARK  Name = 11884107
REMARK  9 active torsions:
REMARK  status: ('A' for Active; 'I' for Inactive)
REMARK    1  A    between atoms: S_1  and  N_8
REMARK    2  A    between atoms: S_1  and  C_17
REMARK    3  A    between atoms: O_4  and  C_14
REMARK    4  A    between atoms: O_4  and  C_18
REMARK    5  A    between atoms: N_8  and  C_13
REMARK    6  A    between atoms: N_9  and  C_23
REMARK    7  A    between atoms: C_28  and  C_30
REMARK    8  A    between atoms: C_30  and  C_34
REMARK    9  A    between atoms: C_30  and  C_35
REMARK                            x       y       z     vdW  Elec       q    Type
REMARK                         _______ _______ _______ _____ _____    ______ ____
ROOT
ATOM      2  O   UNL     1      -9.345  -5.472   8.934  0.00  0.00    -0.369 OA
ATOM      3  O   UNL     1     -11.828  -6.421   7.387  0.00  0.00    -0.368 OA
ATOM     11  C   UNL     1     -11.530  -6.389   8.798  0.00  0.00    +0.171 C 
ATOM     12  C   UNL     1     -10.057  -6.721   8.944  0.00  0.00    +0.191 C 
ATOM     13  C   UNL     1     -11.638  -4.976   9.314  0.00  0.00    +0.133 C 
ATOM     14  C   UNL     1      -9.778  -7.533   7.702  0.00  0.00    +0.235 C 
ATOM     15  C   UNL     1     -10.284  -4.387   8.969  0.00  0.00    +0.183 C 
ATOM     16  C   UNL     1     -10.660  -6.857   6.676  0.00  0.00    +0.207 C 
ENDROOT
BRANCH  13   8
ATOM      8  N   UNL     1     -11.819  -4.987  10.785  0.00  0.00    -0.182 NA
ATOM     36  H   UNL     1     -11.500  -5.816  11.299  0.00  0.00    +0.148 HD
BRANCH   8   1
ATOM      1  S   UNL     1     -12.870  -3.870  11.514  0.00  0.00    +0.061 S 
ATOM      5  O   UNL     1     -13.765  -3.324  10.513  0.00  0.00    -0.153 OA
ATOM      6  O   UNL     1     -12.094  -2.983  12.361  0.00  0.00    -0.153 OA
BRANCH   1  17
ATOM     10  N   UNL     1     -11.937  -5.232  13.997  0.00  0.00    -0.253 NA
ATOM     17  C   UNL     1     -13.818  -4.907  12.587  0.00  0.00    +0.131 A 
ATOM     19  C   UNL     1     -13.231  -5.470  13.710  0.00  0.00    +0.097 A 
ATOM     20  C   UNL     1     -15.151  -5.124  12.252  0.00  0.00    +0.031 A 
ATOM     21  C   UNL     1     -14.037  -6.289  14.528  0.00  0.00    +0.002 A 
ATOM     22  C   UNL     1     -15.939  -5.932  13.062  0.00  0.00    +0.003 A 
ATOM     24  C   UNL     1     -15.384  -6.514  14.199  0.00  0.00    +0.010 A 
ATOM     25  C   UNL     1     -13.453  -6.862  15.666  0.00  0.00    +0.011 A 
ATOM     29  C   UNL     1     -11.412  -5.804  15.105  0.00  0.00    +0.111 A 
ATOM     31  C   UNL     1     -12.120  -6.620  15.964  0.00  0.00    +0.020 A 
ENDBRANCH   1  17
ENDBRANCH   8   1
ENDBRANCH  13   8
BRANCH  14   4
ATOM      4  O   UNL     1      -8.422  -7.530   7.320  0.00  0.00    -0.442 OA
BRANCH   4  18
ATOM      7  O   UNL     1      -7.720  -9.691   7.586  0.00  0.00    -0.226 OA
ATOM      9  N   UNL     1      -6.725  -7.922   8.754  0.00  0.00    -0.251 N 
ATOM     18  C   UNL     1      -7.616  -8.504   7.873  0.00  0.00    +0.405 C 
ATOM     37  H   UNL     1      -6.794  -6.913   8.860  0.00  0.00    +0.158 HD
BRANCH   9  23
ATOM     23  C   UNL     1      -5.730  -8.556   9.532  0.00  0.00    +0.036 A 
ATOM     26  C   UNL     1      -6.048  -9.010  10.802  0.00  0.00    +0.024 A 
ATOM     27  C   UNL     1      -4.456  -8.711   9.010  0.00  0.00    +0.024 A 
ATOM     28  C   UNL     1      -3.778  -9.799  11.058  0.00  0.00    -0.045 A 
ATOM     32  C   UNL     1      -5.065  -9.634  11.571  0.00  0.00    +0.006 A 
ATOM     33  C   UNL     1      -3.474  -9.337   9.777  0.00  0.00    +0.006 A 
BRANCH  28  30
ATOM     30  C   UNL     1      -2.727 -10.467  11.878  0.00  0.00    +0.013 C 
ATOM     34  C   UNL     1      -1.347  -9.803  11.719  0.00  0.00    +0.012 C 
ATOM     35  C   UNL     1      -3.103 -10.542  13.370  0.00  0.00    +0.012 C 
ENDBRANCH  28  30
ENDBRANCH   9  23
ENDBRANCH   4  18
ENDBRANCH  14   4
TORSDOF 7
ENDMDL
MODEL 5
REMARK VINA RESULT:      -7.2     18.057     20.004
REMARK  Name = 11884107
REMARK  9 active torsions:
REMARK  status: ('A' for Active; 'I' for Inactive)
REMARK    1  A    between atoms: S_1  and  N_8
REMARK    2  A    between atoms: S_1  and  C_17
REMARK    3  A    between atoms: O_4  and  C_14
REMARK    4  A    between atoms: O_4  and  C_18
REMARK    5  A    between atoms: N_8  and  C_13
REMARK    6  A    between atoms: N_9  and  C_23
REMARK    7  A    between atoms: C_28  and  C_30
REMARK    8  A    between atoms: C_30  and  C_34
REMARK    9  A    between atoms: C_30  and  C_35
REMARK                            x       y       z     vdW  Elec       q    Type
REMARK                         _______ _______ _______ _____ _____    ______ ____
ROOT
ATOM      2  O   UNL     1      -7.518 -13.125  18.499  0.00  0.00    -0.369 OA
ATOM      3  O   UNL     1      -6.853 -10.657  20.210  0.00  0.00    -0.368 OA
ATOM     11  C   UNL     1      -7.821 -10.866  19.160  0.00  0.00    +0.171 C 
ATOM     12  C   UNL     1      -7.170 -11.778  18.138  0.00  0.00    +0.191 C 
ATOM     13  C   UNL     1      -8.981 -11.675  19.684  0.00  0.00    +0.133 C 
ATOM     14  C   UNL     1      -5.699 -11.506  18.344  0.00  0.00    +0.235 C 
ATOM     15  C   UNL     1      -8.479 -13.100  19.566  0.00  0.00    +0.183 C 
ATOM     16  C   UNL     1      -5.622 -11.294  19.839  0.00  0.00    +0.207 C 
ENDROOT
BRANCH  13   8
ATOM      8  N   UNL     1     -10.164 -11.487  18.811  0.00  0.00    -0.182 NA
ATOM     36  H   UNL     1     -10.004 -11.411  17.800  0.00  0.00    +0.148 HD
BRANCH   8   1
ATOM      1  S   UNL     1     -11.645 -11.009  19.489  0.00  0.00    +0.061 S 
ATOM      5  O   UNL     1     -11.406 -10.034  20.536  0.00  0.00    -0.153 OA
ATOM      6  O   UNL     1     -12.438 -12.193  19.762  0.00  0.00    -0.153 OA
BRANCH   1  17
ATOM     10  N   UNL     1     -10.508  -8.794  17.849  0.00  0.00    -0.253 NA
ATOM     17  C   UNL     1     -12.415 -10.175  18.133  0.00  0.00    +0.131 A 
ATOM     19  C   UNL     1     -11.748  -9.157  17.470  0.00  0.00    +0.097 A 
ATOM     20  C   UNL     1     -13.697 -10.585  17.777  0.00  0.00    +0.031 A 
ATOM     21  C   UNL     1     -12.413  -8.529  16.397  0.00  0.00    +0.002 A 
ATOM     22  C   UNL     1     -14.346  -9.961  16.718  0.00  0.00    +0.003 A 
ATOM     24  C   UNL     1     -13.707  -8.935  16.029  0.00  0.00    +0.010 A 
ATOM     25  C   UNL     1     -11.746  -7.499  15.720  0.00  0.00    +0.011 A 
ATOM     29  C   UNL     1      -9.899  -7.795  17.169  0.00  0.00    +0.111 A 
ATOM     31  C   UNL     1     -10.469  -7.121  16.108  0.00  0.00    +0.020 A 
ENDBRANCH   1  17
ENDBRANCH   8   1
ENDBRANCH  13   8
BRANCH  14   4
ATOM      4  O   UNL     1      -4.866 -12.559  17.914  0.00  0.00    -0.442 OA
BRANCH   4  18
ATOM      7  O   UNL     1      -4.732 -13.605  15.885  0.00  0.00    -0.226 OA
ATOM      9  N   UNL     1      -4.062 -11.380  16.167  0.00  0.00    -0.251 N 
ATOM     18  C   UNL     1      -4.562 -12.604  16.569  0.00  0.00    +0.405 C 
ATOM     37  H   UNL     1      -3.994 -10.664  16.887  0.00  0.00    +0.158 HD
BRANCH   9  23
ATOM     23  C   UNL     1      -3.628 -10.999  14.877  0.00  0.00    +0.036 A 
ATOM     26  C   UNL     1      -2.279 -10.767  14.655  0.00  0.00    +0.024 A 
ATOM     27  C   UNL     1      -4.559 -10.862  13.860  0.00  0.00    +0.024 A 
ATOM     28  C   UNL     1      -2.777 -10.249  12.348  0.00  0.00    -0.045 A 
ATOM     32  C   UNL     1      -1.851 -10.389  13.382  0.00  0.00    +0.006 A 
ATOM     33  C   UNL     1      -4.131 -10.485  12.587  0.00  0.00    +0.006 A 
BRANCH  28  30
ATOM     30  C   UNL     1      -2.320  -9.845  10.987  0.00  0.00    +0.013 C 
ATOM     34  C   UNL     1      -3.404  -9.082  10.205  0.00  0.00    +0.012 C 
ATOM     35  C   UNL     1      -1.021  -9.018  11.022  0.00  0.00    +0.012 C 
ENDBRANCH  28  30
ENDBRANCH   9  23
ENDBRANCH   4  18
ENDBRANCH  14   4
TORSDOF 7
ENDMDL
MODEL 6
REMARK VINA RESULT:      -7.2     16.891     20.188
REMARK  Name = 11884107
REMARK  9 active torsions:
REMARK  status: ('A' for Active; 'I' for Inactive)
REMARK    1  A    between atoms: S_1  and  N_8
REMARK    2  A    between atoms: S_1  and  C_17
REMARK    3  A    between atoms: O_4  and  C_14
REMARK    4  A    between atoms: O_4  and  C_18
REMARK    5  A    between atoms: N_8  and  C_13
REMARK    6  A    between atoms: N_9  and  C_23
REMARK    7  A    between atoms: C_28  and  C_30
REMARK    8  A    between atoms: C_30  and  C_34
REMARK    9  A    between atoms: C_30  and  C_35
REMARK                            x       y       z     vdW  Elec       q    Type
REMARK                         _______ _______ _______ _____ _____    ______ ____
ROOT
ATOM      2  O   UNL     1     -11.783  -8.800  15.140  0.00  0.00    -0.369 OA
ATOM      3  O   UNL     1     -10.968  -6.219  16.601  0.00  0.00    -0.368 OA
ATOM     11  C   UNL     1     -10.993  -6.563  15.200  0.00  0.00    +0.171 C 
ATOM     12  C   UNL     1     -10.578  -8.018  15.097  0.00  0.00    +0.191 C 
ATOM     13  C   UNL     1     -12.413  -6.552  14.693  0.00  0.00    +0.133 C 
ATOM     14  C   UNL     1      -9.743  -8.211  16.340  0.00  0.00    +0.235 C 
ATOM     15  C   UNL     1     -12.921  -7.926  15.085  0.00  0.00    +0.183 C 
ATOM     16  C   UNL     1     -10.461  -7.338  17.344  0.00  0.00    +0.207 C 
ENDROOT
BRANCH  13   8
ATOM      8  N   UNL     1     -12.423  -6.417  13.217  0.00  0.00    -0.182 NA
ATOM     36  H   UNL     1     -11.744  -6.971  12.683  0.00  0.00    +0.148 HD
BRANCH   8   1
ATOM      1  S   UNL     1     -13.231  -5.111  12.495  0.00  0.00    +0.061 S 
ATOM      5  O   UNL     1     -13.110  -3.940  13.341  0.00  0.00    -0.153 OA
ATOM      6  O   UNL     1     -14.539  -5.558  12.051  0.00  0.00    -0.153 OA
BRANCH   1  17
ATOM     10  N   UNL     1     -12.215  -7.166  10.589  0.00  0.00    -0.253 NA
ATOM     17  C   UNL     1     -12.260  -4.838  11.043  0.00  0.00    +0.131 A 
ATOM     19  C   UNL     1     -11.864  -5.909  10.258  0.00  0.00    +0.097 A 
ATOM     20  C   UNL     1     -11.922  -3.522  10.740  0.00  0.00    +0.031 A 
ATOM     21  C   UNL     1     -11.090  -5.629   9.112  0.00  0.00    +0.002 A 
ATOM     22  C   UNL     1     -11.159  -3.255   9.610  0.00  0.00    +0.003 A 
ATOM     24  C   UNL     1     -10.744  -4.305   8.796  0.00  0.00    +0.010 A 
ATOM     25  C   UNL     1     -10.685  -6.706   8.311  0.00  0.00    +0.011 A 
ATOM     29  C   UNL     1     -11.804  -8.176   9.789  0.00  0.00    +0.111 A 
ATOM     31  C   UNL     1     -11.045  -8.002   8.650  0.00  0.00    +0.020 A 
ENDBRANCH   1  17
ENDBRANCH   8   1
ENDBRANCH  13   8
BRANCH  14   4
ATOM      4  O   UNL     1      -9.665  -9.553  16.764  0.00  0.00    -0.442 OA
BRANCH   4  18
ATOM      7  O   UNL     1      -8.707 -11.352  15.726  0.00  0.00    -0.226 OA
ATOM      9  N   UNL     1      -7.413  -9.630  16.643  0.00  0.00    -0.251 N 
ATOM     18  C   UNL     1      -8.584 -10.286  16.317  0.00  0.00    +0.405 C 
ATOM     37  H   UNL     1      -7.516  -8.748  17.140  0.00  0.00    +0.158 HD
BRANCH   9  23
ATOM     23  C   UNL     1      -6.086 -10.034  16.374  0.00  0.00    +0.036 A 
ATOM     26  C   UNL     1      -5.250 -10.364  17.429  0.00  0.00    +0.024 A 
ATOM     27  C   UNL     1      -5.645 -10.088  15.061  0.00  0.00    +0.024 A 
ATOM     28  C   UNL     1      -3.482 -10.823  15.847  0.00  0.00    -0.045 A 
ATOM     32  C   UNL     1      -3.939 -10.760  17.163  0.00  0.00    +0.006 A 
ATOM     33  C   UNL     1      -4.336 -10.487  14.795  0.00  0.00    +0.006 A 
BRANCH  28  30
ATOM     30  C   UNL     1      -2.081 -11.247  15.562  0.00  0.00    +0.013 C 
ATOM     34  C   UNL     1      -1.964 -12.054  14.256  0.00  0.00    +0.012 C 
ATOM     35  C   UNL     1      -1.100 -10.060  15.533  0.00  0.00    +0.012 C 
ENDBRANCH  28  30
ENDBRANCH   9  23
ENDBRANCH   4  18
ENDBRANCH  14   4
TORSDOF 7
ENDMDL
MODEL 7
REMARK VINA RESULT:      -7.2     18.988     21.897
REMARK  Name = 11884107
REMARK  9 active torsions:
REMARK  status: ('A' for Active; 'I' for Inactive)
REMARK    1  A    between atoms: S_1  and  N_8
REMARK    2  A    between atoms: S_1  and  C_17
REMARK    3  A    between atoms: O_4  and  C_14
REMARK    4  A    between atoms: O_4  and  C_18
REMARK    5  A    between atoms: N_8  and  C_13
REMARK    6  A    between atoms: N_9  and  C_23
REMARK    7  A    between atoms: C_28  and  C_30
REMARK    8  A    between atoms: C_30  and  C_34
REMARK    9  A    between atoms: C_30  and  C_35
REMARK                            x       y       z     vdW  Elec       q    Type
REMARK                         _______ _______ _______ _____ _____    ______ ____
ROOT
ATOM      2  O   UNL     1      -5.744 -10.104  16.981  0.00  0.00    -0.369 OA
ATOM      3  O   UNL     1      -4.411 -12.383  18.560  0.00  0.00    -0.368 OA
ATOM     11  C   UNL     1      -4.883 -12.305  17.198  0.00  0.00    +0.171 C 
ATOM     12  C   UNL     1      -6.145 -11.464  17.218  0.00  0.00    +0.191 C 
ATOM     13  C   UNL     1      -3.919 -11.498  16.365  0.00  0.00    +0.133 C 
ATOM     14  C   UNL     1      -6.650 -11.660  18.627  0.00  0.00    +0.235 C 
ATOM     15  C   UNL     1      -4.349 -10.070  16.643  0.00  0.00    +0.183 C 
ATOM     16  C   UNL     1      -5.363 -11.736  19.418  0.00  0.00    +0.207 C 
ENDROOT
BRANCH  13   8
ATOM      8  N   UNL     1      -4.109 -11.807  14.928  0.00  0.00    -0.182 NA
ATOM     36  H   UNL     1      -5.068 -11.962  14.596  0.00  0.00    +0.148 HD
BRANCH   8   1
ATOM      1  S   UNL     1      -2.781 -12.285  13.986  0.00  0.00    +0.061 S 
ATOM      5  O   UNL     1      -2.987 -13.639  13.512  0.00  0.00    -0.153 OA
ATOM      6  O   UNL     1      -1.560 -11.934  14.687  0.00  0.00    -0.153 OA
BRANCH   1  17
ATOM     10  N   UNL     1      -5.135 -11.905  12.196  0.00  0.00    -0.253 NA
ATOM     17  C   UNL     1      -2.907 -11.196  12.598  0.00  0.00    +0.131 A 
ATOM     19  C   UNL     1      -4.080 -11.137  11.862  0.00  0.00    +0.097 A 
ATOM     20  C   UNL     1      -1.792 -10.421  12.292  0.00  0.00    +0.031 A 
ATOM     21  C   UNL     1      -4.121 -10.251  10.766  0.00  0.00    +0.002 A 
ATOM     22  C   UNL     1      -1.840  -9.550  11.210  0.00  0.00    +0.003 A 
ATOM     24  C   UNL     1      -3.002  -9.464  10.448  0.00  0.00    +0.010 A 
ATOM     25  C   UNL     1      -5.303 -10.184  10.016  0.00  0.00    +0.011 A 
ATOM     29  C   UNL     1      -6.257 -11.810  11.446  0.00  0.00    +0.111 A 
ATOM     31  C   UNL     1      -6.392 -10.974  10.356  0.00  0.00    +0.020 A 
ENDBRANCH   1  17
ENDBRANCH   8   1
ENDBRANCH  13   8
BRANCH  14   4
ATOM      4  O   UNL     1      -7.487 -10.619  19.076  0.00  0.00    -0.442 OA
BRANCH   4  18
ATOM      7  O   UNL     1      -9.582 -11.193  18.359  0.00  0.00    -0.226 OA
ATOM      9  N   UNL     1      -8.560  -9.194  17.696  0.00  0.00    -0.251 N 
ATOM     18  C   UNL     1      -8.648 -10.401  18.362  0.00  0.00    +0.405 C 
ATOM     37  H   UNL     1      -7.696  -8.673  17.823  0.00  0.00    +0.158 HD
BRANCH   9  23
ATOM     23  C   UNL     1      -9.524  -8.593  16.855  0.00  0.00    +0.036 A 
ATOM     26  C   UNL     1      -9.683  -9.063  15.561  0.00  0.00    +0.024 A 
ATOM     27  C   UNL     1     -10.289  -7.544  17.339  0.00  0.00    +0.024 A 
ATOM     28  C   UNL     1     -11.412  -7.413  15.203  0.00  0.00    -0.045 A 
ATOM     32  C   UNL     1     -10.633  -8.469  14.729  0.00  0.00    +0.006 A 
ATOM     33  C   UNL     1     -11.240  -6.950  16.509  0.00  0.00    +0.006 A 
BRANCH  28  30
ATOM     30  C   UNL     1     -12.428  -6.778  14.316  0.00  0.00    +0.013 C 
ATOM     34  C   UNL     1     -13.857  -6.898  14.877  0.00  0.00    +0.012 C 
ATOM     35  C   UNL     1     -12.107  -5.302  14.014  0.00  0.00    +0.012 C 
ENDBRANCH  28  30
ENDBRANCH   9  23
ENDBRANCH   4  18
ENDBRANCH  14   4
TORSDOF 7
ENDMDL
MODEL 8
REMARK VINA RESULT:      -7.0     18.673     22.107
REMARK  Name = 11884107
REMARK  9 active torsions:
REMARK  status: ('A' for Active; 'I' for Inactive)
REMARK    1  A    between atoms: S_1  and  N_8
REMARK    2  A    between atoms: S_1  and  C_17
REMARK    3  A    between atoms: O_4  and  C_14
REMARK    4  A    between atoms: O_4  and  C_18
REMARK    5  A    between atoms: N_8  and  C_13
REMARK    6  A    between atoms: N_9  and  C_23
REMARK    7  A    between atoms: C_28  and  C_30
REMARK    8  A    between atoms: C_30  and  C_34
REMARK    9  A    between atoms: C_30  and  C_35
REMARK                            x       y       z     vdW  Elec       q    Type
REMARK                         _______ _______ _______ _____ _____    ______ ____
ROOT
ATOM      2  O   UNL     1      -6.137 -10.123  17.066  0.00  0.00    -0.369 OA
ATOM      3  O   UNL     1      -4.234 -12.200  18.301  0.00  0.00    -0.368 OA
ATOM     11  C   UNL     1      -4.989 -12.200  17.071  0.00  0.00    +0.171 C 
ATOM     12  C   UNL     1      -6.310 -11.517  17.367  0.00  0.00    +0.191 C 
ATOM     13  C   UNL     1      -4.329 -11.294  16.062  0.00  0.00    +0.133 C 
ATOM     14  C   UNL     1      -6.478 -11.753  18.849  0.00  0.00    +0.235 C 
ATOM     15  C   UNL     1      -4.860  -9.925  16.440  0.00  0.00    +0.183 C 
ATOM     16  C   UNL     1      -5.053 -11.660  19.348  0.00  0.00    +0.207 C 
ENDROOT
BRANCH  13   8
ATOM      8  N   UNL     1      -4.780 -11.646  14.695  0.00  0.00    -0.182 NA
ATOM     36  H   UNL     1      -5.786 -11.601  14.498  0.00  0.00    +0.148 HD
BRANCH   8   1
ATOM      1  S   UNL     1      -3.731 -12.472  13.647  0.00  0.00    +0.061 S 
ATOM      5  O   UNL     1      -4.467 -13.499  12.936  0.00  0.00    -0.153 OA
ATOM      6  O   UNL     1      -2.519 -12.811  14.370  0.00  0.00    -0.153 OA
BRANCH   1  17
ATOM     10  N   UNL     1      -5.591 -10.792  12.033  0.00  0.00    -0.253 NA
ATOM     17  C   UNL     1      -3.301 -11.208  12.488  0.00  0.00    +0.131 A 
ATOM     19  C   UNL     1      -4.292 -10.514  11.813  0.00  0.00    +0.097 A 
ATOM     20  C   UNL     1      -1.946 -10.954  12.294  0.00  0.00    +0.031 A 
ATOM     21  C   UNL     1      -3.889  -9.517  10.901  0.00  0.00    +0.002 A 
ATOM     22  C   UNL     1      -1.555  -9.970  11.393  0.00  0.00    +0.003 A 
ATOM     24  C   UNL     1      -2.524  -9.252  10.698  0.00  0.00    +0.010 A 
ATOM     25  C   UNL     1      -4.884  -8.810  10.213  0.00  0.00    +0.011 A 
ATOM     29  C   UNL     1      -6.521 -10.086  11.349  0.00  0.00    +0.111 A 
ATOM     31  C   UNL     1      -6.223  -9.095  10.437  0.00  0.00    +0.020 A 
ENDBRANCH   1  17
ENDBRANCH   8   1
ENDBRANCH  13   8
BRANCH  14   4
ATOM      4  O   UNL     1      -7.322 -10.814  19.477  0.00  0.00    -0.442 OA
BRANCH   4  18
ATOM      7  O   UNL     1      -9.052 -12.269  19.823  0.00  0.00    -0.226 OA
ATOM      9  N   UNL     1      -9.425 -10.014  19.317  0.00  0.00    -0.251 N 
ATOM     18  C   UNL     1      -8.660 -11.138  19.563  0.00  0.00    +0.405 C 
ATOM     37  H   UNL     1      -8.913  -9.158  19.117  0.00  0.00    +0.158 HD
BRANCH   9  23
ATOM     23  C   UNL     1     -10.834  -9.906  19.305  0.00  0.00    +0.036 A 
ATOM     26  C   UNL     1     -11.531  -9.987  20.501  0.00  0.00    +0.024 A 
ATOM     27  C   UNL     1     -11.491  -9.723  18.099  0.00  0.00    +0.024 A 
ATOM     28  C   UNL     1     -13.597  -9.697  19.283  0.00  0.00    -0.045 A 
ATOM     32  C   UNL     1     -12.922  -9.883  20.489  0.00  0.00    +0.006 A 
ATOM     33  C   UNL     1     -12.882  -9.617  18.088  0.00  0.00    +0.006 A 
BRANCH  28  30
ATOM     30  C   UNL     1     -15.084  -9.584  19.270  0.00  0.00    +0.013 C 
ATOM     34  C   UNL     1     -15.655  -9.172  20.640  0.00  0.00    +0.012 C 
ATOM     35  C   UNL     1     -15.594  -8.623  18.180  0.00  0.00    +0.012 C 
ENDBRANCH  28  30
ENDBRANCH   9  23
ENDBRANCH   4  18
ENDBRANCH  14   4
TORSDOF 7
ENDMDL
MODEL 9
REMARK VINA RESULT:      -6.8     31.392     36.660
REMARK  Name = 11884107
REMARK  9 active torsions:
REMARK  status: ('A' for Active; 'I' for Inactive)
REMARK    1  A    between atoms: S_1  and  N_8
REMARK    2  A    between atoms: S_1  and  C_17
REMARK    3  A    between atoms: O_4  and  C_14
REMARK    4  A    between atoms: O_4  and  C_18
REMARK    5  A    between atoms: N_8  and  C_13
REMARK    6  A    between atoms: N_9  and  C_23
REMARK    7  A    between atoms: C_28  and  C_30
REMARK    8  A    between atoms: C_30  and  C_34
REMARK    9  A    between atoms: C_30  and  C_35
REMARK                            x       y       z     vdW  Elec       q    Type
REMARK                         _______ _______ _______ _____ _____    ______ ____
ROOT
ATOM      2  O   UNL     1      14.337   6.736   6.932  0.00  0.00    -0.369 OA
ATOM      3  O   UNL     1      13.066   9.342   5.904  0.00  0.00    -0.368 OA
ATOM     11  C   UNL     1      13.001   7.985   5.419  0.00  0.00    +0.171 C 
ATOM     12  C   UNL     1      14.370   7.371   5.643  0.00  0.00    +0.191 C 
ATOM     13  C   UNL     1      12.087   7.168   6.298  0.00  0.00    +0.133 C 
ATOM     14  C   UNL     1      15.276   8.579   5.637  0.00  0.00    +0.235 C 
ATOM     15  C   UNL     1      12.995   6.763   7.443  0.00  0.00    +0.183 C 
ATOM     16  C   UNL     1      14.415   9.625   6.306  0.00  0.00    +0.207 C 
ENDROOT
BRANCH  13   8
ATOM      8  N   UNL     1      11.630   5.961   5.571  0.00  0.00    -0.182 NA
ATOM     36  H   UNL     1      12.264   5.555   4.873  0.00  0.00    +0.148 HD
BRANCH   8   1
ATOM      1  S   UNL     1       9.988   5.530   5.600  0.00  0.00    +0.061 S 
ATOM      5  O   UNL     1       9.440   5.801   6.914  0.00  0.00    -0.153 OA
ATOM      6  O   UNL     1       9.839   4.215   5.005  0.00  0.00    -0.153 OA
BRANCH   1  17
ATOM     10  N   UNL     1      10.768   5.974   2.757  0.00  0.00    -0.253 NA
ATOM     17  C   UNL     1       9.286   6.690   4.465  0.00  0.00    +0.131 A 
ATOM     19  C   UNL     1       9.766   6.774   3.168  0.00  0.00    +0.097 A 
ATOM     20  C   UNL     1       8.251   7.495   4.934  0.00  0.00    +0.031 A 
ATOM     21  C   UNL     1       9.167   7.718   2.308  0.00  0.00    +0.002 A 
ATOM     22  C   UNL     1       7.666   8.424   4.082  0.00  0.00    +0.003 A 
ATOM     24  C   UNL     1       8.122   8.536   2.771  0.00  0.00    +0.010 A 
ATOM     25  C   UNL     1       9.645   7.811   0.994  0.00  0.00    +0.011 A 
ATOM     29  C   UNL     1      11.200   6.095   1.481  0.00  0.00    +0.111 A 
ATOM     31  C   UNL     1      10.678   6.989   0.568  0.00  0.00    +0.020 A 
ENDBRANCH   1  17
ENDBRANCH   8   1
ENDBRANCH  13   8
BRANCH  14   4
ATOM      4  O   UNL     1      16.491   8.374   6.322  0.00  0.00    -0.442 OA
BRANCH   4  18
ATOM      7  O   UNL     1      17.633   9.345   4.595  0.00  0.00    -0.226 OA
ATOM      9  N   UNL     1      18.739   8.486   6.472  0.00  0.00    -0.251 N 
ATOM     18  C   UNL     1      17.643   8.791   5.688  0.00  0.00    +0.405 C 
ATOM     37  H   UNL     1      18.543   8.021   7.355  0.00  0.00    +0.158 HD
BRANCH   9  23
ATOM     23  C   UNL     1      20.102   8.737   6.197  0.00  0.00    +0.036 A 
ATOM     26  C   UNL     1      20.884   7.726   5.661  0.00  0.00    +0.024 A 
ATOM     27  C   UNL     1      20.631   9.988   6.470  0.00  0.00    +0.024 A 
ATOM     28  C   UNL     1      22.776   9.228   5.660  0.00  0.00    -0.045 A 
ATOM     32  C   UNL     1      22.231   7.973   5.392  0.00  0.00    +0.006 A 
ATOM     33  C   UNL     1      21.976  10.237   6.199  0.00  0.00    +0.006 A 
BRANCH  28  30
ATOM     30  C   UNL     1      24.215   9.494   5.372  0.00  0.00    +0.013 C 
ATOM     34  C   UNL     1      24.910  10.267   6.508  0.00  0.00    +0.012 C 
ATOM     35  C   UNL     1      25.001   8.207   5.057  0.00  0.00    +0.012 C 
ENDBRANCH  28  30
ENDBRANCH   9  23
ENDBRANCH   4  18
ENDBRANCH  14   4
TORSDOF 7
ENDMDL
MODEL 10
REMARK VINA RESULT:      -6.7     28.591     32.238
REMARK  Name = 11884107
REMARK  9 active torsions:
REMARK  status: ('A' for Active; 'I' for Inactive)
REMARK    1  A    between atoms: S_1  and  N_8
REMARK    2  A    between atoms: S_1  and  C_17
REMARK    3  A    between atoms: O_4  and  C_14
REMARK    4  A    between atoms: O_4  and  C_18
REMARK    5  A    between atoms: N_8  and  C_13
REMARK    6  A    between atoms: N_9  and  C_23
REMARK    7  A    between atoms: C_28  and  C_30
REMARK    8  A    between atoms: C_30  and  C_34
REMARK    9  A    between atoms: C_30  and  C_35
REMARK                            x       y       z     vdW  Elec       q    Type
REMARK                         _______ _______ _______ _____ _____    ______ ____
ROOT
ATOM      2  O   UNL     1      14.501   9.962  18.603  0.00  0.00    -0.369 OA
ATOM      3  O   UNL     1      12.826   8.103  20.391  0.00  0.00    -0.368 OA
ATOM     11  C   UNL     1      14.103   7.920  19.744  0.00  0.00    +0.171 C 
ATOM     12  C   UNL     1      14.020   8.623  18.403  0.00  0.00    +0.191 C 
ATOM     13  C   UNL     1      15.171   8.680  20.489  0.00  0.00    +0.133 C 
ATOM     14  C   UNL     1      12.539   8.599  18.109  0.00  0.00    +0.235 C 
ATOM     15  C   UNL     1      15.038  10.083  19.929  0.00  0.00    +0.183 C 
ATOM     16  C   UNL     1      11.940   8.777  19.485  0.00  0.00    +0.207 C 
ENDROOT
BRANCH  13   8
ATOM      8  N   UNL     1      16.508   8.133  20.157  0.00  0.00    -0.182 NA
ATOM     36  H   UNL     1      17.145   8.728  19.615  0.00  0.00    +0.148 HD
BRANCH   8   1
ATOM      1  S   UNL     1      16.799   6.468  20.308  0.00  0.00    +0.061 S 
ATOM      5  O   UNL     1      16.521   5.811  19.046  0.00  0.00    -0.153 OA
ATOM      6  O   UNL     1      16.175   5.994  21.530  0.00  0.00    -0.153 OA
BRANCH   1  17
ATOM     10  N   UNL     1      18.466   8.515  21.693  0.00  0.00    -0.253 NA
ATOM     17  C   UNL     1      18.547   6.425  20.573  0.00  0.00    +0.131 A 
ATOM     19  C   UNL     1      19.176   7.465  21.239  0.00  0.00    +0.097 A 
ATOM     20  C   UNL     1      19.239   5.320  20.087  0.00  0.00    +0.031 A 
ATOM     21  C   UNL     1      20.572   7.376  21.420  0.00  0.00    +0.002 A 
ATOM     22  C   UNL     1      20.614   5.239  20.268  0.00  0.00    +0.003 A 
ATOM     24  C   UNL     1      21.281   6.264  20.934  0.00  0.00    +0.010 A 
ATOM     25  C   UNL     1      21.218   8.422  22.093  0.00  0.00    +0.011 A 
ATOM     29  C   UNL     1      19.128   9.503  22.338  0.00  0.00    +0.111 A 
ATOM     31  C   UNL     1      20.490   9.505  22.561  0.00  0.00    +0.020 A 
ENDBRANCH   1  17
ENDBRANCH   8   1
ENDBRANCH  13   8
BRANCH  14   4
ATOM      4  O   UNL     1      12.126   9.607  17.215  0.00  0.00    -0.442 OA
BRANCH   4  18
ATOM      7  O   UNL     1      12.848   8.770  15.213  0.00  0.00    -0.226 OA
ATOM      9  N   UNL     1      13.381  10.944  15.901  0.00  0.00    -0.251 N 
ATOM     18  C   UNL     1      12.803   9.694  16.016  0.00  0.00    +0.405 C 
ATOM     37  H   UNL     1      13.230  11.582  16.679  0.00  0.00    +0.158 HD
BRANCH   9  23
ATOM     23  C   UNL     1      14.160  11.447  14.835  0.00  0.00    +0.036 A 
ATOM     26  C   UNL     1      15.522  11.190  14.808  0.00  0.00    +0.024 A 
ATOM     27  C   UNL     1      13.548  12.190  13.838  0.00  0.00    +0.024 A 
ATOM     28  C   UNL     1      15.689  12.436  12.745  0.00  0.00    -0.045 A 
ATOM     32  C   UNL     1      16.291  11.688  13.757  0.00  0.00    +0.006 A 
ATOM     33  C   UNL     1      14.317  12.687  12.785  0.00  0.00    +0.006 A 
BRANCH  28  30
ATOM     30  C   UNL     1      16.511  12.968  11.620  0.00  0.00    +0.013 C 
ATOM     34  C   UNL     1      17.856  12.233  11.475  0.00  0.00    +0.012 C 
ATOM     35  C   UNL     1      15.756  12.949  10.278  0.00  0.00    +0.012 C 
ENDBRANCH  28  30
ENDBRANCH   9  23
ENDBRANCH   4  18
ENDBRANCH  14   4
TORSDOF 7
ENDMDL
