MODEL 1
REMARK VINA RESULT:      -7.0      0.000      0.000
REMARK  Name = 26743860
REMARK  7 active torsions:
REMARK  status: ('A' for Active; 'I' for Inactive)
REMARK    1  A    between atoms: O_1  and  C_9
REMARK    2  A    between atoms: O_3  and  C_14
REMARK    3  A    between atoms: N_4  and  C_11
REMARK    4  A    between atoms: C_7  and  C_12
REMARK    5  A    between atoms: C_11  and  C_13
REMARK    6  A    between atoms: C_16  and  C_17
REMARK    7  A    between atoms: C_23  and  C_26
REMARK                            x       y       z     vdW  Elec       q    Type
REMARK                         _______ _______ _______ _____ _____    ______ ____
ROOT
ATOM      4  N   UNL     1      -3.182 -10.574  14.284  0.00  0.00    -0.284 NA
ATOM      7  C   UNL     1      -3.456 -11.254  15.566  0.00  0.00    +0.149 C 
ATOM      8  C   UNL     1      -2.268 -10.880  16.472  0.00  0.00    +0.061 C 
ATOM      9  C   UNL     1      -1.358 -10.027  15.597  0.00  0.00    +0.130 C 
ATOM     10  C   UNL     1      -1.730 -10.444  14.186  0.00  0.00    +0.116 C 
ENDROOT
BRANCH   7  12
ATOM      2  O   UNL     1      -5.313  -9.675  15.750  0.00  0.00    -0.336 OA
ATOM      5  N   UNL     1      -5.534 -11.500  17.031  0.00  0.00    -0.190 NA
ATOM      6  N   UNL     1      -6.530  -9.530  16.428  0.00  0.00    -0.056 NA
ATOM     12  C   UNL     1      -4.792 -10.860  16.162  0.00  0.00    +0.245 A 
ATOM     16  C   UNL     1      -6.590 -10.645  17.162  0.00  0.00    +0.202 A 
BRANCH  16  17
ATOM     17  C   UNL     1      -7.690 -10.935  18.035  0.00  0.00    +0.023 A 
ATOM     21  C   UNL     1      -8.853 -10.167  17.973  0.00  0.00    +0.015 A 
ATOM     22  C   UNL     1      -7.597 -11.988  18.947  0.00  0.00    +0.012 A 
ATOM     23  C   UNL     1      -9.923 -10.450  18.822  0.00  0.00    -0.050 A 
ATOM     24  C   UNL     1      -8.667 -12.270  19.796  0.00  0.00    +0.001 A 
ATOM     25  C   UNL     1      -9.830 -11.502  19.734  0.00  0.00    +0.003 A 
ATOM     26  C   UNL     1     -11.166  -9.629  18.755  0.00  0.00    +0.044 C 
ENDBRANCH  16  17
ENDBRANCH   7  12
BRANCH   9   1
ATOM      1  O   UNL     1       0.003 -10.290  15.881  0.00  0.00    -0.390 OA
ATOM     27  H   UNL     1       0.387 -10.717  15.097  0.00  0.00    +0.210 HD
ENDBRANCH   9   1
BRANCH   4  11
ATOM     11  C   UNL     1      -3.749 -11.266  13.135  0.00  0.00    +0.124 C 
BRANCH  11  13
ATOM     13  C   UNL     1      -4.084 -10.314  12.016  0.00  0.00    +0.008 A 
ATOM     14  C   UNL     1      -5.226  -9.516  12.078  0.00  0.00    +0.121 A 
ATOM     15  C   UNL     1      -3.239 -10.239  10.908  0.00  0.00    +0.008 A 
ATOM     18  C   UNL     1      -5.524  -8.641  11.033  0.00  0.00    +0.046 A 
ATOM     19  C   UNL     1      -3.537  -9.364   9.863  0.00  0.00    +0.001 A 
ATOM     20  C   UNL     1      -4.678  -8.565   9.925  0.00  0.00    +0.004 A 
BRANCH  14   3
ATOM      3  O   UNL     1      -6.063  -9.579  13.151  0.00  0.00    -0.506 OA
ATOM     28  H   UNL     1      -5.551  -9.425  13.963  0.00  0.00    +0.292 HD
ENDBRANCH  14   3
ENDBRANCH  11  13
ENDBRANCH   4  11
TORSDOF 6
ENDMDL
MODEL 2
REMARK VINA RESULT:      -6.5     18.907     20.451
REMARK  Name = 26743860
REMARK  7 active torsions:
REMARK  status: ('A' for Active; 'I' for Inactive)
REMARK    1  A    between atoms: O_1  and  C_9
REMARK    2  A    between atoms: O_3  and  C_14
REMARK    3  A    between atoms: N_4  and  C_11
REMARK    4  A    between atoms: C_7  and  C_12
REMARK    5  A    between atoms: C_11  and  C_13
REMARK    6  A    between atoms: C_16  and  C_17
REMARK    7  A    between atoms: C_23  and  C_26
REMARK                            x       y       z     vdW  Elec       q    Type
REMARK                         _______ _______ _______ _____ _____    ______ ____
ROOT
ATOM      4  N   UNL     1     -16.465   5.240  21.851  0.00  0.00    -0.284 NA
ATOM      7  C   UNL     1     -17.562   4.716  22.690  0.00  0.00    +0.149 C 
ATOM      8  C   UNL     1     -18.504   4.001  21.703  0.00  0.00    +0.061 C 
ATOM      9  C   UNL     1     -17.876   4.217  20.331  0.00  0.00    +0.130 C 
ATOM     10  C   UNL     1     -17.028   5.461  20.521  0.00  0.00    +0.116 C 
ENDROOT
BRANCH   7  12
ATOM      2  O   UNL     1     -16.419   2.677  23.403  0.00  0.00    -0.336 OA
ATOM      5  N   UNL     1     -17.178   3.938  25.091  0.00  0.00    -0.190 NA
ATOM      6  N   UNL     1     -16.065   2.005  24.579  0.00  0.00    -0.056 NA
ATOM     12  C   UNL     1     -17.069   3.804  23.793  0.00  0.00    +0.245 A 
ATOM     16  C   UNL     1     -16.546   2.810  25.531  0.00  0.00    +0.202 A 
BRANCH  16  17
ATOM     17  C   UNL     1     -16.413   2.518  26.928  0.00  0.00    +0.023 A 
ATOM     21  C   UNL     1     -16.050   3.528  27.821  0.00  0.00    +0.015 A 
ATOM     22  C   UNL     1     -16.649   1.225  27.396  0.00  0.00    +0.012 A 
ATOM     23  C   UNL     1     -15.921   3.244  29.181  0.00  0.00    -0.050 A 
ATOM     24  C   UNL     1     -16.520   0.942  28.755  0.00  0.00    +0.001 A 
ATOM     25  C   UNL     1     -16.157   1.950  29.649  0.00  0.00    +0.003 A 
ATOM     26  C   UNL     1     -15.533   4.322  30.135  0.00  0.00    +0.044 C 
ENDBRANCH  16  17
ENDBRANCH   7  12
BRANCH   9   1
ATOM      1  O   UNL     1     -18.874   4.406  19.347  0.00  0.00    -0.390 OA
ATOM     27  H   UNL     1     -19.481   5.091  19.675  0.00  0.00    +0.210 HD
ENDBRANCH   9   1
BRANCH   4  11
ATOM     11  C   UNL     1     -15.854   6.446  22.394  0.00  0.00    +0.124 C 
BRANCH  11  13
ATOM     13  C   UNL     1     -14.445   6.633  21.895  0.00  0.00    +0.008 A 
ATOM     14  C   UNL     1     -13.549   5.564  21.871  0.00  0.00    +0.121 A 
ATOM     15  C   UNL     1     -14.038   7.894  21.458  0.00  0.00    +0.008 A 
ATOM     18  C   UNL     1     -12.247   5.755  21.409  0.00  0.00    +0.046 A 
ATOM     19  C   UNL     1     -12.735   8.085  20.995  0.00  0.00    +0.001 A 
ATOM     20  C   UNL     1     -11.840   7.015  20.971  0.00  0.00    +0.004 A 
BRANCH  14   3
ATOM      3  O   UNL     1     -13.929   4.327  22.297  0.00  0.00    -0.506 OA
ATOM     28  H   UNL     1     -14.887   4.329  22.465  0.00  0.00    +0.292 HD
ENDBRANCH  14   3
ENDBRANCH  11  13
ENDBRANCH   4  11
TORSDOF 6
ENDMDL
MODEL 3
REMARK VINA RESULT:      -6.4      2.196      7.034
REMARK  Name = 26743860
REMARK  7 active torsions:
REMARK  status: ('A' for Active; 'I' for Inactive)
REMARK    1  A    between atoms: O_1  and  C_9
REMARK    2  A    between atoms: O_3  and  C_14
REMARK    3  A    between atoms: N_4  and  C_11
REMARK    4  A    between atoms: C_7  and  C_12
REMARK    5  A    between atoms: C_11  and  C_13
REMARK    6  A    between atoms: C_16  and  C_17
REMARK    7  A    between atoms: C_23  and  C_26
REMARK                            x       y       z     vdW  Elec       q    Type
REMARK                         _______ _______ _______ _____ _____    ______ ____
ROOT
ATOM      4  N   UNL     1      -7.236 -10.710  17.516  0.00  0.00    -0.284 NA
ATOM      7  C   UNL     1      -5.869 -11.044  17.966  0.00  0.00    +0.149 C 
ATOM      8  C   UNL     1      -5.985 -12.461  18.557  0.00  0.00    +0.061 C 
ATOM      9  C   UNL     1      -7.460 -12.821  18.435  0.00  0.00    +0.130 C 
ATOM     10  C   UNL     1      -8.150 -11.471  18.367  0.00  0.00    +0.116 C 
ENDROOT
BRANCH   7  12
ATOM      2  O   UNL     1      -3.551 -11.144  17.198  0.00  0.00    -0.336 OA
ATOM      5  N   UNL     1      -5.034 -10.719  15.574  0.00  0.00    -0.190 NA
ATOM      6  N   UNL     1      -2.809 -11.016  16.018  0.00  0.00    -0.056 NA
ATOM     12  C   UNL     1      -4.850 -10.956  16.849  0.00  0.00    +0.245 A 
ATOM     16  C   UNL     1      -3.753 -10.767  15.105  0.00  0.00    +0.202 A 
BRANCH  16  17
ATOM     17  C   UNL     1      -3.451 -10.561  13.719  0.00  0.00    +0.023 A 
ATOM     21  C   UNL     1      -4.485 -10.422  12.792  0.00  0.00    +0.015 A 
ATOM     22  C   UNL     1      -2.123 -10.499  13.296  0.00  0.00    +0.012 A 
ATOM     23  C   UNL     1      -4.190 -10.220  11.444  0.00  0.00    -0.050 A 
ATOM     24  C   UNL     1      -1.829 -10.298  11.948  0.00  0.00    +0.001 A 
ATOM     25  C   UNL     1      -2.862 -10.158  11.021  0.00  0.00    +0.003 A 
ATOM     26  C   UNL     1      -5.295 -10.071  10.453  0.00  0.00    +0.044 C 
ENDBRANCH  16  17
ENDBRANCH   7  12
BRANCH   9   1
ATOM      1  O   UNL     1      -7.887 -13.572  19.555  0.00  0.00    -0.390 OA
ATOM     27  H   UNL     1      -8.064 -12.945  20.277  0.00  0.00    +0.210 HD
ENDBRANCH   9   1
BRANCH   4  11
ATOM     11  C   UNL     1      -7.519  -9.282  17.549  0.00  0.00    +0.124 C 
BRANCH  11  13
ATOM     13  C   UNL     1      -8.763  -8.938  16.773  0.00  0.00    +0.008 A 
ATOM     14  C   UNL     1      -8.823  -9.146  15.395  0.00  0.00    +0.121 A 
ATOM     15  C   UNL     1      -9.862  -8.404  17.446  0.00  0.00    +0.008 A 
ATOM     18  C   UNL     1      -9.982  -8.820  14.690  0.00  0.00    +0.046 A 
ATOM     19  C   UNL     1     -11.021  -8.079  16.741  0.00  0.00    +0.001 A 
ATOM     20  C   UNL     1     -11.081  -8.287  15.363  0.00  0.00    +0.004 A 
BRANCH  14   3
ATOM      3  O   UNL     1      -7.758  -9.664  14.721  0.00  0.00    -0.506 OA
ATOM     28  H   UNL     1      -7.951  -9.656  13.768  0.00  0.00    +0.292 HD
ENDBRANCH  14   3
ENDBRANCH  11  13
ENDBRANCH   4  11
TORSDOF 6
ENDMDL
MODEL 4
REMARK VINA RESULT:      -6.3     22.732     26.706
REMARK  Name = 26743860
REMARK  7 active torsions:
REMARK  status: ('A' for Active; 'I' for Inactive)
REMARK    1  A    between atoms: O_1  and  C_9
REMARK    2  A    between atoms: O_3  and  C_14
REMARK    3  A    between atoms: N_4  and  C_11
REMARK    4  A    between atoms: C_7  and  C_12
REMARK    5  A    between atoms: C_11  and  C_13
REMARK    6  A    between atoms: C_16  and  C_17
REMARK    7  A    between atoms: C_23  and  C_26
REMARK                            x       y       z     vdW  Elec       q    Type
REMARK                         _______ _______ _______ _____ _____    ______ ____
ROOT
ATOM      4  N   UNL     1      11.406   6.632   5.392  0.00  0.00    -0.284 NA
ATOM      7  C   UNL     1      11.650   7.156   4.033  0.00  0.00    +0.149 C 
ATOM      8  C   UNL     1      13.117   7.625   4.049  0.00  0.00    +0.061 C 
ATOM      9  C   UNL     1      13.598   7.367   5.471  0.00  0.00    +0.130 C 
ATOM     10  C   UNL     1      12.316   7.351   6.283  0.00  0.00    +0.116 C 
ENDROOT
BRANCH   7  12
ATOM      2  O   UNL     1      11.314   4.832   3.354  0.00  0.00    -0.336 OA
ATOM      5  N   UNL     1      11.187   6.304   1.670  0.00  0.00    -0.190 NA
ATOM      6  N   UNL     1      11.056   4.081   2.200  0.00  0.00    -0.056 NA
ATOM     12  C   UNL     1      11.376   6.128   2.954  0.00  0.00    +0.245 A 
ATOM     16  C   UNL     1      10.994   5.019   1.250  0.00  0.00    +0.202 A 
BRANCH  16  17
ATOM     17  C   UNL     1      10.742   4.707  -0.126  0.00  0.00    +0.023 A 
ATOM     21  C   UNL     1      11.484   3.712  -0.764  0.00  0.00    +0.015 A 
ATOM     22  C   UNL     1       9.753   5.398  -0.828  0.00  0.00    +0.012 A 
ATOM     23  C   UNL     1      11.237   3.408  -2.103  0.00  0.00    -0.050 A 
ATOM     24  C   UNL     1       9.507   5.094  -2.166  0.00  0.00    +0.001 A 
ATOM     25  C   UNL     1      10.248   4.098  -2.804  0.00  0.00    +0.003 A 
ATOM     26  C   UNL     1      12.029   2.344  -2.784  0.00  0.00    +0.044 C 
ENDBRANCH  16  17
ENDBRANCH   7  12
BRANCH   9   1
ATOM      1  O   UNL     1      14.477   8.391   5.897  0.00  0.00    -0.390 OA
ATOM     27  H   UNL     1      14.743   8.893   5.109  0.00  0.00    +0.210 HD
ENDBRANCH   9   1
BRANCH   4  11
ATOM     11  C   UNL     1      10.018   6.754   5.815  0.00  0.00    +0.124 C 
BRANCH  11  13
ATOM     13  C   UNL     1       9.738   5.955   7.060  0.00  0.00    +0.008 A 
ATOM     14  C   UNL     1       9.884   4.568   7.065  0.00  0.00    +0.121 A 
ATOM     15  C   UNL     1       9.325   6.616   8.217  0.00  0.00    +0.008 A 
ATOM     18  C   UNL     1       9.618   3.841   8.225  0.00  0.00    +0.046 A 
ATOM     19  C   UNL     1       9.060   5.890   9.379  0.00  0.00    +0.001 A 
ATOM     20  C   UNL     1       9.207   4.503   9.383  0.00  0.00    +0.004 A 
BRANCH  14   3
ATOM      3  O   UNL     1      10.283   3.905   5.943  0.00  0.00    -0.506 OA
ATOM     28  H   UNL     1       9.877   4.325   5.165  0.00  0.00    +0.292 HD
ENDBRANCH  14   3
ENDBRANCH  11  13
ENDBRANCH   4  11
TORSDOF 6
ENDMDL
MODEL 5
REMARK VINA RESULT:      -6.3     23.225     26.216
REMARK  Name = 26743860
REMARK  7 active torsions:
REMARK  status: ('A' for Active; 'I' for Inactive)
REMARK    1  A    between atoms: O_1  and  C_9
REMARK    2  A    between atoms: O_3  and  C_14
REMARK    3  A    between atoms: N_4  and  C_11
REMARK    4  A    between atoms: C_7  and  C_12
REMARK    5  A    between atoms: C_11  and  C_13
REMARK    6  A    between atoms: C_16  and  C_17
REMARK    7  A    between atoms: C_23  and  C_26
REMARK                            x       y       z     vdW  Elec       q    Type
REMARK                         _______ _______ _______ _____ _____    ______ ____
ROOT
ATOM      4  N   UNL     1       9.317   6.949   7.408  0.00  0.00    -0.284 NA
ATOM      7  C   UNL     1      10.782   6.814   7.277  0.00  0.00    +0.149 C 
ATOM      8  C   UNL     1      11.147   5.610   8.166  0.00  0.00    +0.061 C 
ATOM      9  C   UNL     1       9.830   5.165   8.789  0.00  0.00    +0.130 C 
ATOM     10  C   UNL     1       8.967   6.411   8.722  0.00  0.00    +0.116 C 
ENDROOT
BRANCH   7  12
ATOM      2  O   UNL     1      12.260   7.413   5.425  0.00  0.00    -0.336 OA
ATOM      5  N   UNL     1      10.751   5.836   4.918  0.00  0.00    -0.190 NA
ATOM      6  N   UNL     1      12.484   7.077   4.084  0.00  0.00    -0.056 NA
ATOM     12  C   UNL     1      11.225   6.637   5.840  0.00  0.00    +0.245 A 
ATOM     16  C   UNL     1      11.556   6.141   3.859  0.00  0.00    +0.202 A 
BRANCH  16  17
ATOM     17  C   UNL     1      11.407   5.493   2.589  0.00  0.00    +0.023 A 
ATOM     21  C   UNL     1      12.466   4.760   2.051  0.00  0.00    +0.015 A 
ATOM     22  C   UNL     1      10.203   5.593   1.892  0.00  0.00    +0.012 A 
ATOM     23  C   UNL     1      12.320   4.128   0.815  0.00  0.00    -0.050 A 
ATOM     24  C   UNL     1      10.057   4.961   0.657  0.00  0.00    +0.001 A 
ATOM     25  C   UNL     1      11.116   4.228   0.118  0.00  0.00    +0.003 A 
ATOM     26  C   UNL     1      13.451   3.345   0.240  0.00  0.00    +0.044 C 
ENDBRANCH  16  17
ENDBRANCH   7  12
BRANCH   9   1
ATOM      1  O   UNL     1      10.027   4.733  10.121  0.00  0.00    -0.390 OA
ATOM     27  H   UNL     1       9.188   4.351  10.430  0.00  0.00    +0.210 HD
ENDBRANCH   9   1
BRANCH   4  11
ATOM     11  C   UNL     1       8.848   8.317   7.234  0.00  0.00    +0.124 C 
BRANCH  11  13
ATOM     13  C   UNL     1       8.741   8.692   5.779  0.00  0.00    +0.008 A 
ATOM     14  C   UNL     1       8.123   7.837   4.867  0.00  0.00    +0.121 A 
ATOM     15  C   UNL     1       9.271   9.908   5.348  0.00  0.00    +0.008 A 
ATOM     18  C   UNL     1       8.034   8.198   3.522  0.00  0.00    +0.046 A 
ATOM     19  C   UNL     1       9.181  10.270   4.003  0.00  0.00    +0.001 A 
ATOM     20  C   UNL     1       8.563   9.415   3.090  0.00  0.00    +0.004 A 
BRANCH  14   3
ATOM      3  O   UNL     1       7.603   6.645   5.271  0.00  0.00    -0.506 OA
ATOM     28  H   UNL     1       6.733   6.799   5.677  0.00  0.00    +0.292 HD
ENDBRANCH  14   3
ENDBRANCH  11  13
ENDBRANCH   4  11
TORSDOF 6
ENDMDL
MODEL 6
REMARK VINA RESULT:      -6.2     24.647     27.131
REMARK  Name = 26743860
REMARK  7 active torsions:
REMARK  status: ('A' for Active; 'I' for Inactive)
REMARK    1  A    between atoms: O_1  and  C_9
REMARK    2  A    between atoms: O_3  and  C_14
REMARK    3  A    between atoms: N_4  and  C_11
REMARK    4  A    between atoms: C_7  and  C_12
REMARK    5  A    between atoms: C_11  and  C_13
REMARK    6  A    between atoms: C_16  and  C_17
REMARK    7  A    between atoms: C_23  and  C_26
REMARK                            x       y       z     vdW  Elec       q    Type
REMARK                         _______ _______ _______ _____ _____    ______ ____
ROOT
ATOM      4  N   UNL     1      13.422   3.986  -0.287  0.00  0.00    -0.284 NA
ATOM      7  C   UNL     1      13.580   3.864   1.177  0.00  0.00    +0.149 C 
ATOM      8  C   UNL     1      14.811   4.727   1.512  0.00  0.00    +0.061 C 
ATOM      9  C   UNL     1      15.301   5.256   0.170  0.00  0.00    +0.130 C 
ATOM     10  C   UNL     1      14.753   4.252  -0.827  0.00  0.00    +0.116 C 
ENDROOT
BRANCH   7  12
ATOM      2  O   UNL     1      11.635   3.304   2.546  0.00  0.00    -0.336 OA
ATOM      5  N   UNL     1      11.837   5.488   2.094  0.00  0.00    -0.190 NA
ATOM      6  N   UNL     1      10.551   3.932   3.171  0.00  0.00    -0.056 NA
ATOM     12  C   UNL     1      12.341   4.290   1.936  0.00  0.00    +0.245 A 
ATOM     16  C   UNL     1      10.740   5.218   2.860  0.00  0.00    +0.202 A 
BRANCH  16  17
ATOM     17  C   UNL     1       9.852   6.255   3.298  0.00  0.00    +0.023 A 
ATOM     21  C   UNL     1       9.477   6.333   4.639  0.00  0.00    +0.015 A 
ATOM     22  C   UNL     1       9.366   7.189   2.382  0.00  0.00    +0.012 A 
ATOM     23  C   UNL     1       8.614   7.344   5.065  0.00  0.00    -0.050 A 
ATOM     24  C   UNL     1       8.504   8.199   2.808  0.00  0.00    +0.001 A 
ATOM     25  C   UNL     1       8.128   8.277   4.149  0.00  0.00    +0.003 A 
ATOM     26  C   UNL     1       8.213   7.427   6.498  0.00  0.00    +0.044 C 
ENDBRANCH  16  17
ENDBRANCH   7  12
BRANCH   9   1
ATOM      1  O   UNL     1      16.714   5.311   0.138  0.00  0.00    -0.390 OA
ATOM     27  H   UNL     1      16.963   6.158  -0.268  0.00  0.00    +0.210 HD
ENDBRANCH   9   1
BRANCH   4  11
ATOM     11  C   UNL     1      12.806   2.816  -0.897  0.00  0.00    +0.124 C 
BRANCH  11  13
ATOM     13  C   UNL     1      11.948   3.186  -2.079  0.00  0.00    +0.008 A 
ATOM     14  C   UNL     1      10.774   3.920  -1.906  0.00  0.00    +0.121 A 
ATOM     15  C   UNL     1      12.337   2.784  -3.357  0.00  0.00    +0.008 A 
ATOM     18  C   UNL     1       9.989   4.252  -3.010  0.00  0.00    +0.046 A 
ATOM     19  C   UNL     1      11.552   3.117  -4.461  0.00  0.00    +0.001 A 
ATOM     20  C   UNL     1      10.379   3.851  -4.288  0.00  0.00    +0.004 A 
BRANCH  14   3
ATOM      3  O   UNL     1      10.378   4.318  -0.664  0.00  0.00    -0.506 OA
ATOM     28  H   UNL     1       9.563   3.846  -0.424  0.00  0.00    +0.292 HD
ENDBRANCH  14   3
ENDBRANCH  11  13
ENDBRANCH   4  11
TORSDOF 6
ENDMDL
MODEL 7
REMARK VINA RESULT:      -6.0      3.971      8.857
REMARK  Name = 26743860
REMARK  7 active torsions:
REMARK  status: ('A' for Active; 'I' for Inactive)
REMARK    1  A    between atoms: O_1  and  C_9
REMARK    2  A    between atoms: O_3  and  C_14
REMARK    3  A    between atoms: N_4  and  C_11
REMARK    4  A    between atoms: C_7  and  C_12
REMARK    5  A    between atoms: C_11  and  C_13
REMARK    6  A    between atoms: C_16  and  C_17
REMARK    7  A    between atoms: C_23  and  C_26
REMARK                            x       y       z     vdW  Elec       q    Type
REMARK                         _______ _______ _______ _____ _____    ______ ____
ROOT
ATOM      4  N   UNL     1     -11.552  -8.251  16.653  0.00  0.00    -0.284 NA
ATOM      7  C   UNL     1     -10.395  -8.381  15.744  0.00  0.00    +0.149 C 
ATOM      8  C   UNL     1     -10.236  -6.987  15.109  0.00  0.00    +0.061 C 
ATOM      9  C   UNL     1     -11.375  -6.157  15.687  0.00  0.00    +0.130 C 
ATOM     10  C   UNL     1     -12.400  -7.198  16.097  0.00  0.00    +0.116 C 
ENDROOT
BRANCH   7  12
ATOM      2  O   UNL     1      -9.109  -8.666  17.803  0.00  0.00    -0.336 OA
ATOM      5  N   UNL     1      -8.065  -9.403  15.964  0.00  0.00    -0.190 NA
ATOM      6  N   UNL     1      -7.872  -9.163  18.231  0.00  0.00    -0.056 NA
ATOM     12  C   UNL     1      -9.142  -8.846  16.457  0.00  0.00    +0.245 A 
ATOM     16  C   UNL     1      -7.315  -9.580  17.090  0.00  0.00    +0.202 A 
BRANCH  16  17
ATOM     17  C   UNL     1      -6.012 -10.177  17.041  0.00  0.00    +0.023 A 
ATOM     21  C   UNL     1      -5.506 -10.841  18.159  0.00  0.00    +0.015 A 
ATOM     22  C   UNL     1      -5.252 -10.097  15.874  0.00  0.00    +0.012 A 
ATOM     23  C   UNL     1      -4.239 -11.423  18.111  0.00  0.00    -0.050 A 
ATOM     24  C   UNL     1      -3.985 -10.679  15.826  0.00  0.00    +0.001 A 
ATOM     25  C   UNL     1      -3.478 -11.342  16.944  0.00  0.00    +0.003 A 
ATOM     26  C   UNL     1      -3.697 -12.132  19.305  0.00  0.00    +0.044 C 
ENDBRANCH  16  17
ENDBRANCH   7  12
BRANCH   9   1
ATOM      1  O   UNL     1     -11.891  -5.267  14.716  0.00  0.00    -0.390 OA
ATOM     27  H   UNL     1     -11.357  -5.373  13.911  0.00  0.00    +0.210 HD
ENDBRANCH   9   1
BRANCH   4  11
ATOM     11  C   UNL     1     -12.280  -9.499  16.838  0.00  0.00    +0.124 C 
BRANCH  11  13
ATOM     13  C   UNL     1     -12.987  -9.544  18.167  0.00  0.00    +0.008 A 
ATOM     14  C   UNL     1     -12.276  -9.768  19.346  0.00  0.00    +0.121 A 
ATOM     15  C   UNL     1     -14.370  -9.362  18.211  0.00  0.00    +0.008 A 
ATOM     18  C   UNL     1     -12.946  -9.810  20.568  0.00  0.00    +0.046 A 
ATOM     19  C   UNL     1     -15.040  -9.403  19.434  0.00  0.00    +0.001 A 
ATOM     20  C   UNL     1     -14.329  -9.627  20.612  0.00  0.00    +0.004 A 
BRANCH  14   3
ATOM      3  O   UNL     1     -10.926  -9.951  19.321  0.00  0.00    -0.506 OA
ATOM     28  H   UNL     1     -10.638 -10.306  20.179  0.00  0.00    +0.292 HD
ENDBRANCH  14   3
ENDBRANCH  11  13
ENDBRANCH   4  11
TORSDOF 6
ENDMDL
MODEL 8
REMARK VINA RESULT:      -5.9      2.486      7.126
REMARK  Name = 26743860
REMARK  7 active torsions:
REMARK  status: ('A' for Active; 'I' for Inactive)
REMARK    1  A    between atoms: O_1  and  C_9
REMARK    2  A    between atoms: O_3  and  C_14
REMARK    3  A    between atoms: N_4  and  C_11
REMARK    4  A    between atoms: C_7  and  C_12
REMARK    5  A    between atoms: C_11  and  C_13
REMARK    6  A    between atoms: C_16  and  C_17
REMARK    7  A    between atoms: C_23  and  C_26
REMARK                            x       y       z     vdW  Elec       q    Type
REMARK                         _______ _______ _______ _____ _____    ______ ____
ROOT
ATOM      4  N   UNL     1      -8.375 -10.733  18.289  0.00  0.00    -0.284 NA
ATOM      7  C   UNL     1      -7.294 -11.130  19.214  0.00  0.00    +0.149 C 
ATOM      8  C   UNL     1      -7.734 -12.498  19.769  0.00  0.00    +0.061 C 
ATOM      9  C   UNL     1      -9.092 -12.764  19.133  0.00  0.00    +0.130 C 
ATOM     10  C   UNL     1      -9.594 -11.378  18.775  0.00  0.00    +0.116 C 
ENDROOT
BRANCH   7  12
ATOM      2  O   UNL     1      -4.911 -11.669  19.283  0.00  0.00    -0.336 OA
ATOM      5  N   UNL     1      -5.599 -10.812  17.331  0.00  0.00    -0.190 NA
ATOM      6  N   UNL     1      -3.779 -11.615  18.461  0.00  0.00    -0.056 NA
ATOM     12  C   UNL     1      -5.938 -11.180  18.541  0.00  0.00    +0.245 A 
ATOM     16  C   UNL     1      -4.265 -11.100  17.328  0.00  0.00    +0.202 A 
BRANCH  16  17
ATOM     17  C   UNL     1      -3.445 -10.859  16.176  0.00  0.00    +0.023 A 
ATOM     21  C   UNL     1      -4.027 -10.779  14.910  0.00  0.00    +0.015 A 
ATOM     22  C   UNL     1      -2.067 -10.703  16.321  0.00  0.00    +0.012 A 
ATOM     23  C   UNL     1      -3.230 -10.544  13.790  0.00  0.00    -0.050 A 
ATOM     24  C   UNL     1      -1.270 -10.468  15.201  0.00  0.00    +0.001 A 
ATOM     25  C   UNL     1      -1.851 -10.388  13.935  0.00  0.00    +0.003 A 
ATOM     26  C   UNL     1      -3.851 -10.458  12.437  0.00  0.00    +0.044 C 
ENDBRANCH  16  17
ENDBRANCH   7  12
BRANCH   9   1
ATOM      1  O   UNL     1      -9.955 -13.416  20.045  0.00  0.00    -0.390 OA
ATOM     27  H   UNL     1     -10.325 -12.735  20.633  0.00  0.00    +0.210 HD
ENDBRANCH   9   1
BRANCH   4  11
ATOM     11  C   UNL     1      -8.528  -9.290  18.171  0.00  0.00    +0.124 C 
BRANCH  11  13
ATOM     13  C   UNL     1      -9.364  -8.911  16.976  0.00  0.00    +0.008 A 
ATOM     14  C   UNL     1      -9.029  -9.362  15.700  0.00  0.00    +0.121 A 
ATOM     15  C   UNL     1     -10.482  -8.096  17.157  0.00  0.00    +0.008 A 
ATOM     18  C   UNL     1      -9.811  -9.000  14.603  0.00  0.00    +0.046 A 
ATOM     19  C   UNL     1     -11.265  -7.734  16.060  0.00  0.00    +0.001 A 
ATOM     20  C   UNL     1     -10.930  -8.186  14.784  0.00  0.00    +0.004 A 
BRANCH  14   3
ATOM      3  O   UNL     1      -7.938 -10.156  15.506  0.00  0.00    -0.506 OA
ATOM     28  H   UNL     1      -7.615 -10.034  14.597  0.00  0.00    +0.292 HD
ENDBRANCH  14   3
ENDBRANCH  11  13
ENDBRANCH   4  11
TORSDOF 6
ENDMDL
MODEL 9
REMARK VINA RESULT:      -5.9     23.242     27.015
REMARK  Name = 26743860
REMARK  7 active torsions:
REMARK  status: ('A' for Active; 'I' for Inactive)
REMARK    1  A    between atoms: O_1  and  C_9
REMARK    2  A    between atoms: O_3  and  C_14
REMARK    3  A    between atoms: N_4  and  C_11
REMARK    4  A    between atoms: C_7  and  C_12
REMARK    5  A    between atoms: C_11  and  C_13
REMARK    6  A    between atoms: C_16  and  C_17
REMARK    7  A    between atoms: C_23  and  C_26
REMARK                            x       y       z     vdW  Elec       q    Type
REMARK                         _______ _______ _______ _____ _____    ______ ____
ROOT
ATOM      4  N   UNL     1       9.799   8.489   5.784  0.00  0.00    -0.284 NA
ATOM      7  C   UNL     1       9.693   8.823   4.350  0.00  0.00    +0.149 C 
ATOM      8  C   UNL     1      10.518  10.113   4.183  0.00  0.00    +0.061 C 
ATOM      9  C   UNL     1      11.009  10.450   5.585  0.00  0.00    +0.130 C 
ATOM     10  C   UNL     1      10.011   9.752   6.489  0.00  0.00    +0.116 C 
ENDROOT
BRANCH   7  12
ATOM      2  O   UNL     1       9.257   7.170   2.602  0.00  0.00    -0.336 OA
ATOM      5  N   UNL     1      11.360   7.153   3.373  0.00  0.00    -0.190 NA
ATOM      6  N   UNL     1       9.923   6.166   1.889  0.00  0.00    -0.056 NA
ATOM     12  C   UNL     1      10.173   7.701   3.453  0.00  0.00    +0.245 A 
ATOM     16  C   UNL     1      11.158   6.217   2.399  0.00  0.00    +0.202 A 
BRANCH  16  17
ATOM     17  C   UNL     1      12.210   5.349   1.960  0.00  0.00    +0.023 A 
ATOM     21  C   UNL     1      13.383   5.887   1.428  0.00  0.00    +0.015 A 
ATOM     22  C   UNL     1      12.063   3.965   2.065  0.00  0.00    +0.012 A 
ATOM     23  C   UNL     1      14.408   5.041   1.002  0.00  0.00    -0.050 A 
ATOM     24  C   UNL     1      13.087   3.120   1.639  0.00  0.00    +0.001 A 
ATOM     25  C   UNL     1      14.260   3.658   1.107  0.00  0.00    +0.003 A 
ATOM     26  C   UNL     1      15.661   5.615   0.434  0.00  0.00    +0.044 C 
ENDBRANCH  16  17
ENDBRANCH   7  12
BRANCH   9   1
ATOM      1  O   UNL     1      11.015  11.850   5.791  0.00  0.00    -0.390 OA
ATOM     27  H   UNL     1      10.096  12.157   5.729  0.00  0.00    +0.210 HD
ENDBRANCH   9   1
BRANCH   4  11
ATOM     11  C   UNL     1       8.642   7.765   6.293  0.00  0.00    +0.124 C 
BRANCH  11  13
ATOM     13  C   UNL     1       9.044   6.527   7.051  0.00  0.00    +0.008 A 
ATOM     14  C   UNL     1       9.392   5.358   6.374  0.00  0.00    +0.121 A 
ATOM     15  C   UNL     1       9.063   6.557   8.446  0.00  0.00    +0.008 A 
ATOM     18  C   UNL     1       9.759   4.219   7.091  0.00  0.00    +0.046 A 
ATOM     19  C   UNL     1       9.432   5.418   9.163  0.00  0.00    +0.001 A 
ATOM     20  C   UNL     1       9.779   4.250   8.486  0.00  0.00    +0.004 A 
BRANCH  14   3
ATOM      3  O   UNL     1       9.376   5.310   5.013  0.00  0.00    -0.506 OA
ATOM     28  H   UNL     1      10.278   5.145   4.690  0.00  0.00    +0.292 HD
ENDBRANCH  14   3
ENDBRANCH  11  13
ENDBRANCH   4  11
TORSDOF 6
ENDMDL
MODEL 10
REMARK VINA RESULT:      -5.8      1.674      2.267
REMARK  Name = 26743860
REMARK  7 active torsions:
REMARK  status: ('A' for Active; 'I' for Inactive)
REMARK    1  A    between atoms: O_1  and  C_9
REMARK    2  A    between atoms: O_3  and  C_14
REMARK    3  A    between atoms: N_4  and  C_11
REMARK    4  A    between atoms: C_7  and  C_12
REMARK    5  A    between atoms: C_11  and  C_13
REMARK    6  A    between atoms: C_16  and  C_17
REMARK    7  A    between atoms: C_23  and  C_26
REMARK                            x       y       z     vdW  Elec       q    Type
REMARK                         _______ _______ _______ _____ _____    ______ ____
ROOT
ATOM      4  N   UNL     1      -4.669 -11.175  15.540  0.00  0.00    -0.284 NA
ATOM      7  C   UNL     1      -4.714 -11.764  16.894  0.00  0.00    +0.149 C 
ATOM      8  C   UNL     1      -3.354 -11.407  17.523  0.00  0.00    +0.061 C 
ATOM      9  C   UNL     1      -2.598 -10.659  16.432  0.00  0.00    +0.130 C 
ATOM     10  C   UNL     1      -3.260 -11.134  15.153  0.00  0.00    +0.116 C 
ENDROOT
BRANCH   7  12
ATOM      2  O   UNL     1      -5.646 -11.006  19.023  0.00  0.00    -0.336 OA
ATOM      5  N   UNL     1      -7.120 -11.032  17.337  0.00  0.00    -0.190 NA
ATOM      6  N   UNL     1      -6.860 -10.561  19.561  0.00  0.00    -0.056 NA
ATOM     12  C   UNL     1      -5.886 -11.261  17.711  0.00  0.00    +0.245 A 
ATOM     16  C   UNL     1      -7.679 -10.604  18.506  0.00  0.00    +0.202 A 
BRANCH  16  17
ATOM     17  C   UNL     1      -9.060 -10.225  18.586  0.00  0.00    +0.023 A 
ATOM     21  C   UNL     1      -9.595  -9.336  17.653  0.00  0.00    +0.015 A 
ATOM     22  C   UNL     1      -9.869 -10.748  19.596  0.00  0.00    +0.012 A 
ATOM     23  C   UNL     1     -10.939  -8.969  17.731  0.00  0.00    -0.050 A 
ATOM     24  C   UNL     1     -11.212 -10.380  19.673  0.00  0.00    +0.001 A 
ATOM     25  C   UNL     1     -11.748  -9.491  18.740  0.00  0.00    +0.003 A 
ATOM     26  C   UNL     1     -11.512  -8.020  16.734  0.00  0.00    +0.044 C 
ENDBRANCH  16  17
ENDBRANCH   7  12
BRANCH   9   1
ATOM      1  O   UNL     1      -1.222 -10.983  16.463  0.00  0.00    -0.390 OA
ATOM     27  H   UNL     1      -0.729 -10.152  16.570  0.00  0.00    +0.210 HD
ENDBRANCH   9   1
BRANCH   4  11
ATOM     11  C   UNL     1      -5.483 -11.899  14.573  0.00  0.00    +0.124 C 
BRANCH  11  13
ATOM     13  C   UNL     1      -5.771 -11.068  13.350  0.00  0.00    +0.008 A 
ATOM     14  C   UNL     1      -6.473  -9.867  13.453  0.00  0.00    +0.121 A 
ATOM     15  C   UNL     1      -5.330 -11.513  12.103  0.00  0.00    +0.008 A 
ATOM     18  C   UNL     1      -6.734  -9.110  12.311  0.00  0.00    +0.046 A 
ATOM     19  C   UNL     1      -5.590 -10.756  10.961  0.00  0.00    +0.001 A 
ATOM     20  C   UNL     1      -6.292  -9.555  11.064  0.00  0.00    +0.004 A 
BRANCH  14   3
ATOM      3  O   UNL     1      -6.913  -9.419  14.662  0.00  0.00    -0.506 OA
ATOM     28  H   UNL     1      -7.885  -9.418  14.666  0.00  0.00    +0.292 HD
ENDBRANCH  14   3
ENDBRANCH  11  13
ENDBRANCH   4  11
TORSDOF 6
ENDMDL
