MODEL 1
REMARK VINA RESULT:      -7.4      0.000      0.000
REMARK  Name = 25390483
REMARK  9 active torsions:
REMARK  status: ('A' for Active; 'I' for Inactive)
REMARK    1  A    between atoms: O_2  and  C_9
REMARK    2  A    between atoms: O_3  and  C_10
REMARK    3  A    between atoms: N_7  and  C_19
REMARK    4  A    between atoms: C_8  and  C_12
REMARK    5  A    between atoms: C_11  and  C_19
REMARK    6  A    between atoms: C_12  and  C_18
REMARK    7  A    between atoms: C_13  and  C_20
REMARK    8  A    between atoms: C_21  and  C_22
REMARK    9  A    between atoms: C_27  and  C_28
REMARK                            x       y       z     vdW  Elec       q    Type
REMARK                         _______ _______ _______ _____ _____    ______ ____
ROOT
ATOM      1  O   UNL     1     -15.830   2.409  26.383  0.00  0.00    -0.366 OA
ATOM      8  C   UNL     1     -16.431   1.214  26.933  0.00  0.00    +0.159 C 
ATOM      9  C   UNL     1     -17.615   0.875  26.033  0.00  0.00    +0.175 C 
ATOM     10  C   UNL     1     -18.015   2.239  25.511  0.00  0.00    +0.176 C 
ATOM     11  C   UNL     1     -16.660   2.899  25.314  0.00  0.00    +0.167 C 
ENDROOT
BRANCH   9   2
ATOM      2  O   UNL     1     -17.139   0.055  24.966  0.00  0.00    -0.387 OA
ATOM     29  H   UNL     1     -17.899  -0.149  24.395  0.00  0.00    +0.210 HD
ENDBRANCH   9   2
BRANCH  10   3
ATOM      3  O   UNL     1     -18.756   2.183  24.311  0.00  0.00    -0.387 OA
ATOM     30  H   UNL     1     -19.213   1.326  24.290  0.00  0.00    +0.210 HD
ENDBRANCH  10   3
BRANCH   8  12
ATOM     12  C   UNL     1     -16.841   1.518  28.368  0.00  0.00    +0.130 C 
BRANCH  12  18
ATOM      4  O   UNL     1     -15.710  -0.178  29.577  0.00  0.00    -0.276 OA
ATOM      6  N   UNL     1     -14.933   1.992  29.862  0.00  0.00    -0.301 N 
ATOM     13  C   UNL     1     -13.959   3.871  31.847  0.00  0.00    -0.011 C 
ATOM     14  C   UNL     1     -15.091   4.235  30.873  0.00  0.00    +0.022 C 
ATOM     15  C   UNL     1     -13.931   2.354  32.084  0.00  0.00    +0.022 C 
ATOM     16  C   UNL     1     -14.991   3.430  29.578  0.00  0.00    +0.108 C 
ATOM     17  C   UNL     1     -13.852   1.589  30.765  0.00  0.00    +0.108 C 
ATOM     18  C   UNL     1     -15.780   1.027  29.321  0.00  0.00    +0.218 C 
ATOM     20  C   UNL     1     -14.114   4.625  33.165  0.00  0.00    +0.007 C 
ENDBRANCH  12  18
ENDBRANCH   8  12
BRANCH  11  19
ATOM     19  C   UNL     1     -16.716   4.415  25.366  0.00  0.00    +0.138 C 
BRANCH  19   7
ATOM      5  O   UNL     1     -16.930   5.012  22.565  0.00  0.00    -0.270 OA
ATOM      7  N   UNL     1     -15.704   4.999  24.536  0.00  0.00    -0.309 N 
ATOM     21  C   UNL     1     -15.895   5.255  23.180  0.00  0.00    +0.244 C 
ATOM     31  H   UNL     1     -14.841   5.276  24.992  0.00  0.00    +0.149 HD
BRANCH  21  22
ATOM     22  C   UNL     1     -14.740   5.840  22.452  0.00  0.00    +0.037 A 
ATOM     23  C   UNL     1     -13.555   5.114  22.323  0.00  0.00    +0.013 A 
ATOM     24  C   UNL     1     -14.839   7.115  21.896  0.00  0.00    +0.013 A 
ATOM     25  C   UNL     1     -12.471   5.663  21.640  0.00  0.00    +0.004 A 
ATOM     26  C   UNL     1     -13.755   7.665  21.213  0.00  0.00    +0.004 A 
ATOM     27  C   UNL     1     -12.570   6.939  21.085  0.00  0.00    -0.050 A 
ATOM     28  C   UNL     1     -11.410   7.526  20.355  0.00  0.00    +0.044 C 
ENDBRANCH  21  22
ENDBRANCH  19   7
ENDBRANCH  11  19
TORSDOF 7
ENDMDL
MODEL 2
REMARK VINA RESULT:      -7.2     18.733     20.963
REMARK  Name = 25390483
REMARK  9 active torsions:
REMARK  status: ('A' for Active; 'I' for Inactive)
REMARK    1  A    between atoms: O_2  and  C_9
REMARK    2  A    between atoms: O_3  and  C_10
REMARK    3  A    between atoms: N_7  and  C_19
REMARK    4  A    between atoms: C_8  and  C_12
REMARK    5  A    between atoms: C_11  and  C_19
REMARK    6  A    between atoms: C_12  and  C_18
REMARK    7  A    between atoms: C_13  and  C_20
REMARK    8  A    between atoms: C_21  and  C_22
REMARK    9  A    between atoms: C_27  and  C_28
REMARK                            x       y       z     vdW  Elec       q    Type
REMARK                         _______ _______ _______ _____ _____    ______ ____
ROOT
ATOM      1  O   UNL     1      -4.993 -12.782  17.211  0.00  0.00    -0.366 OA
ATOM      8  C   UNL     1      -4.039 -11.754  17.563  0.00  0.00    +0.159 C 
ATOM      9  C   UNL     1      -4.469 -11.217  18.925  0.00  0.00    +0.175 C 
ATOM     10  C   UNL     1      -5.966 -11.450  18.897  0.00  0.00    +0.176 C 
ATOM     11  C   UNL     1      -6.052 -12.790  18.185  0.00  0.00    +0.167 C 
ENDROOT
BRANCH   9   2
ATOM      2  O   UNL     1      -3.860 -12.024  19.932  0.00  0.00    -0.387 OA
ATOM     29  H   UNL     1      -4.160 -12.939  19.793  0.00  0.00    +0.210 HD
ENDBRANCH   9   2
BRANCH  10   3
ATOM      3  O   UNL     1      -6.548 -11.493  20.182  0.00  0.00    -0.387 OA
ATOM     30  H   UNL     1      -6.275 -10.689  20.653  0.00  0.00    +0.210 HD
ENDBRANCH  10   3
BRANCH   8  12
ATOM     12  C   UNL     1      -4.069 -10.696  16.469  0.00  0.00    +0.130 C 
BRANCH  12  18
ATOM      4  O   UNL     1      -1.725 -10.702  16.115  0.00  0.00    -0.276 OA
ATOM      6  N   UNL     1      -3.057 -11.058  14.245  0.00  0.00    -0.301 N 
ATOM     13  C   UNL     1      -3.346 -10.394  11.435  0.00  0.00    -0.011 C 
ATOM     14  C   UNL     1      -4.507 -10.235  12.429  0.00  0.00    +0.022 C 
ATOM     15  C   UNL     1      -2.001 -10.262  12.165  0.00  0.00    +0.022 C 
ATOM     16  C   UNL     1      -4.369 -11.201  13.605  0.00  0.00    +0.108 C 
ATOM     17  C   UNL     1      -1.914 -11.228  13.344  0.00  0.00    +0.108 C 
ATOM     18  C   UNL     1      -2.841 -10.818  15.601  0.00  0.00    +0.218 C 
ATOM     20  C   UNL     1      -3.454  -9.373  10.306  0.00  0.00    +0.007 C 
ENDBRANCH  12  18
ENDBRANCH   8  12
BRANCH  11  19
ATOM     19  C   UNL     1      -7.383 -13.019  17.492  0.00  0.00    +0.138 C 
BRANCH  19   7
ATOM      5  O   UNL     1      -7.609 -11.424  15.114  0.00  0.00    -0.270 OA
ATOM      7  N   UNL     1      -8.110 -11.792  17.350  0.00  0.00    -0.309 N 
ATOM     21  C   UNL     1      -8.166 -11.081  16.154  0.00  0.00    +0.244 C 
ATOM     31  H   UNL     1      -8.640 -11.479  18.157  0.00  0.00    +0.149 HD
BRANCH  21  22
ATOM     22  C   UNL     1      -8.940  -9.814  16.177  0.00  0.00    +0.037 A 
ATOM     23  C   UNL     1      -9.525  -9.330  15.006  0.00  0.00    +0.013 A 
ATOM     24  C   UNL     1      -9.084  -9.107  17.371  0.00  0.00    +0.013 A 
ATOM     25  C   UNL     1     -10.251  -8.140  15.029  0.00  0.00    +0.004 A 
ATOM     26  C   UNL     1      -9.810  -7.916  17.394  0.00  0.00    +0.004 A 
ATOM     27  C   UNL     1     -10.393  -7.433  16.222  0.00  0.00    -0.050 A 
ATOM     28  C   UNL     1     -11.169  -6.160  16.246  0.00  0.00    +0.044 C 
ENDBRANCH  21  22
ENDBRANCH  19   7
ENDBRANCH  11  19
TORSDOF 7
ENDMDL
MODEL 3
REMARK VINA RESULT:      -7.1     19.083     20.806
REMARK  Name = 25390483
REMARK  9 active torsions:
REMARK  status: ('A' for Active; 'I' for Inactive)
REMARK    1  A    between atoms: O_2  and  C_9
REMARK    2  A    between atoms: O_3  and  C_10
REMARK    3  A    between atoms: N_7  and  C_19
REMARK    4  A    between atoms: C_8  and  C_12
REMARK    5  A    between atoms: C_11  and  C_19
REMARK    6  A    between atoms: C_12  and  C_18
REMARK    7  A    between atoms: C_13  and  C_20
REMARK    8  A    between atoms: C_21  and  C_22
REMARK    9  A    between atoms: C_27  and  C_28
REMARK                            x       y       z     vdW  Elec       q    Type
REMARK                         _______ _______ _______ _____ _____    ______ ____
ROOT
ATOM      1  O   UNL     1      -4.327 -11.646  18.643  0.00  0.00    -0.366 OA
ATOM      8  C   UNL     1      -5.728 -11.914  18.884  0.00  0.00    +0.159 C 
ATOM      9  C   UNL     1      -6.273 -12.535  17.602  0.00  0.00    +0.175 C 
ATOM     10  C   UNL     1      -5.374 -11.922  16.548  0.00  0.00    +0.176 C 
ATOM     11  C   UNL     1      -4.031 -11.914  17.260  0.00  0.00    +0.167 C 
ENDROOT
BRANCH   9   2
ATOM      2  O   UNL     1      -6.067 -13.946  17.670  0.00  0.00    -0.387 OA
ATOM     29  H   UNL     1      -6.923 -14.373  17.494  0.00  0.00    +0.210 HD
ENDBRANCH   9   2
BRANCH  10   3
ATOM      3  O   UNL     1      -5.333 -12.665  15.348  0.00  0.00    -0.387 OA
ATOM     30  H   UNL     1      -6.250 -12.809  15.062  0.00  0.00    +0.210 HD
ENDBRANCH  10   3
BRANCH   8  12
ATOM     12  C   UNL     1      -6.399 -10.595  19.240  0.00  0.00    +0.130 C 
BRANCH  12  18
ATOM      4  O   UNL     1      -8.474 -11.445  20.006  0.00  0.00    -0.276 OA
ATOM      6  N   UNL     1      -8.545 -10.067  18.137  0.00  0.00    -0.301 N 
ATOM     13  C   UNL     1      -9.791  -9.735  15.538  0.00  0.00    -0.011 C 
ATOM     14  C   UNL     1      -8.266  -9.679  15.719  0.00  0.00    +0.022 C 
ATOM     15  C   UNL     1     -10.423 -10.603  16.635  0.00  0.00    +0.022 C 
ATOM     16  C   UNL     1      -7.889  -9.228  17.129  0.00  0.00    +0.108 C 
ATOM     17  C   UNL     1     -10.004 -10.131  18.026  0.00  0.00    +0.108 C 
ATOM     18  C   UNL     1      -7.898 -10.745  19.170  0.00  0.00    +0.218 C 
ATOM     20  C   UNL     1     -10.154 -10.260  14.152  0.00  0.00    +0.007 C 
ENDBRANCH  12  18
ENDBRANCH   8  12
BRANCH  11  19
ATOM     19  C   UNL     1      -3.075 -10.861  16.729  0.00  0.00    +0.138 C 
BRANCH  19   7
ATOM      5  O   UNL     1      -1.527 -11.514  14.401  0.00  0.00    -0.270 OA
ATOM      7  N   UNL     1      -3.383 -10.518  15.373  0.00  0.00    -0.309 N 
ATOM     21  C   UNL     1      -2.572 -10.878  14.300  0.00  0.00    +0.244 C 
ATOM     31  H   UNL     1      -4.262 -10.038  15.211  0.00  0.00    +0.149 HD
BRANCH  21  22
ATOM     22  C   UNL     1      -3.017 -10.423  12.958  0.00  0.00    +0.037 A 
ATOM     23  C   UNL     1      -4.379 -10.317  12.671  0.00  0.00    +0.013 A 
ATOM     24  C   UNL     1      -2.073 -10.101  11.982  0.00  0.00    +0.013 A 
ATOM     25  C   UNL     1      -4.795  -9.891  11.410  0.00  0.00    +0.004 A 
ATOM     26  C   UNL     1      -2.489  -9.675  10.721  0.00  0.00    +0.004 A 
ATOM     27  C   UNL     1      -3.851  -9.570  10.435  0.00  0.00    -0.050 A 
ATOM     28  C   UNL     1      -4.297  -9.115   9.087  0.00  0.00    +0.044 C 
ENDBRANCH  21  22
ENDBRANCH  19   7
ENDBRANCH  11  19
TORSDOF 7
ENDMDL
MODEL 4
REMARK VINA RESULT:      -7.0     17.734     20.410
REMARK  Name = 25390483
REMARK  9 active torsions:
REMARK  status: ('A' for Active; 'I' for Inactive)
REMARK    1  A    between atoms: O_2  and  C_9
REMARK    2  A    between atoms: O_3  and  C_10
REMARK    3  A    between atoms: N_7  and  C_19
REMARK    4  A    between atoms: C_8  and  C_12
REMARK    5  A    between atoms: C_11  and  C_19
REMARK    6  A    between atoms: C_12  and  C_18
REMARK    7  A    between atoms: C_13  and  C_20
REMARK    8  A    between atoms: C_21  and  C_22
REMARK    9  A    between atoms: C_27  and  C_28
REMARK                            x       y       z     vdW  Elec       q    Type
REMARK                         _______ _______ _______ _____ _____    ______ ____
ROOT
ATOM      1  O   UNL     1      -6.101 -11.703  16.720  0.00  0.00    -0.366 OA
ATOM      8  C   UNL     1      -4.889 -11.263  17.375  0.00  0.00    +0.159 C 
ATOM      9  C   UNL     1      -5.300 -10.784  18.763  0.00  0.00    +0.175 C 
ATOM     10  C   UNL     1      -6.724 -10.324  18.529  0.00  0.00    +0.176 C 
ATOM     11  C   UNL     1      -7.227 -11.375  17.553  0.00  0.00    +0.167 C 
ENDROOT
BRANCH   9   2
ATOM      2  O   UNL     1      -5.280 -11.908  19.643  0.00  0.00    -0.387 OA
ATOM     29  H   UNL     1      -4.514 -12.456  19.398  0.00  0.00    +0.210 HD
ENDBRANCH   9   2
BRANCH  10   3
ATOM      3  O   UNL     1      -7.498 -10.281  19.708  0.00  0.00    -0.387 OA
ATOM     30  H   UNL     1      -7.057 -10.843  20.368  0.00  0.00    +0.210 HD
ENDBRANCH  10   3
BRANCH   8  12
ATOM     12  C   UNL     1      -4.272 -10.162  16.522  0.00  0.00    +0.130 C 
BRANCH  12  18
ATOM      4  O   UNL     1      -2.012 -10.847  16.328  0.00  0.00    -0.276 OA
ATOM      6  N   UNL     1      -3.314 -11.015  14.412  0.00  0.00    -0.301 N 
ATOM     13  C   UNL     1      -3.294 -10.590  11.542  0.00  0.00    -0.011 C 
ATOM     14  C   UNL     1      -4.404 -10.017  12.438  0.00  0.00    +0.022 C 
ATOM     15  C   UNL     1      -1.996 -10.757  12.346  0.00  0.00    +0.022 C 
ATOM     16  C   UNL     1      -4.588 -10.857  13.701  0.00  0.00    +0.108 C 
ATOM     17  C   UNL     1      -2.230 -11.584  13.608  0.00  0.00    +0.108 C 
ATOM     18  C   UNL     1      -3.094 -10.705  15.753  0.00  0.00    +0.218 C 
ATOM     20  C   UNL     1      -3.068  -9.701  10.322  0.00  0.00    +0.007 C 
ENDBRANCH  12  18
ENDBRANCH   8  12
BRANCH  11  19
ATOM     19  C   UNL     1      -8.379 -10.893  16.690  0.00  0.00    +0.138 C 
BRANCH  19   7
ATOM      5  O   UNL     1      -9.763  -8.487  17.427  0.00  0.00    -0.270 OA
ATOM      7  N   UNL     1      -9.591 -10.801  17.448  0.00  0.00    -0.309 N 
ATOM     21  C   UNL     1     -10.197  -9.587  17.761  0.00  0.00    +0.244 C 
ATOM     31  H   UNL     1     -10.033 -11.676  17.710  0.00  0.00    +0.149 HD
BRANCH  21  22
ATOM     22  C   UNL     1     -11.436  -9.660  18.577  0.00  0.00    +0.037 A 
ATOM     23  C   UNL     1     -11.355  -9.872  19.954  0.00  0.00    +0.013 A 
ATOM     24  C   UNL     1     -12.682  -9.517  17.966  0.00  0.00    +0.013 A 
ATOM     25  C   UNL     1     -12.519  -9.942  20.718  0.00  0.00    +0.004 A 
ATOM     26  C   UNL     1     -13.846  -9.586  18.731  0.00  0.00    +0.004 A 
ATOM     27  C   UNL     1     -13.764  -9.799  20.108  0.00  0.00    -0.050 A 
ATOM     28  C   UNL     1     -15.009  -9.874  20.926  0.00  0.00    +0.044 C 
ENDBRANCH  21  22
ENDBRANCH  19   7
ENDBRANCH  11  19
TORSDOF 7
ENDMDL
MODEL 5
REMARK VINA RESULT:      -7.0     30.965     36.739
REMARK  Name = 25390483
REMARK  9 active torsions:
REMARK  status: ('A' for Active; 'I' for Inactive)
REMARK    1  A    between atoms: O_2  and  C_9
REMARK    2  A    between atoms: O_3  and  C_10
REMARK    3  A    between atoms: N_7  and  C_19
REMARK    4  A    between atoms: C_8  and  C_12
REMARK    5  A    between atoms: C_11  and  C_19
REMARK    6  A    between atoms: C_12  and  C_18
REMARK    7  A    between atoms: C_13  and  C_20
REMARK    8  A    between atoms: C_21  and  C_22
REMARK    9  A    between atoms: C_27  and  C_28
REMARK                            x       y       z     vdW  Elec       q    Type
REMARK                         _______ _______ _______ _____ _____    ______ ____
ROOT
ATOM      1  O   UNL     1      12.447   3.972   1.111  0.00  0.00    -0.366 OA
ATOM      8  C   UNL     1      13.552   4.648   0.468  0.00  0.00    +0.159 C 
ATOM      9  C   UNL     1      14.122   5.616   1.499  0.00  0.00    +0.175 C 
ATOM     10  C   UNL     1      12.904   5.929   2.344  0.00  0.00    +0.176 C 
ATOM     11  C   UNL     1      12.213   4.576   2.396  0.00  0.00    +0.167 C 
ENDROOT
BRANCH   9   2
ATOM      2  O   UNL     1      15.096   4.917   2.272  0.00  0.00    -0.387 OA
ATOM     29  H   UNL     1      14.722   4.047   2.495  0.00  0.00    +0.210 HD
ENDBRANCH   9   2
BRANCH  10   3
ATOM      3  O   UNL     1      13.227   6.409   3.632  0.00  0.00    -0.387 OA
ATOM     30  H   UNL     1      14.176   6.253   3.773  0.00  0.00    +0.210 HD
ENDBRANCH  10   3
BRANCH   8  12
ATOM     12  C   UNL     1      13.011   5.347  -0.772  0.00  0.00    +0.130 C 
BRANCH  12  18
ATOM      4  O   UNL     1      13.496   3.665  -2.369  0.00  0.00    -0.276 OA
ATOM      6  N   UNL     1      11.254   4.195  -2.071  0.00  0.00    -0.301 N 
ATOM     13  C   UNL     1       8.760   4.634  -3.485  0.00  0.00    -0.011 C 
ATOM     14  C   UNL     1       9.300   5.646  -2.463  0.00  0.00    +0.022 C 
ATOM     15  C   UNL     1       9.917   3.842  -4.110  0.00  0.00    +0.022 C 
ATOM     16  C   UNL     1      10.187   4.965  -1.422  0.00  0.00    +0.108 C 
ATOM     17  C   UNL     1      10.789   3.196  -3.036  0.00  0.00    +0.108 C 
ATOM     18  C   UNL     1      12.617   4.325  -1.809  0.00  0.00    +0.218 C 
ATOM     20  C   UNL     1       7.938   5.337  -4.563  0.00  0.00    +0.007 C 
ENDBRANCH  12  18
ENDBRANCH   8  12
BRANCH  11  19
ATOM     19  C   UNL     1      10.720   4.673   2.651  0.00  0.00    +0.138 C 
BRANCH  19   7
ATOM      5  O   UNL     1       9.830   6.822   4.334  0.00  0.00    -0.270 OA
ATOM      7  N   UNL     1      10.429   4.598   4.052  0.00  0.00    -0.309 N 
ATOM     21  C   UNL     1      10.000   5.696   4.794  0.00  0.00    +0.244 C 
ATOM     31  H   UNL     1      10.496   3.683   4.485  0.00  0.00    +0.149 HD
BRANCH  21  22
ATOM     22  C   UNL     1       9.765   5.461   6.242  0.00  0.00    +0.037 A 
ATOM     23  C   UNL     1       9.373   6.515   7.067  0.00  0.00    +0.013 A 
ATOM     24  C   UNL     1       9.937   4.184   6.777  0.00  0.00    +0.013 A 
ATOM     25  C   UNL     1       9.154   6.294   8.426  0.00  0.00    +0.004 A 
ATOM     26  C   UNL     1       9.717   3.962   8.136  0.00  0.00    +0.004 A 
ATOM     27  C   UNL     1       9.326   5.017   8.961  0.00  0.00    -0.050 A 
ATOM     28  C   UNL     1       9.092   4.781  10.414  0.00  0.00    +0.044 C 
ENDBRANCH  21  22
ENDBRANCH  19   7
ENDBRANCH  11  19
TORSDOF 7
ENDMDL
MODEL 6
REMARK VINA RESULT:      -7.0     34.708     37.450
REMARK  Name = 25390483
REMARK  9 active torsions:
REMARK  status: ('A' for Active; 'I' for Inactive)
REMARK    1  A    between atoms: O_2  and  C_9
REMARK    2  A    between atoms: O_3  and  C_10
REMARK    3  A    between atoms: N_7  and  C_19
REMARK    4  A    between atoms: C_8  and  C_12
REMARK    5  A    between atoms: C_11  and  C_19
REMARK    6  A    between atoms: C_12  and  C_18
REMARK    7  A    between atoms: C_13  and  C_20
REMARK    8  A    between atoms: C_21  and  C_22
REMARK    9  A    between atoms: C_27  and  C_28
REMARK                            x       y       z     vdW  Elec       q    Type
REMARK                         _______ _______ _______ _____ _____    ______ ____
ROOT
ATOM      1  O   UNL     1      24.354   4.595  20.922  0.00  0.00    -0.366 OA
ATOM      8  C   UNL     1      24.593   3.302  21.526  0.00  0.00    +0.159 C 
ATOM      9  C   UNL     1      23.298   2.511  21.373  0.00  0.00    +0.175 C 
ATOM     10  C   UNL     1      22.256   3.611  21.361  0.00  0.00    +0.176 C 
ATOM     11  C   UNL     1      22.964   4.692  20.562  0.00  0.00    +0.167 C 
ENDROOT
BRANCH   9   2
ATOM      2  O   UNL     1      23.332   1.845  20.111  0.00  0.00    -0.387 OA
ATOM     29  H   UNL     1      23.931   1.084  20.200  0.00  0.00    +0.210 HD
ENDBRANCH   9   2
BRANCH  10   3
ATOM      3  O   UNL     1      21.039   3.220  20.762  0.00  0.00    -0.387 OA
ATOM     30  H   UNL     1      21.155   3.280  19.799  0.00  0.00    +0.210 HD
ENDBRANCH  10   3
BRANCH   8  12
ATOM     12  C   UNL     1      24.983   3.533  22.980  0.00  0.00    +0.130 C 
BRANCH  12  18
ATOM      4  O   UNL     1      26.431   1.674  23.231  0.00  0.00    -0.276 OA
ATOM      6  N   UNL     1      24.565   1.729  24.613  0.00  0.00    -0.301 N 
ATOM     13  C   UNL     1      22.467   0.082  25.756  0.00  0.00    -0.011 C 
ATOM     14  C   UNL     1      22.156   1.393  25.017  0.00  0.00    +0.022 C 
ATOM     15  C   UNL     1      23.779  -0.523  25.233  0.00  0.00    +0.022 C 
ATOM     16  C   UNL     1      23.332   2.365  25.091  0.00  0.00    +0.108 C 
ATOM     17  C   UNL     1      24.921   0.488  25.305  0.00  0.00    +0.108 C 
ATOM     18  C   UNL     1      25.398   2.230  23.614  0.00  0.00    +0.218 C 
ATOM     20  C   UNL     1      21.315  -0.909  25.610  0.00  0.00    +0.007 C 
ENDBRANCH  12  18
ENDBRANCH   8  12
BRANCH  11  19
ATOM     19  C   UNL     1      22.456   6.091  20.859  0.00  0.00    +0.138 C 
BRANCH  19   7
ATOM      5  O   UNL     1      20.161   6.606  22.507  0.00  0.00    -0.270 OA
ATOM      7  N   UNL     1      21.104   6.256  20.415  0.00  0.00    -0.309 N 
ATOM     21  C   UNL     1      20.047   6.504  21.288  0.00  0.00    +0.244 C 
ATOM     31  H   UNL     1      20.946   6.237  19.413  0.00  0.00    +0.149 HD
BRANCH  21  22
ATOM     22  C   UNL     1      18.700   6.624  20.673  0.00  0.00    +0.037 A 
ATOM     23  C   UNL     1      18.332   5.778  19.626  0.00  0.00    +0.013 A 
ATOM     24  C   UNL     1      17.802   7.583  21.144  0.00  0.00    +0.013 A 
ATOM     25  C   UNL     1      17.067   5.892  19.049  0.00  0.00    +0.004 A 
ATOM     26  C   UNL     1      16.538   7.697  20.567  0.00  0.00    +0.004 A 
ATOM     27  C   UNL     1      16.170   6.851  19.519  0.00  0.00    -0.050 A 
ATOM     28  C   UNL     1      14.819   6.972  18.902  0.00  0.00    +0.044 C 
ENDBRANCH  21  22
ENDBRANCH  19   7
ENDBRANCH  11  19
TORSDOF 7
ENDMDL
MODEL 7
REMARK VINA RESULT:      -6.9     18.304     20.035
REMARK  Name = 25390483
REMARK  9 active torsions:
REMARK  status: ('A' for Active; 'I' for Inactive)
REMARK    1  A    between atoms: O_2  and  C_9
REMARK    2  A    between atoms: O_3  and  C_10
REMARK    3  A    between atoms: N_7  and  C_19
REMARK    4  A    between atoms: C_8  and  C_12
REMARK    5  A    between atoms: C_11  and  C_19
REMARK    6  A    between atoms: C_12  and  C_18
REMARK    7  A    between atoms: C_13  and  C_20
REMARK    8  A    between atoms: C_21  and  C_22
REMARK    9  A    between atoms: C_27  and  C_28
REMARK                            x       y       z     vdW  Elec       q    Type
REMARK                         _______ _______ _______ _____ _____    ______ ____
ROOT
ATOM      1  O   UNL     1      -5.713 -10.026  17.100  0.00  0.00    -0.366 OA
ATOM      8  C   UNL     1      -6.990 -10.210  17.753  0.00  0.00    +0.159 C 
ATOM      9  C   UNL     1      -6.692 -10.841  19.109  0.00  0.00    +0.175 C 
ATOM     10  C   UNL     1      -5.413 -11.603  18.828  0.00  0.00    +0.176 C 
ATOM     11  C   UNL     1      -4.687 -10.645  17.897  0.00  0.00    +0.167 C 
ENDROOT
BRANCH   9   2
ATOM      2  O   UNL     1      -6.449  -9.790  20.043  0.00  0.00    -0.387 OA
ATOM     29  H   UNL     1      -7.137  -9.116  19.909  0.00  0.00    +0.210 HD
ENDBRANCH   9   2
BRANCH  10   3
ATOM      3  O   UNL     1      -4.663 -11.882  19.990  0.00  0.00    -0.387 OA
ATOM     30  H   UNL     1      -3.734 -11.670  19.797  0.00  0.00    +0.210 HD
ENDBRANCH  10   3
BRANCH   8  12
ATOM     12  C   UNL     1      -7.847 -11.095  16.858  0.00  0.00    +0.130 C 
BRANCH  12  18
ATOM      4  O   UNL     1      -9.151  -9.570  15.596  0.00  0.00    -0.276 OA
ATOM      6  N   UNL     1     -10.249 -10.717  17.293  0.00  0.00    -0.301 N 
ATOM     13  C   UNL     1     -12.196 -10.414  19.422  0.00  0.00    -0.011 C 
ATOM     14  C   UNL     1     -10.818 -11.048  19.669  0.00  0.00    +0.022 C 
ATOM     15  C   UNL     1     -12.125  -9.432  18.243  0.00  0.00    +0.022 C 
ATOM     16  C   UNL     1     -10.263 -11.684  18.395  0.00  0.00    +0.108 C 
ATOM     17  C   UNL     1     -11.546 -10.103  17.000  0.00  0.00    +0.108 C 
ATOM     18  C   UNL     1      -9.136 -10.389  16.519  0.00  0.00    +0.218 C 
ATOM     20  C   UNL     1     -12.704  -9.716  20.681  0.00  0.00    +0.007 C 
ENDBRANCH  12  18
ENDBRANCH   8  12
BRANCH  11  19
ATOM     19  C   UNL     1      -3.682 -11.333  16.991  0.00  0.00    +0.138 C 
BRANCH  19   7
ATOM      5  O   UNL     1      -1.867 -11.853  14.828  0.00  0.00    -0.270 OA
ATOM      7  N   UNL     1      -3.817 -10.889  15.636  0.00  0.00    -0.309 N 
ATOM     21  C   UNL     1      -2.884 -11.189  14.646  0.00  0.00    +0.244 C 
ATOM     31  H   UNL     1      -4.664 -10.381  15.404  0.00  0.00    +0.149 HD
BRANCH  21  22
ATOM     22  C   UNL     1      -3.155 -10.632  13.296  0.00  0.00    +0.037 A 
ATOM     23  C   UNL     1      -2.104 -10.418  12.404  0.00  0.00    +0.013 A 
ATOM     24  C   UNL     1      -4.463 -10.323  12.919  0.00  0.00    +0.013 A 
ATOM     25  C   UNL     1      -2.359  -9.894  11.137  0.00  0.00    +0.004 A 
ATOM     26  C   UNL     1      -4.718  -9.800  11.652  0.00  0.00    +0.004 A 
ATOM     27  C   UNL     1      -3.666  -9.585  10.761  0.00  0.00    -0.050 A 
ATOM     28  C   UNL     1      -3.939  -9.025   9.406  0.00  0.00    +0.044 C 
ENDBRANCH  21  22
ENDBRANCH  19   7
ENDBRANCH  11  19
TORSDOF 7
ENDMDL
MODEL 8
REMARK VINA RESULT:      -6.6     16.685     19.138
REMARK  Name = 25390483
REMARK  9 active torsions:
REMARK  status: ('A' for Active; 'I' for Inactive)
REMARK    1  A    between atoms: O_2  and  C_9
REMARK    2  A    between atoms: O_3  and  C_10
REMARK    3  A    between atoms: N_7  and  C_19
REMARK    4  A    between atoms: C_8  and  C_12
REMARK    5  A    between atoms: C_11  and  C_19
REMARK    6  A    between atoms: C_12  and  C_18
REMARK    7  A    between atoms: C_13  and  C_20
REMARK    8  A    between atoms: C_21  and  C_22
REMARK    9  A    between atoms: C_27  and  C_28
REMARK                            x       y       z     vdW  Elec       q    Type
REMARK                         _______ _______ _______ _____ _____    ______ ____
ROOT
ATOM      1  O   UNL     1      -6.797 -12.031  17.382  0.00  0.00    -0.366 OA
ATOM      8  C   UNL     1      -5.922 -11.253  16.533  0.00  0.00    +0.159 C 
ATOM      9  C   UNL     1      -4.558 -11.247  17.214  0.00  0.00    +0.175 C 
ATOM     10  C   UNL     1      -4.933 -11.387  18.675  0.00  0.00    +0.176 C 
ATOM     11  C   UNL     1      -6.100 -12.357  18.598  0.00  0.00    +0.167 C 
ENDROOT
BRANCH   9   2
ATOM      2  O   UNL     1      -3.838 -12.398  16.774  0.00  0.00    -0.387 OA
ATOM     29  H   UNL     1      -4.258 -13.176  17.180  0.00  0.00    +0.210 HD
ENDBRANCH   9   2
BRANCH  10   3
ATOM      3  O   UNL     1      -3.883 -11.883  19.477  0.00  0.00    -0.387 OA
ATOM     30  H   UNL     1      -3.062 -11.454  19.181  0.00  0.00    +0.210 HD
ENDBRANCH  10   3
BRANCH   8  12
ATOM     12  C   UNL     1      -6.525  -9.861  16.395  0.00  0.00    +0.130 C 
BRANCH  12  18
ATOM      4  O   UNL     1      -7.439 -10.264  14.245  0.00  0.00    -0.276 OA
ATOM      6  N   UNL     1      -8.907  -9.476  15.865  0.00  0.00    -0.301 N 
ATOM     13  C   UNL     1     -11.109  -7.641  16.312  0.00  0.00    -0.011 C 
ATOM     14  C   UNL     1      -9.866  -7.650  17.216  0.00  0.00    +0.022 C 
ATOM     15  C   UNL     1     -10.748  -8.147  14.908  0.00  0.00    +0.022 C 
ATOM     16  C   UNL     1      -9.199  -9.025  17.230  0.00  0.00    +0.108 C 
ATOM     17  C   UNL     1     -10.066  -9.511  14.970  0.00  0.00    +0.108 C 
ATOM     18  C   UNL     1      -7.659  -9.889  15.400  0.00  0.00    +0.218 C 
ATOM     20  C   UNL     1     -11.722  -6.245  16.246  0.00  0.00    +0.007 C 
ENDBRANCH  12  18
ENDBRANCH   8  12
BRANCH  11  19
ATOM     19  C   UNL     1      -7.050 -12.251  19.777  0.00  0.00    +0.138 C 
BRANCH  19   7
ATOM      5  O   UNL     1      -9.688 -13.140  20.482  0.00  0.00    -0.270 OA
ATOM      7  N   UNL     1      -8.290 -11.645  19.390  0.00  0.00    -0.309 N 
ATOM     21  C   UNL     1      -9.529 -12.145  19.780  0.00  0.00    +0.244 C 
ATOM     31  H   UNL     1      -8.230 -10.786  18.852  0.00  0.00    +0.149 HD
BRANCH  21  22
ATOM     22  C   UNL     1     -10.721 -11.418  19.273  0.00  0.00    +0.037 A 
ATOM     23  C   UNL     1     -11.268 -10.370  20.015  0.00  0.00    +0.013 A 
ATOM     24  C   UNL     1     -11.294 -11.782  18.054  0.00  0.00    +0.013 A 
ATOM     25  C   UNL     1     -12.387  -9.688  19.539  0.00  0.00    +0.004 A 
ATOM     26  C   UNL     1     -12.414 -11.100  17.578  0.00  0.00    +0.004 A 
ATOM     27  C   UNL     1     -12.961 -10.052  18.321  0.00  0.00    -0.050 A 
ATOM     28  C   UNL     1     -14.158  -9.323  17.813  0.00  0.00    +0.044 C 
ENDBRANCH  21  22
ENDBRANCH  19   7
ENDBRANCH  11  19
TORSDOF 7
ENDMDL
MODEL 9
REMARK VINA RESULT:      -6.6     18.462     20.984
REMARK  Name = 25390483
REMARK  9 active torsions:
REMARK  status: ('A' for Active; 'I' for Inactive)
REMARK    1  A    between atoms: O_2  and  C_9
REMARK    2  A    between atoms: O_3  and  C_10
REMARK    3  A    between atoms: N_7  and  C_19
REMARK    4  A    between atoms: C_8  and  C_12
REMARK    5  A    between atoms: C_11  and  C_19
REMARK    6  A    between atoms: C_12  and  C_18
REMARK    7  A    between atoms: C_13  and  C_20
REMARK    8  A    between atoms: C_21  and  C_22
REMARK    9  A    between atoms: C_27  and  C_28
REMARK                            x       y       z     vdW  Elec       q    Type
REMARK                         _______ _______ _______ _____ _____    ______ ____
ROOT
ATOM      1  O   UNL     1      -6.281 -11.459  16.861  0.00  0.00    -0.366 OA
ATOM      8  C   UNL     1      -5.192 -11.711  15.942  0.00  0.00    +0.159 C 
ATOM      9  C   UNL     1      -4.086 -12.371  16.759  0.00  0.00    +0.175 C 
ATOM     10  C   UNL     1      -4.329 -11.799  18.140  0.00  0.00    +0.176 C 
ATOM     11  C   UNL     1      -5.848 -11.774  18.196  0.00  0.00    +0.167 C 
ENDROOT
BRANCH   9   2
ATOM      2  O   UNL     1      -4.316 -13.780  16.758  0.00  0.00    -0.387 OA
ATOM     29  H   UNL     1      -4.330 -14.073  17.685  0.00  0.00    +0.210 HD
ENDBRANCH   9   2
BRANCH  10   3
ATOM      3  O   UNL     1      -3.773 -12.582  19.174  0.00  0.00    -0.387 OA
ATOM     30  H   UNL     1      -4.497 -12.828  19.776  0.00  0.00    +0.210 HD
ENDBRANCH  10   3
BRANCH   8  12
ATOM     12  C   UNL     1      -4.773 -10.377  15.339  0.00  0.00    +0.130 C 
BRANCH  12  18
ATOM      4  O   UNL     1      -2.438 -10.555  14.979  0.00  0.00    -0.276 OA
ATOM      6  N   UNL     1      -3.793 -10.742  13.102  0.00  0.00    -0.301 N 
ATOM     13  C   UNL     1      -4.030  -9.964  10.317  0.00  0.00    -0.011 C 
ATOM     14  C   UNL     1      -5.175  -9.747  11.318  0.00  0.00    +0.022 C 
ATOM     15  C   UNL     1      -2.679  -9.962  11.047  0.00  0.00    +0.022 C 
ATOM     16  C   UNL     1      -5.113 -10.760  12.461  0.00  0.00    +0.108 C 
ATOM     17  C   UNL     1      -2.668 -10.971  12.193  0.00  0.00    +0.108 C 
ATOM     18  C   UNL     1      -3.560 -10.566  14.465  0.00  0.00    +0.218 C 
ATOM     20  C   UNL     1      -4.058  -8.900   9.223  0.00  0.00    +0.007 C 
ENDBRANCH  12  18
ENDBRANCH   8  12
BRANCH  11  19
ATOM     19  C   UNL     1      -6.397 -10.744  19.167  0.00  0.00    +0.138 C 
BRANCH  19   7
ATOM      5  O   UNL     1      -9.205 -11.344  19.189  0.00  0.00    -0.270 OA
ATOM      7  N   UNL     1      -7.442  -9.970  18.566  0.00  0.00    -0.309 N 
ATOM     21  C   UNL     1      -8.784 -10.337  18.626  0.00  0.00    +0.244 C 
ATOM     31  H   UNL     1      -7.169  -9.096  18.129  0.00  0.00    +0.149 HD
BRANCH  21  22
ATOM     22  C   UNL     1      -9.742  -9.442  17.929  0.00  0.00    +0.037 A 
ATOM     23  C   UNL     1     -11.115  -9.673  18.028  0.00  0.00    +0.013 A 
ATOM     24  C   UNL     1      -9.270  -8.367  17.174  0.00  0.00    +0.013 A 
ATOM     25  C   UNL     1     -12.014  -8.832  17.373  0.00  0.00    +0.004 A 
ATOM     26  C   UNL     1     -10.169  -7.526  16.518  0.00  0.00    +0.004 A 
ATOM     27  C   UNL     1     -11.541  -7.759  16.618  0.00  0.00    -0.050 A 
ATOM     28  C   UNL     1     -12.503  -6.861  15.917  0.00  0.00    +0.044 C 
ENDBRANCH  21  22
ENDBRANCH  19   7
ENDBRANCH  11  19
TORSDOF 7
ENDMDL
MODEL 10
REMARK VINA RESULT:      -6.6     31.926     35.688
REMARK  Name = 25390483
REMARK  9 active torsions:
REMARK  status: ('A' for Active; 'I' for Inactive)
REMARK    1  A    between atoms: O_2  and  C_9
REMARK    2  A    between atoms: O_3  and  C_10
REMARK    3  A    between atoms: N_7  and  C_19
REMARK    4  A    between atoms: C_8  and  C_12
REMARK    5  A    between atoms: C_11  and  C_19
REMARK    6  A    between atoms: C_12  and  C_18
REMARK    7  A    between atoms: C_13  and  C_20
REMARK    8  A    between atoms: C_21  and  C_22
REMARK    9  A    between atoms: C_27  and  C_28
REMARK                            x       y       z     vdW  Elec       q    Type
REMARK                         _______ _______ _______ _____ _____    ______ ____
ROOT
ATOM      1  O   UNL     1      10.840   6.429   6.582  0.00  0.00    -0.366 OA
ATOM      8  C   UNL     1      11.137   7.841   6.688  0.00  0.00    +0.159 C 
ATOM      9  C   UNL     1       9.793   8.557   6.770  0.00  0.00    +0.175 C 
ATOM     10  C   UNL     1       8.887   7.616   6.002  0.00  0.00    +0.176 C 
ATOM     11  C   UNL     1       9.419   6.260   6.435  0.00  0.00    +0.167 C 
ENDROOT
BRANCH   9   2
ATOM      2  O   UNL     1       9.403   8.611   8.142  0.00  0.00    -0.387 OA
ATOM     29  H   UNL     1       9.596   7.743   8.534  0.00  0.00    +0.210 HD
ENDBRANCH   9   2
BRANCH  10   3
ATOM      3  O   UNL     1       7.521   7.775   6.317  0.00  0.00    -0.387 OA
ATOM     30  H   UNL     1       7.075   8.114   5.522  0.00  0.00    +0.210 HD
ENDBRANCH  10   3
BRANCH   8  12
ATOM     12  C   UNL     1      11.951   8.238   5.465  0.00  0.00    +0.130 C 
BRANCH  12  18
ATOM      4  O   UNL     1      12.724  10.357   6.192  0.00  0.00    -0.276 OA
ATOM      6  N   UNL     1      14.344   8.734   5.822  0.00  0.00    -0.301 N 
ATOM     13  C   UNL     1      16.989   8.299   4.711  0.00  0.00    -0.011 C 
ATOM     14  C   UNL     1      15.791   7.419   4.319  0.00  0.00    +0.022 C 
ATOM     15  C   UNL     1      16.506   9.695   5.133  0.00  0.00    +0.022 C 
ATOM     16  C   UNL     1      14.745   7.378   5.432  0.00  0.00    +0.108 C 
ATOM     17  C   UNL     1      15.449   9.606   6.230  0.00  0.00    +0.108 C 
ATOM     18  C   UNL     1      13.034   9.210   5.861  0.00  0.00    +0.218 C 
ATOM     20  C   UNL     1      17.990   8.394   3.562  0.00  0.00    +0.007 C 
ENDBRANCH  12  18
ENDBRANCH   8  12
BRANCH  11  19
ATOM     19  C   UNL     1       9.137   5.155   5.433  0.00  0.00    +0.138 C 
BRANCH  19   7
ATOM      5  O   UNL     1       9.750   6.192   2.826  0.00  0.00    -0.270 OA
ATOM      7  N   UNL     1      10.298   4.861   4.646  0.00  0.00    -0.309 N 
ATOM     21  C   UNL     1      10.516   5.411   3.386  0.00  0.00    +0.244 C 
ATOM     31  H   UNL     1      11.000   4.264   5.072  0.00  0.00    +0.149 HD
BRANCH  21  22
ATOM     22  C   UNL     1      11.755   4.985   2.687  0.00  0.00    +0.037 A 
ATOM     23  C   UNL     1      11.881   3.676   2.221  0.00  0.00    +0.013 A 
ATOM     24  C   UNL     1      12.795   5.896   2.495  0.00  0.00    +0.013 A 
ATOM     25  C   UNL     1      13.045   3.277   1.565  0.00  0.00    +0.004 A 
ATOM     26  C   UNL     1      13.960   5.497   1.839  0.00  0.00    +0.004 A 
ATOM     27  C   UNL     1      14.084   4.187   1.375  0.00  0.00    -0.050 A 
ATOM     28  C   UNL     1      15.329   3.759   0.674  0.00  0.00    +0.044 C 
ENDBRANCH  21  22
ENDBRANCH  19   7
ENDBRANCH  11  19
TORSDOF 7
ENDMDL
