MODEL 1
REMARK VINA RESULT:      -7.1      0.000      0.000
REMARK  Name = 7134443
REMARK  13 active torsions:
REMARK  status: ('A' for Active; 'I' for Inactive)
REMARK    1  A    between atoms: O_4  and  C_15
REMARK    2  A    between atoms: O_5  and  C_16
REMARK    3  A    between atoms: O_9  and  C_32
REMARK    4  A    between atoms: O_9  and  C_38
REMARK    5  A    between atoms: O_10  and  C_37
REMARK    6  A    between atoms: O_10  and  C_39
REMARK    7  A    between atoms: N_11  and  C_17
REMARK    8  A    between atoms: N_12  and  C_22
REMARK    9  A    between atoms: N_13  and  C_29
REMARK   10  A    between atoms: C_19  and  C_21
REMARK   11  A    between atoms: C_22  and  C_24
REMARK   12  A    between atoms: C_22  and  C_26
REMARK   13  A    between atoms: C_24  and  C_25
REMARK                            x       y       z     vdW  Elec       q    Type
REMARK                         _______ _______ _______ _____ _____    ______ ____
ROOT
ATOM     15  C   UNL     1      17.788  10.552  21.726  0.00  0.00    +0.167 C 
ATOM     16  C   UNL     1      16.710  11.517  22.239  0.00  0.00    +0.149 C 
ATOM     17  C   UNL     1      17.302   9.090  21.767  0.00  0.00    +0.129 C 
ATOM     18  C   UNL     1      15.388  11.373  21.466  0.00  0.00    +0.074 C 
ATOM     19  C   UNL     1      15.051   9.950  21.122  0.00  0.00    +0.015 C 
ATOM     20  C   UNL     1      15.895   8.916  21.260  0.00  0.00    +0.006 C 
ENDROOT
BRANCH  17  11
ATOM      7  O   UNL     1      19.629   7.746  22.759  0.00  0.00    -0.252 OA
ATOM     11  N   UNL     1      18.176   8.218  21.023  0.00  0.00    -0.290 N 
ATOM     13  N   UNL     1      19.952   6.814  20.629  0.00  0.00    -0.269 N 
ATOM     23  C   UNL     1      19.299   7.597  21.585  0.00  0.00    +0.304 C 
ATOM     40  H   UNL     1      17.921   7.979  20.069  0.00  0.00    +0.151 HD
ATOM     44  H   UNL     1      19.546   6.800  19.696  0.00  0.00    +0.156 HD
BRANCH  13  29
ATOM     29  C   UNL     1      21.119   6.032  20.797  0.00  0.00    +0.035 A 
ATOM     33  C   UNL     1      22.377   6.620  20.666  0.00  0.00    +0.027 A 
ATOM     34  C   UNL     1      21.011   4.675  21.095  0.00  0.00    +0.027 A 
ATOM     35  C   UNL     1      23.527   5.849  20.832  0.00  0.00    +0.048 A 
ATOM     36  C   UNL     1      22.161   3.903  21.262  0.00  0.00    +0.048 A 
ATOM     37  C   UNL     1      23.419   4.491  21.131  0.00  0.00    +0.130 A 
BRANCH  37  10
ATOM     10  O   UNL     1      24.542   3.739  21.295  0.00  0.00    -0.406 OA
BRANCH  10  39
ATOM      1  F   UNL     1      24.629   3.377  19.069  0.00  0.00    -0.133 F 
ATOM      2  F   UNL     1      26.206   2.516  20.313  0.00  0.00    -0.133 F 
ATOM      3  F   UNL     1      24.161   1.683  20.369  0.00  0.00    -0.133 F 
ATOM     39  C   UNL     1      24.891   2.815  20.271  0.00  0.00    +0.575 C 
ENDBRANCH  10  39
ENDBRANCH  37  10
ENDBRANCH  13  29
ENDBRANCH  17  11
BRANCH  19  21
ATOM      6  O   UNL     1      13.001  10.552  20.146  0.00  0.00    -0.271 OA
ATOM     12  N   UNL     1      13.354   8.328  20.750  0.00  0.00    -0.300 N 
ATOM     21  C   UNL     1      13.704   9.661  20.621  0.00  0.00    +0.241 C 
ATOM     43  H   UNL     1      13.983   7.697  21.239  0.00  0.00    +0.150 HD
BRANCH  12  22
ATOM     22  C   UNL     1      12.075   7.803  20.329  0.00  0.00    +0.163 C 
BRANCH  22  26
ATOM      8  O   UNL     1      10.719   7.272  22.274  0.00  0.00    -0.274 OA
ATOM     14  N   UNL     1      12.109   5.650  21.427  0.00  0.00    -0.328 N 
ATOM     26  C   UNL     1      11.563   6.917  21.454  0.00  0.00    +0.231 C 
ATOM     45  H   UNL     1      11.841   4.954  22.114  0.00  0.00    +0.145 HD
ATOM     46  H   UNL     1      12.802   5.369  20.742  0.00  0.00    +0.145 HD
ENDBRANCH  22  26
BRANCH  22  24
ATOM     24  C   UNL     1      12.178   7.005  19.025  0.00  0.00    +0.067 C 
BRANCH  24  25
ATOM     25  C   UNL     1      12.653   7.843  17.863  0.00  0.00    -0.045 A 
ATOM     27  C   UNL     1      13.946   7.675  17.367  0.00  0.00    +0.007 A 
ATOM     28  C   UNL     1      11.800   8.783  17.286  0.00  0.00    +0.007 A 
ATOM     30  C   UNL     1      14.386   8.449  16.293  0.00  0.00    +0.046 A 
ATOM     31  C   UNL     1      12.241   9.557  16.212  0.00  0.00    +0.046 A 
ATOM     32  C   UNL     1      13.534   9.390  15.715  0.00  0.00    +0.120 A 
BRANCH  32   9
ATOM      9  O   UNL     1      13.963  10.145  14.668  0.00  0.00    -0.495 OA
ATOM     38  C   UNL     1      14.019  11.557  14.866  0.00  0.00    +0.277 C 
ENDBRANCH  32   9
ENDBRANCH  24  25
ENDBRANCH  22  24
ENDBRANCH  12  22
ENDBRANCH  19  21
BRANCH  15   4
ATOM      4  O   UNL     1      18.122  10.908  20.383  0.00  0.00    -0.387 OA
ATOM     41  H   UNL     1      18.911  11.476  20.420  0.00  0.00    +0.210 HD
ENDBRANCH  15   4
BRANCH  16   5
ATOM      5  O   UNL     1      16.488  11.308  23.632  0.00  0.00    -0.389 OA
ATOM     42  H   UNL     1      15.723  10.714  23.722  0.00  0.00    +0.210 HD
ENDBRANCH  16   5
TORSDOF 12
ENDMDL
MODEL 2
REMARK VINA RESULT:      -7.1      5.064     11.833
REMARK  Name = 7134443
REMARK  13 active torsions:
REMARK  status: ('A' for Active; 'I' for Inactive)
REMARK    1  A    between atoms: O_4  and  C_15
REMARK    2  A    between atoms: O_5  and  C_16
REMARK    3  A    between atoms: O_9  and  C_32
REMARK    4  A    between atoms: O_9  and  C_38
REMARK    5  A    between atoms: O_10  and  C_37
REMARK    6  A    between atoms: O_10  and  C_39
REMARK    7  A    between atoms: N_11  and  C_17
REMARK    8  A    between atoms: N_12  and  C_22
REMARK    9  A    between atoms: N_13  and  C_29
REMARK   10  A    between atoms: C_19  and  C_21
REMARK   11  A    between atoms: C_22  and  C_24
REMARK   12  A    between atoms: C_22  and  C_26
REMARK   13  A    between atoms: C_24  and  C_25
REMARK                            x       y       z     vdW  Elec       q    Type
REMARK                         _______ _______ _______ _____ _____    ______ ____
ROOT
ATOM     15  C   UNL     1      20.470   7.733  24.236  0.00  0.00    +0.167 C 
ATOM     16  C   UNL     1      21.865   8.130  24.737  0.00  0.00    +0.149 C 
ATOM     17  C   UNL     1      20.514   7.240  22.776  0.00  0.00    +0.129 C 
ATOM     18  C   UNL     1      22.881   6.984  24.592  0.00  0.00    +0.074 C 
ATOM     19  C   UNL     1      22.711   6.193  23.326  0.00  0.00    +0.015 C 
ATOM     20  C   UNL     1      21.660   6.304  22.499  0.00  0.00    +0.006 C 
ENDROOT
BRANCH  17  11
ATOM      7  O   UNL     1      18.380   8.388  21.249  0.00  0.00    -0.252 OA
ATOM     11  N   UNL     1      19.283   6.594  22.395  0.00  0.00    -0.290 N 
ATOM     13  N   UNL     1      17.212   6.359  21.430  0.00  0.00    -0.269 N 
ATOM     23  C   UNL     1      18.286   7.228  21.645  0.00  0.00    +0.304 C 
ATOM     40  H   UNL     1      19.168   5.608  22.614  0.00  0.00    +0.151 HD
ATOM     44  H   UNL     1      17.292   5.427  21.829  0.00  0.00    +0.156 HD
BRANCH  13  29
ATOM     29  C   UNL     1      16.015   6.617  20.721  0.00  0.00    +0.035 A 
ATOM     33  C   UNL     1      14.824   6.828  21.417  0.00  0.00    +0.027 A 
ATOM     34  C   UNL     1      16.026   6.662  19.328  0.00  0.00    +0.027 A 
ATOM     35  C   UNL     1      13.644   7.082  20.718  0.00  0.00    +0.048 A 
ATOM     36  C   UNL     1      14.846   6.917  18.629  0.00  0.00    +0.048 A 
ATOM     37  C   UNL     1      13.656   7.128  19.324  0.00  0.00    +0.130 A 
BRANCH  37  10
ATOM     10  O   UNL     1      12.504   7.379  18.643  0.00  0.00    -0.406 OA
BRANCH  10  39
ATOM      1  F   UNL     1      13.033   9.557  18.911  0.00  0.00    -0.133 F 
ATOM      2  F   UNL     1      11.557   9.038  17.385  0.00  0.00    -0.133 F 
ATOM      3  F   UNL     1      11.042   8.899  19.529  0.00  0.00    -0.133 F 
ATOM     39  C   UNL     1      12.017   8.715  18.612  0.00  0.00    +0.575 C 
ENDBRANCH  10  39
ENDBRANCH  37  10
ENDBRANCH  13  29
ENDBRANCH  17  11
BRANCH  19  21
ATOM      6  O   UNL     1      24.797   5.156  23.623  0.00  0.00    -0.271 OA
ATOM     12  N   UNL     1      23.472   4.529  21.810  0.00  0.00    -0.300 N 
ATOM     21  C   UNL     1      23.770   5.251  22.953  0.00  0.00    +0.241 C 
ATOM     43  H   UNL     1      22.630   4.755  21.288  0.00  0.00    +0.150 HD
BRANCH  12  22
ATOM     22  C   UNL     1      24.363   3.541  21.246  0.00  0.00    +0.163 C 
BRANCH  22  26
ATOM      8  O   UNL     1      25.108   5.119  19.553  0.00  0.00    -0.274 OA
ATOM     14  N   UNL     1      24.534   2.993  18.898  0.00  0.00    -0.328 N 
ATOM     26  C   UNL     1      24.696   3.995  19.832  0.00  0.00    +0.231 C 
ATOM     45  H   UNL     1      24.737   3.158  17.917  0.00  0.00    +0.145 HD
ATOM     46  H   UNL     1      24.197   2.067  19.142  0.00  0.00    +0.145 HD
ENDBRANCH  22  26
BRANCH  22  24
ATOM     24  C   UNL     1      23.739   2.142  21.225  0.00  0.00    +0.067 C 
BRANCH  24  25
ATOM     25  C   UNL     1      24.330   1.223  22.266  0.00  0.00    -0.045 A 
ATOM     27  C   UNL     1      25.431   0.428  21.949  0.00  0.00    +0.007 A 
ATOM     28  C   UNL     1      23.776   1.169  23.544  0.00  0.00    +0.007 A 
ATOM     30  C   UNL     1      25.978  -0.422  22.910  0.00  0.00    +0.046 A 
ATOM     31  C   UNL     1      24.322   0.320  24.506  0.00  0.00    +0.046 A 
ATOM     32  C   UNL     1      25.424  -0.476  24.189  0.00  0.00    +0.120 A 
BRANCH  32   9
ATOM      9  O   UNL     1      25.957  -1.304  25.127  0.00  0.00    -0.495 OA
ATOM     38  C   UNL     1      25.055  -1.881  26.072  0.00  0.00    +0.277 C 
ENDBRANCH  32   9
ENDBRANCH  24  25
ENDBRANCH  22  24
ENDBRANCH  12  22
ENDBRANCH  19  21
BRANCH  15   4
ATOM      4  O   UNL     1      19.958   6.697  25.076  0.00  0.00    -0.387 OA
ATOM     41  H   UNL     1      20.063   6.991  25.998  0.00  0.00    +0.210 HD
ENDBRANCH  15   4
BRANCH  16   5
ATOM      5  O   UNL     1      22.327   9.285  24.039  0.00  0.00    -0.389 OA
ATOM     42  H   UNL     1      21.734   9.426  23.281  0.00  0.00    +0.210 HD
ENDBRANCH  16   5
TORSDOF 12
ENDMDL
MODEL 3
REMARK VINA RESULT:      -7.1     28.887     33.030
REMARK  Name = 7134443
REMARK  13 active torsions:
REMARK  status: ('A' for Active; 'I' for Inactive)
REMARK    1  A    between atoms: O_4  and  C_15
REMARK    2  A    between atoms: O_5  and  C_16
REMARK    3  A    between atoms: O_9  and  C_32
REMARK    4  A    between atoms: O_9  and  C_38
REMARK    5  A    between atoms: O_10  and  C_37
REMARK    6  A    between atoms: O_10  and  C_39
REMARK    7  A    between atoms: N_11  and  C_17
REMARK    8  A    between atoms: N_12  and  C_22
REMARK    9  A    between atoms: N_13  and  C_29
REMARK   10  A    between atoms: C_19  and  C_21
REMARK   11  A    between atoms: C_22  and  C_24
REMARK   12  A    between atoms: C_22  and  C_26
REMARK   13  A    between atoms: C_24  and  C_25
REMARK                            x       y       z     vdW  Elec       q    Type
REMARK                         _______ _______ _______ _____ _____    ______ ____
ROOT
ATOM     15  C   UNL     1     -11.613 -10.287  18.896  0.00  0.00    +0.167 C 
ATOM     16  C   UNL     1     -10.608 -10.943  19.852  0.00  0.00    +0.149 C 
ATOM     17  C   UNL     1     -10.922  -9.291  17.945  0.00  0.00    +0.129 C 
ATOM     18  C   UNL     1      -9.460 -11.637  19.097  0.00  0.00    +0.074 C 
ATOM     19  C   UNL     1      -8.995 -10.875  17.890  0.00  0.00    +0.015 C 
ATOM     20  C   UNL     1      -9.635  -9.817  17.368  0.00  0.00    +0.006 C 
ENDROOT
BRANCH  17  11
ATOM      7  O   UNL     1     -11.215  -6.658  16.857  0.00  0.00    -0.252 OA
ATOM     11  N   UNL     1     -11.790  -8.897  16.864  0.00  0.00    -0.290 N 
ATOM     13  N   UNL     1     -12.797  -7.502  15.342  0.00  0.00    -0.269 N 
ATOM     23  C   UNL     1     -11.875  -7.583  16.390  0.00  0.00    +0.304 C 
ATOM     40  H   UNL     1     -12.306  -9.622  16.372  0.00  0.00    +0.151 HD
ATOM     44  H   UNL     1     -13.262  -8.366  15.076  0.00  0.00    +0.156 HD
BRANCH  13  29
ATOM     29  C   UNL     1     -13.167  -6.357  14.598  0.00  0.00    +0.035 A 
ATOM     33  C   UNL     1     -12.185  -5.548  14.027  0.00  0.00    +0.027 A 
ATOM     34  C   UNL     1     -14.515  -6.038  14.435  0.00  0.00    +0.027 A 
ATOM     35  C   UNL     1     -12.550  -4.419  13.294  0.00  0.00    +0.048 A 
ATOM     36  C   UNL     1     -14.881  -4.910  13.702  0.00  0.00    +0.048 A 
ATOM     37  C   UNL     1     -13.898  -4.101  13.131  0.00  0.00    +0.130 A 
BRANCH  37  10
ATOM     10  O   UNL     1     -14.255  -3.000  12.413  0.00  0.00    -0.406 OA
BRANCH  10  39
ATOM      1  F   UNL     1     -15.294  -2.164  10.592  0.00  0.00    -0.133 F 
ATOM      2  F   UNL     1     -13.309  -3.041  10.331  0.00  0.00    -0.133 F 
ATOM      3  F   UNL     1     -15.057  -4.332  10.735  0.00  0.00    -0.133 F 
ATOM     39  C   UNL     1     -14.468  -3.148  11.014  0.00  0.00    +0.575 C 
ENDBRANCH  10  39
ENDBRANCH  37  10
ENDBRANCH  13  29
ENDBRANCH  17  11
BRANCH  19  21
ATOM      6  O   UNL     1      -7.735 -11.667  16.072  0.00  0.00    -0.271 OA
ATOM     12  N   UNL     1      -6.653 -11.226  18.090  0.00  0.00    -0.300 N 
ATOM     21  C   UNL     1      -7.747 -11.296  17.245  0.00  0.00    +0.241 C 
ATOM     43  H   UNL     1      -6.797 -10.989  19.067  0.00  0.00    +0.150 HD
BRANCH  12  22
ATOM     22  C   UNL     1      -5.316 -11.592  17.681  0.00  0.00    +0.163 C 
BRANCH  22  26
ATOM      8  O   UNL     1      -4.661 -11.908  20.000  0.00  0.00    -0.274 OA
ATOM     14  N   UNL     1      -4.166 -13.561  18.484  0.00  0.00    -0.328 N 
ATOM     26  C   UNL     1      -4.679 -12.333  18.848  0.00  0.00    +0.231 C 
ATOM     45  H   UNL     1      -3.727 -14.165  19.171  0.00  0.00    +0.145 HD
ATOM     46  H   UNL     1      -4.192 -13.903  17.529  0.00  0.00    +0.145 HD
ENDBRANCH  22  26
BRANCH  22  24
ATOM     24  C   UNL     1      -4.472 -10.372  17.299  0.00  0.00    +0.067 C 
BRANCH  24  25
ATOM     25  C   UNL     1      -3.750 -10.550  15.985  0.00  0.00    -0.045 A 
ATOM     27  C   UNL     1      -4.474 -10.611  14.795  0.00  0.00    +0.007 A 
ATOM     28  C   UNL     1      -2.359 -10.652  15.961  0.00  0.00    +0.007 A 
ATOM     30  C   UNL     1      -3.808 -10.775  13.580  0.00  0.00    +0.046 A 
ATOM     31  C   UNL     1      -1.693 -10.816  14.747  0.00  0.00    +0.046 A 
ATOM     32  C   UNL     1      -2.417 -10.877  13.556  0.00  0.00    +0.120 A 
BRANCH  32   9
ATOM      9  O   UNL     1      -1.767 -11.038  12.372  0.00  0.00    -0.495 OA
ATOM     38  C   UNL     1      -1.774  -9.931  11.472  0.00  0.00    +0.277 C 
ENDBRANCH  32   9
ENDBRANCH  24  25
ENDBRANCH  22  24
ENDBRANCH  12  22
ENDBRANCH  19  21
BRANCH  15   4
ATOM      4  O   UNL     1     -12.257 -11.310  18.134  0.00  0.00    -0.387 OA
ATOM     41  H   UNL     1     -13.184 -11.043  18.012  0.00  0.00    +0.210 HD
ENDBRANCH  15   4
BRANCH  16   5
ATOM      5  O   UNL     1     -10.084  -9.971  20.755  0.00  0.00    -0.389 OA
ATOM     42  H   UNL     1      -9.684  -9.261  20.224  0.00  0.00    +0.210 HD
ENDBRANCH  16   5
TORSDOF 12
ENDMDL
MODEL 4
REMARK VINA RESULT:      -6.9      7.628     12.722
REMARK  Name = 7134443
REMARK  13 active torsions:
REMARK  status: ('A' for Active; 'I' for Inactive)
REMARK    1  A    between atoms: O_4  and  C_15
REMARK    2  A    between atoms: O_5  and  C_16
REMARK    3  A    between atoms: O_9  and  C_32
REMARK    4  A    between atoms: O_9  and  C_38
REMARK    5  A    between atoms: O_10  and  C_37
REMARK    6  A    between atoms: O_10  and  C_39
REMARK    7  A    between atoms: N_11  and  C_17
REMARK    8  A    between atoms: N_12  and  C_22
REMARK    9  A    between atoms: N_13  and  C_29
REMARK   10  A    between atoms: C_19  and  C_21
REMARK   11  A    between atoms: C_22  and  C_24
REMARK   12  A    between atoms: C_22  and  C_26
REMARK   13  A    between atoms: C_24  and  C_25
REMARK                            x       y       z     vdW  Elec       q    Type
REMARK                         _______ _______ _______ _____ _____    ______ ____
ROOT
ATOM     15  C   UNL     1      14.520  13.128  15.592  0.00  0.00    +0.167 C 
ATOM     16  C   UNL     1      15.707  12.533  16.362  0.00  0.00    +0.149 C 
ATOM     17  C   UNL     1      13.923  12.111  14.600  0.00  0.00    +0.129 C 
ATOM     18  C   UNL     1      15.330  11.233  17.094  0.00  0.00    +0.074 C 
ATOM     19  C   UNL     1      14.401  10.354  16.306  0.00  0.00    +0.015 C 
ATOM     20  C   UNL     1      13.771  10.731  15.183  0.00  0.00    +0.006 C 
ENDROOT
BRANCH  17  11
ATOM      7  O   UNL     1      12.994  11.918  11.898  0.00  0.00    -0.252 OA
ATOM     11  N   UNL     1      12.646  12.547  14.095  0.00  0.00    -0.290 N 
ATOM     13  N   UNL     1      10.979  12.925  12.560  0.00  0.00    -0.269 N 
ATOM     23  C   UNL     1      12.267  12.416  12.754  0.00  0.00    +0.304 C 
ATOM     40  H   UNL     1      11.958  12.893  14.759  0.00  0.00    +0.151 HD
ATOM     44  H   UNL     1      10.511  13.305  13.378  0.00  0.00    +0.156 HD
BRANCH  13  29
ATOM     29  C   UNL     1      10.240  12.978  11.355  0.00  0.00    +0.035 A 
ATOM     33  C   UNL     1       9.611  11.831  10.871  0.00  0.00    +0.027 A 
ATOM     34  C   UNL     1      10.139  14.178  10.652  0.00  0.00    +0.027 A 
ATOM     35  C   UNL     1       8.882  11.883   9.684  0.00  0.00    +0.048 A 
ATOM     36  C   UNL     1       9.409  14.231   9.464  0.00  0.00    +0.048 A 
ATOM     37  C   UNL     1       8.780  13.084   8.981  0.00  0.00    +0.130 A 
BRANCH  37  10
ATOM     10  O   UNL     1       8.066  13.135   7.823  0.00  0.00    -0.406 OA
BRANCH  10  39
ATOM      1  F   UNL     1       8.666  11.330   6.608  0.00  0.00    -0.133 F 
ATOM      2  F   UNL     1       8.026  13.124   5.536  0.00  0.00    -0.133 F 
ATOM      3  F   UNL     1       9.979  13.077   6.569  0.00  0.00    -0.133 F 
ATOM     39  C   UNL     1       8.688  12.682   6.626  0.00  0.00    +0.575 C 
ENDBRANCH  10  39
ENDBRANCH  37  10
ENDBRANCH  13  29
ENDBRANCH  17  11
BRANCH  19  21
ATOM      6  O   UNL     1      14.037   8.056  15.986  0.00  0.00    -0.271 OA
ATOM     12  N   UNL     1      14.150   8.889  18.161  0.00  0.00    -0.300 N 
ATOM     21  C   UNL     1      14.179   8.985  16.780  0.00  0.00    +0.241 C 
ATOM     43  H   UNL     1      14.191   9.739  18.716  0.00  0.00    +0.150 HD
BRANCH  12  22
ATOM     22  C   UNL     1      13.944   7.642  18.861  0.00  0.00    +0.163 C 
BRANCH  22  26
ATOM      8  O   UNL     1      11.611   8.304  18.708  0.00  0.00    -0.274 OA
ATOM     14  N   UNL     1      12.104   6.165  19.386  0.00  0.00    -0.328 N 
ATOM     26  C   UNL     1      12.441   7.441  18.982  0.00  0.00    +0.231 C 
ATOM     45  H   UNL     1      11.132   5.893  19.492  0.00  0.00    +0.145 HD
ATOM     46  H   UNL     1      12.799   5.460  19.605  0.00  0.00    +0.145 HD
ENDBRANCH  22  26
BRANCH  22  24
ATOM     24  C   UNL     1      14.596   7.641  20.247  0.00  0.00    +0.067 C 
BRANCH  24  25
ATOM     25  C   UNL     1      15.985   7.050  20.239  0.00  0.00    -0.045 A 
ATOM     27  C   UNL     1      16.389   6.234  19.182  0.00  0.00    +0.007 A 
ATOM     28  C   UNL     1      16.865   7.320  21.287  0.00  0.00    +0.007 A 
ATOM     30  C   UNL     1      17.672   5.687  19.173  0.00  0.00    +0.046 A 
ATOM     31  C   UNL     1      18.148   6.774  21.278  0.00  0.00    +0.046 A 
ATOM     32  C   UNL     1      18.552   5.958  20.221  0.00  0.00    +0.120 A 
BRANCH  32   9
ATOM      9  O   UNL     1      19.804   5.424  20.214  0.00  0.00    -0.495 OA
ATOM     38  C   UNL     1      20.686   5.822  21.263  0.00  0.00    +0.277 C 
ENDBRANCH  32   9
ENDBRANCH  24  25
ENDBRANCH  22  24
ENDBRANCH  12  22
ENDBRANCH  19  21
BRANCH  15   4
ATOM      4  O   UNL     1      13.518  13.526  16.531  0.00  0.00    -0.387 OA
ATOM     41  H   UNL     1      12.670  13.555  16.056  0.00  0.00    +0.210 HD
ENDBRANCH  15   4
BRANCH  16   5
ATOM      5  O   UNL     1      16.798  12.297  15.474  0.00  0.00    -0.389 OA
ATOM     42  H   UNL     1      17.618  12.348  15.995  0.00  0.00    +0.210 HD
ENDBRANCH  16   5
TORSDOF 12
ENDMDL
MODEL 5
REMARK VINA RESULT:      -6.9     28.584     32.031
REMARK  Name = 7134443
REMARK  13 active torsions:
REMARK  status: ('A' for Active; 'I' for Inactive)
REMARK    1  A    between atoms: O_4  and  C_15
REMARK    2  A    between atoms: O_5  and  C_16
REMARK    3  A    between atoms: O_9  and  C_32
REMARK    4  A    between atoms: O_9  and  C_38
REMARK    5  A    between atoms: O_10  and  C_37
REMARK    6  A    between atoms: O_10  and  C_39
REMARK    7  A    between atoms: N_11  and  C_17
REMARK    8  A    between atoms: N_12  and  C_22
REMARK    9  A    between atoms: N_13  and  C_29
REMARK   10  A    between atoms: C_19  and  C_21
REMARK   11  A    between atoms: C_22  and  C_24
REMARK   12  A    between atoms: C_22  and  C_26
REMARK   13  A    between atoms: C_24  and  C_25
REMARK                            x       y       z     vdW  Elec       q    Type
REMARK                         _______ _______ _______ _____ _____    ______ ____
ROOT
ATOM     15  C   UNL     1      -4.516 -13.725   3.577  0.00  0.00    +0.167 C 
ATOM     16  C   UNL     1      -5.834 -13.006   3.892  0.00  0.00    +0.149 C 
ATOM     17  C   UNL     1      -3.303 -12.941   4.111  0.00  0.00    +0.129 C 
ATOM     18  C   UNL     1      -5.998 -12.730   5.397  0.00  0.00    +0.074 C 
ATOM     19  C   UNL     1      -4.718 -12.329   6.072  0.00  0.00    +0.015 C 
ATOM     20  C   UNL     1      -3.505 -12.410   5.505  0.00  0.00    +0.006 C 
ENDROOT
BRANCH  17  11
ATOM      7  O   UNL     1      -1.472 -13.208   1.924  0.00  0.00    -0.252 OA
ATOM     11  N   UNL     1      -2.101 -13.737   4.085  0.00  0.00    -0.290 N 
ATOM     13  N   UNL     1      -0.175 -14.658   3.238  0.00  0.00    -0.269 N 
ATOM     23  C   UNL     1      -1.256 -13.814   2.971  0.00  0.00    +0.304 C 
ATOM     40  H   UNL     1      -1.812 -14.200   4.942  0.00  0.00    +0.151 HD
ATOM     44  H   UNL     1      -0.146 -15.085   4.160  0.00  0.00    +0.156 HD
BRANCH  13  29
ATOM     29  C   UNL     1       0.894 -14.997   2.376  0.00  0.00    +0.035 A 
ATOM     33  C   UNL     1       1.610 -13.993   1.724  0.00  0.00    +0.027 A 
ATOM     34  C   UNL     1       1.233 -16.335   2.179  0.00  0.00    +0.027 A 
ATOM     35  C   UNL     1       2.664 -14.327   0.874  0.00  0.00    +0.048 A 
ATOM     36  C   UNL     1       2.288 -16.670   1.329  0.00  0.00    +0.048 A 
ATOM     37  C   UNL     1       3.003 -15.666   0.678  0.00  0.00    +0.130 A 
BRANCH  37  10
ATOM     10  O   UNL     1       4.035 -15.991  -0.150  0.00  0.00    -0.406 OA
BRANCH  10  39
ATOM      1  F   UNL     1       6.217 -16.552  -0.278  0.00  0.00    -0.133 F 
ATOM      2  F   UNL     1       5.705 -14.429  -0.186  0.00  0.00    -0.133 F 
ATOM      3  F   UNL     1       5.481 -15.711   1.600  0.00  0.00    -0.133 F 
ATOM     39  C   UNL     1       5.356 -15.656   0.256  0.00  0.00    +0.575 C 
ENDBRANCH  10  39
ENDBRANCH  37  10
ENDBRANCH  13  29
ENDBRANCH  17  11
BRANCH  19  21
ATOM      6  O   UNL     1      -4.447 -12.471   8.401  0.00  0.00    -0.271 OA
ATOM     12  N   UNL     1      -5.285 -10.500   7.479  0.00  0.00    -0.300 N 
ATOM     21  C   UNL     1      -4.794 -11.793   7.435  0.00  0.00    +0.241 C 
ATOM     43  H   UNL     1      -5.623 -10.070   6.623  0.00  0.00    +0.150 HD
BRANCH  12  22
ATOM     22  C   UNL     1      -5.453  -9.761   8.710  0.00  0.00    +0.163 C 
BRANCH  22  26
ATOM      8  O   UNL     1      -7.203  -8.221   9.396  0.00  0.00    -0.274 OA
ATOM     14  N   UNL     1      -6.821  -8.521   7.150  0.00  0.00    -0.328 N 
ATOM     26  C   UNL     1      -6.588  -8.773   8.487  0.00  0.00    +0.231 C 
ATOM     45  H   UNL     1      -7.541  -7.867   6.862  0.00  0.00    +0.145 HD
ATOM     46  H   UNL     1      -6.302  -8.980   6.409  0.00  0.00    +0.145 HD
ENDBRANCH  22  26
BRANCH  22  24
ATOM     24  C   UNL     1      -4.175  -9.024   9.123  0.00  0.00    +0.067 C 
BRANCH  24  25
ATOM     25  C   UNL     1      -3.553  -9.589  10.376  0.00  0.00    -0.045 A 
ATOM     27  C   UNL     1      -4.322 -10.359  11.249  0.00  0.00    +0.007 A 
ATOM     28  C   UNL     1      -2.211  -9.341  10.662  0.00  0.00    +0.007 A 
ATOM     30  C   UNL     1      -3.748 -10.882  12.408  0.00  0.00    +0.046 A 
ATOM     31  C   UNL     1      -1.637  -9.864  11.821  0.00  0.00    +0.046 A 
ATOM     32  C   UNL     1      -2.405 -10.635  12.694  0.00  0.00    +0.120 A 
BRANCH  32   9
ATOM      9  O   UNL     1      -1.845 -11.144  13.824  0.00  0.00    -0.495 OA
ATOM     38  C   UNL     1      -1.538 -10.222  14.869  0.00  0.00    +0.277 C 
ENDBRANCH  32   9
ENDBRANCH  24  25
ENDBRANCH  22  24
ENDBRANCH  12  22
ENDBRANCH  19  21
BRANCH  15   4
ATOM      4  O   UNL     1      -4.548 -15.024   4.174  0.00  0.00    -0.387 OA
ATOM     41  H   UNL     1      -4.187 -15.652   3.524  0.00  0.00    +0.210 HD
ENDBRANCH  15   4
BRANCH  16   5
ATOM      5  O   UNL     1      -5.914 -11.785   3.159  0.00  0.00    -0.389 OA
ATOM     42  H   UNL     1      -5.847 -12.005   2.214  0.00  0.00    +0.210 HD
ENDBRANCH  16   5
TORSDOF 12
ENDMDL
MODEL 6
REMARK VINA RESULT:      -6.9     28.657     32.513
REMARK  Name = 7134443
REMARK  13 active torsions:
REMARK  status: ('A' for Active; 'I' for Inactive)
REMARK    1  A    between atoms: O_4  and  C_15
REMARK    2  A    between atoms: O_5  and  C_16
REMARK    3  A    between atoms: O_9  and  C_32
REMARK    4  A    between atoms: O_9  and  C_38
REMARK    5  A    between atoms: O_10  and  C_37
REMARK    6  A    between atoms: O_10  and  C_39
REMARK    7  A    between atoms: N_11  and  C_17
REMARK    8  A    between atoms: N_12  and  C_22
REMARK    9  A    between atoms: N_13  and  C_29
REMARK   10  A    between atoms: C_19  and  C_21
REMARK   11  A    between atoms: C_22  and  C_24
REMARK   12  A    between atoms: C_22  and  C_26
REMARK   13  A    between atoms: C_24  and  C_25
REMARK                            x       y       z     vdW  Elec       q    Type
REMARK                         _______ _______ _______ _____ _____    ______ ____
ROOT
ATOM     15  C   UNL     1     -11.339 -10.356  18.779  0.00  0.00    +0.167 C 
ATOM     16  C   UNL     1     -10.320 -11.029  19.708  0.00  0.00    +0.149 C 
ATOM     17  C   UNL     1     -10.657  -9.365  17.816  0.00  0.00    +0.129 C 
ATOM     18  C   UNL     1      -9.198 -11.733  18.925  0.00  0.00    +0.074 C 
ATOM     19  C   UNL     1      -8.752 -10.972  17.710  0.00  0.00    +0.015 C 
ATOM     20  C   UNL     1      -9.390  -9.904  17.207  0.00  0.00    +0.006 C 
ENDROOT
BRANCH  17  11
ATOM      7  O   UNL     1     -10.205  -7.268  15.918  0.00  0.00    -0.252 OA
ATOM     11  N   UNL     1     -11.545  -8.955  16.757  0.00  0.00    -0.290 N 
ATOM     13  N   UNL     1     -12.291  -7.745  14.953  0.00  0.00    -0.269 N 
ATOM     23  C   UNL     1     -11.248  -7.916  15.867  0.00  0.00    +0.304 C 
ATOM     40  H   UNL     1     -12.390  -9.498  16.600  0.00  0.00    +0.151 HD
ATOM     44  H   UNL     1     -13.090  -8.367  15.051  0.00  0.00    +0.156 HD
BRANCH  13  29
ATOM     29  C   UNL     1     -12.377  -6.805  13.899  0.00  0.00    +0.035 A 
ATOM     33  C   UNL     1     -12.165  -5.450  14.155  0.00  0.00    +0.027 A 
ATOM     34  C   UNL     1     -12.672  -7.233  12.606  0.00  0.00    +0.027 A 
ATOM     35  C   UNL     1     -12.249  -4.523  13.116  0.00  0.00    +0.048 A 
ATOM     36  C   UNL     1     -12.756  -6.307  11.566  0.00  0.00    +0.048 A 
ATOM     37  C   UNL     1     -12.544  -4.952  11.822  0.00  0.00    +0.130 A 
BRANCH  37  10
ATOM     10  O   UNL     1     -12.623  -4.047  10.807  0.00  0.00    -0.406 OA
BRANCH  10  39
ATOM      1  F   UNL     1     -12.186  -4.094   8.593  0.00  0.00    -0.133 F 
ATOM      2  F   UNL     1     -10.848  -2.942   9.881  0.00  0.00    -0.133 F 
ATOM      3  F   UNL     1     -10.820  -5.151   9.933  0.00  0.00    -0.133 F 
ATOM     39  C   UNL     1     -11.604  -4.057   9.814  0.00  0.00    +0.575 C 
ENDBRANCH  10  39
ENDBRANCH  37  10
ENDBRANCH  13  29
ENDBRANCH  17  11
BRANCH  19  21
ATOM      6  O   UNL     1      -7.541 -11.755  15.856  0.00  0.00    -0.271 OA
ATOM     12  N   UNL     1      -6.414 -11.375  17.861  0.00  0.00    -0.300 N 
ATOM     21  C   UNL     1      -7.525 -11.406  17.035  0.00  0.00    +0.241 C 
ATOM     43  H   UNL     1      -6.536 -11.153  18.845  0.00  0.00    +0.150 HD
BRANCH  12  22
ATOM     22  C   UNL     1      -5.093 -11.760  17.422  0.00  0.00    +0.163 C 
BRANCH  22  26
ATOM      8  O   UNL     1      -4.108 -12.179  19.604  0.00  0.00    -0.274 OA
ATOM     14  N   UNL     1      -4.460 -13.960  18.197  0.00  0.00    -0.328 N 
ATOM     26  C   UNL     1      -4.489 -12.620  18.522  0.00  0.00    +0.231 C 
ATOM     45  H   UNL     1      -4.096 -14.646  18.850  0.00  0.00    +0.145 HD
ATOM     46  H   UNL     1      -4.782 -14.312  17.301  0.00  0.00    +0.145 HD
ENDBRANCH  22  26
BRANCH  22  24
ATOM     24  C   UNL     1      -4.199 -10.548  17.140  0.00  0.00    +0.067 C 
BRANCH  24  25
ATOM     25  C   UNL     1      -3.630 -10.553  15.742  0.00  0.00    -0.045 A 
ATOM     27  C   UNL     1      -2.249 -10.519  15.552  0.00  0.00    +0.007 A 
ATOM     28  C   UNL     1      -4.485 -10.593  14.641  0.00  0.00    +0.007 A 
ATOM     30  C   UNL     1      -1.722 -10.524  14.260  0.00  0.00    +0.046 A 
ATOM     31  C   UNL     1      -3.959 -10.598  13.350  0.00  0.00    +0.046 A 
ATOM     32  C   UNL     1      -2.578 -10.564  13.159  0.00  0.00    +0.120 A 
BRANCH  32   9
ATOM      9  O   UNL     1      -2.065 -10.569  11.898  0.00  0.00    -0.495 OA
ATOM     38  C   UNL     1      -2.975 -10.330  10.826  0.00  0.00    +0.277 C 
ENDBRANCH  32   9
ENDBRANCH  24  25
ENDBRANCH  22  24
ENDBRANCH  12  22
ENDBRANCH  19  21
BRANCH  15   4
ATOM      4  O   UNL     1     -12.013 -11.368  18.027  0.00  0.00    -0.387 OA
ATOM     41  H   UNL     1     -12.530 -11.902  18.655  0.00  0.00    +0.210 HD
ENDBRANCH  15   4
BRANCH  16   5
ATOM      5  O   UNL     1      -9.763 -10.068  20.603  0.00  0.00    -0.389 OA
ATOM     42  H   UNL     1     -10.144  -9.201  20.378  0.00  0.00    +0.210 HD
ENDBRANCH  16   5
TORSDOF 12
ENDMDL
MODEL 7
REMARK VINA RESULT:      -6.8     17.112     21.283
REMARK  Name = 7134443
REMARK  13 active torsions:
REMARK  status: ('A' for Active; 'I' for Inactive)
REMARK    1  A    between atoms: O_4  and  C_15
REMARK    2  A    between atoms: O_5  and  C_16
REMARK    3  A    between atoms: O_9  and  C_32
REMARK    4  A    between atoms: O_9  and  C_38
REMARK    5  A    between atoms: O_10  and  C_37
REMARK    6  A    between atoms: O_10  and  C_39
REMARK    7  A    between atoms: N_11  and  C_17
REMARK    8  A    between atoms: N_12  and  C_22
REMARK    9  A    between atoms: N_13  and  C_29
REMARK   10  A    between atoms: C_19  and  C_21
REMARK   11  A    between atoms: C_22  and  C_24
REMARK   12  A    between atoms: C_22  and  C_26
REMARK   13  A    between atoms: C_24  and  C_25
REMARK                            x       y       z     vdW  Elec       q    Type
REMARK                         _______ _______ _______ _____ _____    ______ ____
ROOT
ATOM     15  C   UNL     1      14.326   4.587   1.024  0.00  0.00    +0.167 C 
ATOM     16  C   UNL     1      14.286   3.849  -0.321  0.00  0.00    +0.149 C 
ATOM     17  C   UNL     1      13.450   5.854   1.000  0.00  0.00    +0.129 C 
ATOM     18  C   UNL     1      12.850   3.497  -0.746  0.00  0.00    +0.074 C 
ATOM     19  C   UNL     1      11.852   4.573  -0.424  0.00  0.00    +0.015 C 
ATOM     20  C   UNL     1      12.110   5.639   0.349  0.00  0.00    +0.006 C 
ENDROOT
BRANCH  17  11
ATOM      7  O   UNL     1      11.473   5.014   2.894  0.00  0.00    -0.252 OA
ATOM     11  N   UNL     1      13.245   6.385   2.325  0.00  0.00    -0.290 N 
ATOM     13  N   UNL     1      12.291   6.617   4.401  0.00  0.00    -0.269 N 
ATOM     23  C   UNL     1      12.251   5.917   3.192  0.00  0.00    +0.304 C 
ATOM     40  H   UNL     1      13.903   7.077   2.674  0.00  0.00    +0.151 HD
ATOM     44  H   UNL     1      13.001   7.340   4.486  0.00  0.00    +0.156 HD
BRANCH  13  29
ATOM     29  C   UNL     1      11.457   6.445   5.532  0.00  0.00    +0.035 A 
ATOM     33  C   UNL     1      10.107   6.139   5.363  0.00  0.00    +0.027 A 
ATOM     34  C   UNL     1      11.986   6.582   6.814  0.00  0.00    +0.027 A 
ATOM     35  C   UNL     1       9.286   5.969   6.477  0.00  0.00    +0.048 A 
ATOM     36  C   UNL     1      11.166   6.412   7.929  0.00  0.00    +0.048 A 
ATOM     37  C   UNL     1       9.815   6.105   7.760  0.00  0.00    +0.130 A 
BRANCH  37  10
ATOM     10  O   UNL     1       9.014   5.937   8.848  0.00  0.00    -0.406 OA
BRANCH  10  39
ATOM      1  F   UNL     1       9.434   3.720   8.881  0.00  0.00    -0.133 F 
ATOM      2  F   UNL     1      10.317   4.956  10.451  0.00  0.00    -0.133 F 
ATOM      3  F   UNL     1       8.146   4.544  10.441  0.00  0.00    -0.133 F 
ATOM     39  C   UNL     1       9.227   4.797   9.672  0.00  0.00    +0.575 C 
ENDBRANCH  10  39
ENDBRANCH  37  10
ENDBRANCH  13  29
ENDBRANCH  17  11
BRANCH  19  21
ATOM      6  O   UNL     1       9.511   4.745  -0.348  0.00  0.00    -0.271 OA
ATOM     12  N   UNL     1      10.527   4.039  -2.323  0.00  0.00    -0.300 N 
ATOM     21  C   UNL     1      10.511   4.469  -1.008  0.00  0.00    +0.241 C 
ATOM     43  H   UNL     1      11.410   3.755  -2.740  0.00  0.00    +0.150 HD
BRANCH  12  22
ATOM     22  C   UNL     1       9.328   3.858  -3.109  0.00  0.00    +0.163 C 
BRANCH  22  26
ATOM      8  O   UNL     1       9.567   1.440  -3.176  0.00  0.00    -0.274 OA
ATOM     14  N   UNL     1       9.326   2.576  -5.158  0.00  0.00    -0.328 N 
ATOM     26  C   UNL     1       9.438   2.499  -3.785  0.00  0.00    +0.231 C 
ATOM     45  H   UNL     1       9.366   1.739  -5.731  0.00  0.00    +0.145 HD
ATOM     46  H   UNL     1       9.214   3.457  -5.649  0.00  0.00    +0.145 HD
ENDBRANCH  22  26
BRANCH  22  24
ATOM     24  C   UNL     1       9.148   4.962  -4.156  0.00  0.00    +0.067 C 
BRANCH  24  25
ATOM     25  C   UNL     1       8.213   6.054  -3.698  0.00  0.00    -0.045 A 
ATOM     27  C   UNL     1       6.854   5.980  -4.003  0.00  0.00    +0.007 A 
ATOM     28  C   UNL     1       8.706   7.136  -2.969  0.00  0.00    +0.007 A 
ATOM     30  C   UNL     1       5.988   6.989  -3.580  0.00  0.00    +0.046 A 
ATOM     31  C   UNL     1       7.841   8.144  -2.546  0.00  0.00    +0.046 A 
ATOM     32  C   UNL     1       6.481   8.071  -2.851  0.00  0.00    +0.120 A 
BRANCH  32   9
ATOM      9  O   UNL     1       5.637   9.056  -2.439  0.00  0.00    -0.495 OA
ATOM     38  C   UNL     1       4.724   8.732  -1.391  0.00  0.00    +0.277 C 
ENDBRANCH  32   9
ENDBRANCH  24  25
ENDBRANCH  22  24
ENDBRANCH  12  22
ENDBRANCH  19  21
BRANCH  15   4
ATOM      4  O   UNL     1      13.860   3.702   2.046  0.00  0.00    -0.387 OA
ATOM     41  H   UNL     1      14.499   3.742   2.779  0.00  0.00    +0.210 HD
ENDBRANCH  15   4
BRANCH  16   5
ATOM      5  O   UNL     1      14.916   4.636  -1.330  0.00  0.00    -0.389 OA
ATOM     42  H   UNL     1      15.523   4.055  -1.819  0.00  0.00    +0.210 HD
ENDBRANCH  16   5
TORSDOF 12
ENDMDL
MODEL 8
REMARK VINA RESULT:      -6.8      1.950      3.870
REMARK  Name = 7134443
REMARK  13 active torsions:
REMARK  status: ('A' for Active; 'I' for Inactive)
REMARK    1  A    between atoms: O_4  and  C_15
REMARK    2  A    between atoms: O_5  and  C_16
REMARK    3  A    between atoms: O_9  and  C_32
REMARK    4  A    between atoms: O_9  and  C_38
REMARK    5  A    between atoms: O_10  and  C_37
REMARK    6  A    between atoms: O_10  and  C_39
REMARK    7  A    between atoms: N_11  and  C_17
REMARK    8  A    between atoms: N_12  and  C_22
REMARK    9  A    between atoms: N_13  and  C_29
REMARK   10  A    between atoms: C_19  and  C_21
REMARK   11  A    between atoms: C_22  and  C_24
REMARK   12  A    between atoms: C_22  and  C_26
REMARK   13  A    between atoms: C_24  and  C_25
REMARK                            x       y       z     vdW  Elec       q    Type
REMARK                         _______ _______ _______ _____ _____    ______ ____
ROOT
ATOM     15  C   UNL     1      17.784  10.136  21.630  0.00  0.00    +0.167 C 
ATOM     16  C   UNL     1      16.330  10.625  21.660  0.00  0.00    +0.149 C 
ATOM     17  C   UNL     1      17.862   8.597  21.611  0.00  0.00    +0.129 C 
ATOM     18  C   UNL     1      15.506  10.064  20.488  0.00  0.00    +0.074 C 
ATOM     19  C   UNL     1      15.835   8.636  20.158  0.00  0.00    +0.015 C 
ATOM     20  C   UNL     1      16.882   7.964  20.660  0.00  0.00    +0.006 C 
ENDROOT
BRANCH  17  11
ATOM      7  O   UNL     1      19.105   6.182  22.521  0.00  0.00    -0.252 OA
ATOM     11  N   UNL     1      19.189   8.136  21.287  0.00  0.00    -0.290 N 
ATOM     13  N   UNL     1      21.024   6.754  21.295  0.00  0.00    -0.269 N 
ATOM     23  C   UNL     1      19.724   6.938  21.775  0.00  0.00    +0.304 C 
ATOM     40  H   UNL     1      19.732   8.665  20.610  0.00  0.00    +0.151 HD
ATOM     44  H   UNL     1      21.392   7.480  20.685  0.00  0.00    +0.156 HD
BRANCH  13  29
ATOM     29  C   UNL     1      21.901   5.675  21.555  0.00  0.00    +0.035 A 
ATOM     33  C   UNL     1      21.417   4.367  21.551  0.00  0.00    +0.027 A 
ATOM     34  C   UNL     1      23.249   5.919  21.815  0.00  0.00    +0.027 A 
ATOM     35  C   UNL     1      22.281   3.302  21.807  0.00  0.00    +0.048 A 
ATOM     36  C   UNL     1      24.114   4.855  22.070  0.00  0.00    +0.048 A 
ATOM     37  C   UNL     1      23.630   3.547  22.066  0.00  0.00    +0.130 A 
BRANCH  37  10
ATOM     10  O   UNL     1      24.474   2.507  22.314  0.00  0.00    -0.406 OA
BRANCH  10  39
ATOM      1  F   UNL     1      24.404   2.092  20.096  0.00  0.00    -0.133 F 
ATOM      2  F   UNL     1      26.352   2.479  21.009  0.00  0.00    -0.133 F 
ATOM      3  F   UNL     1      25.294   0.579  21.397  0.00  0.00    -0.133 F 
ATOM     39  C   UNL     1      25.146   1.908  21.212  0.00  0.00    +0.575 C 
ENDBRANCH  10  39
ENDBRANCH  37  10
ENDBRANCH  13  29
ENDBRANCH  17  11
BRANCH  19  21
ATOM      6  O   UNL     1      15.256   6.815  18.793  0.00  0.00    -0.271 OA
ATOM     12  N   UNL     1      13.777   8.608  18.970  0.00  0.00    -0.300 N 
ATOM     21  C   UNL     1      14.944   7.916  19.243  0.00  0.00    +0.241 C 
ATOM     43  H   UNL     1      13.666   9.552  19.330  0.00  0.00    +0.150 HD
BRANCH  12  22
ATOM     22  C   UNL     1      12.745   8.102  18.093  0.00  0.00    +0.163 C 
BRANCH  22  26
ATOM      8  O   UNL     1      13.595   8.132  15.816  0.00  0.00    -0.274 OA
ATOM     14  N   UNL     1      12.417   9.953  16.575  0.00  0.00    -0.328 N 
ATOM     26  C   UNL     1      12.991   8.707  16.719  0.00  0.00    +0.231 C 
ATOM     45  H   UNL     1      12.492  10.462  15.700  0.00  0.00    +0.145 HD
ATOM     46  H   UNL     1      11.916  10.415  17.327  0.00  0.00    +0.145 HD
ENDBRANCH  22  26
BRANCH  22  24
ATOM     24  C   UNL     1      11.339   8.454  18.589  0.00  0.00    +0.067 C 
BRANCH  24  25
ATOM     25  C   UNL     1      11.327   8.937  20.019  0.00  0.00    -0.045 A 
ATOM     27  C   UNL     1      11.723  10.240  20.317  0.00  0.00    +0.007 A 
ATOM     28  C   UNL     1      10.920   8.080  21.041  0.00  0.00    +0.007 A 
ATOM     30  C   UNL     1      11.712  10.688  21.638  0.00  0.00    +0.046 A 
ATOM     31  C   UNL     1      10.910   8.527  22.362  0.00  0.00    +0.046 A 
ATOM     32  C   UNL     1      11.305   9.831  22.661  0.00  0.00    +0.120 A 
BRANCH  32   9
ATOM      9  O   UNL     1      11.295  10.267  23.950  0.00  0.00    -0.495 OA
ATOM     38  C   UNL     1      12.033  11.453  24.240  0.00  0.00    +0.277 C 
ENDBRANCH  32   9
ENDBRANCH  24  25
ENDBRANCH  22  24
ENDBRANCH  12  22
ENDBRANCH  19  21
BRANCH  15   4
ATOM      4  O   UNL     1      18.421  10.663  20.465  0.00  0.00    -0.387 OA
ATOM     41  H   UNL     1      19.148  10.060  20.232  0.00  0.00    +0.210 HD
ENDBRANCH  15   4
BRANCH  16   5
ATOM      5  O   UNL     1      15.720  10.272  22.901  0.00  0.00    -0.389 OA
ATOM     42  H   UNL     1      16.412   9.901  23.474  0.00  0.00    +0.210 HD
ENDBRANCH  16   5
TORSDOF 12
ENDMDL
MODEL 9
REMARK VINA RESULT:      -6.8      3.210      5.562
REMARK  Name = 7134443
REMARK  13 active torsions:
REMARK  status: ('A' for Active; 'I' for Inactive)
REMARK    1  A    between atoms: O_4  and  C_15
REMARK    2  A    between atoms: O_5  and  C_16
REMARK    3  A    between atoms: O_9  and  C_32
REMARK    4  A    between atoms: O_9  and  C_38
REMARK    5  A    between atoms: O_10  and  C_37
REMARK    6  A    between atoms: O_10  and  C_39
REMARK    7  A    between atoms: N_11  and  C_17
REMARK    8  A    between atoms: N_12  and  C_22
REMARK    9  A    between atoms: N_13  and  C_29
REMARK   10  A    between atoms: C_19  and  C_21
REMARK   11  A    between atoms: C_22  and  C_24
REMARK   12  A    between atoms: C_22  and  C_26
REMARK   13  A    between atoms: C_24  and  C_25
REMARK                            x       y       z     vdW  Elec       q    Type
REMARK                         _______ _______ _______ _____ _____    ______ ____
ROOT
ATOM     15  C   UNL     1      13.689   6.642  20.952  0.00  0.00    +0.167 C 
ATOM     16  C   UNL     1      12.288   6.867  20.368  0.00  0.00    +0.149 C 
ATOM     17  C   UNL     1      14.789   7.012  19.938  0.00  0.00    +0.129 C 
ATOM     18  C   UNL     1      12.091   8.310  19.873  0.00  0.00    +0.074 C 
ATOM     19  C   UNL     1      13.309   8.881  19.203  0.00  0.00    +0.015 C 
ATOM     20  C   UNL     1      14.521   8.306  19.217  0.00  0.00    +0.006 C 
ENDROOT
BRANCH  17  11
ATOM      7  O   UNL     1      17.211   5.795  19.013  0.00  0.00    -0.252 OA
ATOM     11  N   UNL     1      16.085   7.088  20.564  0.00  0.00    -0.290 N 
ATOM     13  N   UNL     1      18.331   6.709  20.863  0.00  0.00    -0.269 N 
ATOM     23  C   UNL     1      17.225   6.461  20.045  0.00  0.00    +0.304 C 
ATOM     40  H   UNL     1      16.194   7.690  21.377  0.00  0.00    +0.151 HD
ATOM     44  H   UNL     1      18.170   7.282  21.687  0.00  0.00    +0.156 HD
BRANCH  13  29
ATOM     29  C   UNL     1      19.660   6.255  20.685  0.00  0.00    +0.035 A 
ATOM     33  C   UNL     1      20.710   7.172  20.648  0.00  0.00    +0.027 A 
ATOM     34  C   UNL     1      19.919   4.892  20.550  0.00  0.00    +0.027 A 
ATOM     35  C   UNL     1      22.020   6.726  20.473  0.00  0.00    +0.048 A 
ATOM     36  C   UNL     1      21.228   4.445  20.376  0.00  0.00    +0.048 A 
ATOM     37  C   UNL     1      22.279   5.362  20.338  0.00  0.00    +0.130 A 
BRANCH  37  10
ATOM     10  O   UNL     1      23.558   4.926  20.171  0.00  0.00    -0.406 OA
BRANCH  10  39
ATOM      1  F   UNL     1      23.847   2.831  20.960  0.00  0.00    -0.133 F 
ATOM      2  F   UNL     1      25.481   4.260  21.212  0.00  0.00    -0.133 F 
ATOM      3  F   UNL     1      23.633   4.454  22.408  0.00  0.00    -0.133 F 
ATOM     39  C   UNL     1      24.138   4.130  21.198  0.00  0.00    +0.575 C 
ENDBRANCH  10  39
ENDBRANCH  37  10
ENDBRANCH  13  29
ENDBRANCH  17  11
BRANCH  19  21
ATOM      6  O   UNL     1      12.817  10.145  17.285  0.00  0.00    -0.271 OA
ATOM     12  N   UNL     1      13.459  11.252  19.234  0.00  0.00    -0.300 N 
ATOM     21  C   UNL     1      13.164  10.140  18.465  0.00  0.00    +0.241 C 
ATOM     43  H   UNL     1      13.821  11.122  20.174  0.00  0.00    +0.150 HD
BRANCH  12  22
ATOM     22  C   UNL     1      13.390  12.603  18.725  0.00  0.00    +0.163 C 
BRANCH  22  26
ATOM      8  O   UNL     1      15.705  12.696  17.992  0.00  0.00    -0.274 OA
ATOM     14  N   UNL     1      14.045  12.918  16.420  0.00  0.00    -0.328 N 
ATOM     26  C   UNL     1      14.511  12.756  17.708  0.00  0.00    +0.231 C 
ATOM     45  H   UNL     1      14.689  13.016  15.642  0.00  0.00    +0.145 HD
ATOM     46  H   UNL     1      13.056  12.961  16.198  0.00  0.00    +0.145 HD
ENDBRANCH  22  26
BRANCH  22  24
ATOM     24  C   UNL     1      13.531  13.649  19.836  0.00  0.00    +0.067 C 
BRANCH  24  25
ATOM     25  C   UNL     1      12.631  13.373  21.016  0.00  0.00    -0.045 A 
ATOM     27  C   UNL     1      11.297  13.778  20.984  0.00  0.00    +0.007 A 
ATOM     28  C   UNL     1      13.133  12.712  22.137  0.00  0.00    +0.007 A 
ATOM     30  C   UNL     1      10.464  13.523  22.074  0.00  0.00    +0.046 A 
ATOM     31  C   UNL     1      12.301  12.457  23.226  0.00  0.00    +0.046 A 
ATOM     32  C   UNL     1      10.966  12.862  23.195  0.00  0.00    +0.120 A 
BRANCH  32   9
ATOM      9  O   UNL     1      10.154  12.613  24.259  0.00  0.00    -0.495 OA
ATOM     38  C   UNL     1      10.683  12.884  25.556  0.00  0.00    +0.277 C 
ENDBRANCH  32   9
ENDBRANCH  24  25
ENDBRANCH  22  24
ENDBRANCH  12  22
ENDBRANCH  19  21
BRANCH  15   4
ATOM      4  O   UNL     1      13.830   7.443  22.127  0.00  0.00    -0.387 OA
ATOM     41  H   UNL     1      14.703   7.246  22.510  0.00  0.00    +0.210 HD
ENDBRANCH  15   4
BRANCH  16   5
ATOM      5  O   UNL     1      12.046   5.947  19.305  0.00  0.00    -0.389 OA
ATOM     42  H   UNL     1      12.896   5.777  18.864  0.00  0.00    +0.210 HD
ENDBRANCH  16   5
TORSDOF 12
ENDMDL
MODEL 10
REMARK VINA RESULT:      -6.7     15.460     18.452
REMARK  Name = 7134443
REMARK  13 active torsions:
REMARK  status: ('A' for Active; 'I' for Inactive)
REMARK    1  A    between atoms: O_4  and  C_15
REMARK    2  A    between atoms: O_5  and  C_16
REMARK    3  A    between atoms: O_9  and  C_32
REMARK    4  A    between atoms: O_9  and  C_38
REMARK    5  A    between atoms: O_10  and  C_37
REMARK    6  A    between atoms: O_10  and  C_39
REMARK    7  A    between atoms: N_11  and  C_17
REMARK    8  A    between atoms: N_12  and  C_22
REMARK    9  A    between atoms: N_13  and  C_29
REMARK   10  A    between atoms: C_19  and  C_21
REMARK   11  A    between atoms: C_22  and  C_24
REMARK   12  A    between atoms: C_22  and  C_26
REMARK   13  A    between atoms: C_24  and  C_25
REMARK                            x       y       z     vdW  Elec       q    Type
REMARK                         _______ _______ _______ _____ _____    ______ ____
ROOT
ATOM     15  C   UNL     1      14.973   9.181   4.703  0.00  0.00    +0.167 C 
ATOM     16  C   UNL     1      14.529  10.178   5.782  0.00  0.00    +0.149 C 
ATOM     17  C   UNL     1      14.790   7.724   5.171  0.00  0.00    +0.129 C 
ATOM     18  C   UNL     1      13.076   9.940   6.227  0.00  0.00    +0.074 C 
ATOM     19  C   UNL     1      12.712   8.486   6.322  0.00  0.00    +0.015 C 
ATOM     20  C   UNL     1      13.474   7.482   5.861  0.00  0.00    +0.006 C 
ENDROOT
BRANCH  17  11
ATOM      7  O   UNL     1      12.797   7.092   3.214  0.00  0.00    -0.252 OA
ATOM     11  N   UNL     1      14.921   6.794   4.078  0.00  0.00    -0.290 N 
ATOM     13  N   UNL     1      14.307   5.596   2.216  0.00  0.00    -0.269 N 
ATOM     23  C   UNL     1      13.894   6.541   3.160  0.00  0.00    +0.304 C 
ATOM     40  H   UNL     1      15.827   6.361   3.919  0.00  0.00    +0.151 HD
ATOM     44  H   UNL     1      15.252   5.235   2.315  0.00  0.00    +0.156 HD
BRANCH  13  29
ATOM     29  C   UNL     1      13.567   5.075   1.129  0.00  0.00    +0.035 A 
ATOM     33  C   UNL     1      14.112   5.087  -0.155  0.00  0.00    +0.027 A 
ATOM     34  C   UNL     1      12.293   4.549   1.341  0.00  0.00    +0.027 A 
ATOM     35  C   UNL     1      13.382   4.573  -1.227  0.00  0.00    +0.048 A 
ATOM     36  C   UNL     1      11.563   4.035   0.270  0.00  0.00    +0.048 A 
ATOM     37  C   UNL     1      12.108   4.046  -1.014  0.00  0.00    +0.130 A 
BRANCH  37  10
ATOM     10  O   UNL     1      11.397   3.542  -2.060  0.00  0.00    -0.406 OA
BRANCH  10  39
ATOM      1  F   UNL     1      12.384   1.582  -1.530  0.00  0.00    -0.133 F 
ATOM      2  F   UNL     1      10.560   1.522  -2.733  0.00  0.00    -0.133 F 
ATOM      3  F   UNL     1      12.456   2.238  -3.614  0.00  0.00    -0.133 F 
ATOM     39  C   UNL     1      11.691   2.221  -2.500  0.00  0.00    +0.575 C 
ENDBRANCH  10  39
ENDBRANCH  37  10
ENDBRANCH  13  29
ENDBRANCH  17  11
BRANCH  19  21
ATOM      6  O   UNL     1      10.818   8.964   7.625  0.00  0.00    -0.271 OA
ATOM     12  N   UNL     1      11.096   6.806   6.788  0.00  0.00    -0.300 N 
ATOM     21  C   UNL     1      11.451   8.130   6.980  0.00  0.00    +0.241 C 
ATOM     43  H   UNL     1      11.743   6.186   6.309  0.00  0.00    +0.150 HD
BRANCH  12  22
ATOM     22  C   UNL     1       9.895   6.223   7.341  0.00  0.00    +0.163 C 
BRANCH  22  26
ATOM      8  O   UNL     1      10.615   5.424   9.520  0.00  0.00    -0.274 OA
ATOM     14  N   UNL     1      10.331   3.896   7.828  0.00  0.00    -0.328 N 
ATOM     26  C   UNL     1      10.333   5.172   8.351  0.00  0.00    +0.231 C 
ATOM     45  H   UNL     1      10.588   3.099   8.401  0.00  0.00    +0.145 HD
ATOM     46  H   UNL     1      10.091   3.701   6.862  0.00  0.00    +0.145 HD
ENDBRANCH  22  26
BRANCH  22  24
ATOM     24  C   UNL     1       9.009   5.591   6.263  0.00  0.00    +0.067 C 
BRANCH  24  25
ATOM     25  C   UNL     1       8.861   6.465   5.042  0.00  0.00    -0.045 A 
ATOM     27  C   UNL     1       8.054   7.601   5.092  0.00  0.00    +0.007 A 
ATOM     28  C   UNL     1       9.532   6.136   3.864  0.00  0.00    +0.007 A 
ATOM     30  C   UNL     1       7.917   8.410   3.963  0.00  0.00    +0.046 A 
ATOM     31  C   UNL     1       9.395   6.945   2.736  0.00  0.00    +0.046 A 
ATOM     32  C   UNL     1       8.588   8.082   2.785  0.00  0.00    +0.120 A 
BRANCH  32   9
ATOM      9  O   UNL     1       8.454   8.869   1.684  0.00  0.00    -0.495 OA
ATOM     38  C   UNL     1       7.885  10.164   1.876  0.00  0.00    +0.277 C 
ENDBRANCH  32   9
ENDBRANCH  24  25
ENDBRANCH  22  24
ENDBRANCH  12  22
ENDBRANCH  19  21
BRANCH  15   4
ATOM      4  O   UNL     1      14.199   9.406   3.523  0.00  0.00    -0.387 OA
ATOM     41  H   UNL     1      14.468   8.740   2.867  0.00  0.00    +0.210 HD
ENDBRANCH  15   4
BRANCH  16   5
ATOM      5  O   UNL     1      15.404  10.106   6.906  0.00  0.00    -0.389 OA
ATOM     42  H   UNL     1      15.665   9.176   7.017  0.00  0.00    +0.210 HD
ENDBRANCH  16   5
TORSDOF 12
ENDMDL
