MODEL 1
REMARK VINA RESULT:      -5.3      0.000      0.000
REMARK  Name = 71694384
REMARK  7 active torsions:
REMARK  status: ('A' for Active; 'I' for Inactive)
REMARK    1  A    between atoms: O_4  and  C_20
REMARK    2  A    between atoms: N_5  and  C_7
REMARK    3  A    between atoms: N_5  and  C_8
REMARK    4  A    between atoms: C_7  and  C_11
REMARK    5  A    between atoms: C_11  and  C_16
REMARK    6  A    between atoms: C_18  and  C_19
REMARK    7  A    between atoms: C_19  and  C_20
REMARK                            x       y       z     vdW  Elec       q    Type
REMARK                         _______ _______ _______ _____ _____    ______ ____
ROOT
ATOM      1  O   UNL     1      11.610   8.164  22.320  0.00  0.00    -0.376 OA
ATOM      7  C   UNL     1      12.466   7.930  20.376  0.00  0.00    +0.072 C 
ATOM      9  C   UNL     1      12.934   8.384  21.765  0.00  0.00    +0.184 C 
ATOM     10  C   UNL     1      11.205   7.463  21.114  0.00  0.00    +0.184 C 
ENDROOT
BRANCH   7   5
ATOM      5  N   UNL     1      12.132   9.121  19.589  0.00  0.00    -0.304 NA
ATOM     21  H   UNL     1      11.257   9.577  19.843  0.00  0.00    +0.123 HD
BRANCH   5   8
ATOM      2  O   UNL     1      11.577   9.537  15.447  0.00  0.00    -0.380 OA
ATOM      8  C   UNL     1      12.127   8.776  18.169  0.00  0.00    +0.059 C 
ATOM     12  C   UNL     1      13.050   9.703  17.373  0.00  0.00    +0.047 C 
ATOM     13  C   UNL     1      10.705   8.845  17.608  0.00  0.00    +0.047 C 
ATOM     14  C   UNL     1      12.933   9.417  15.880  0.00  0.00    +0.161 C 
ATOM     15  C   UNL     1      10.716   8.605  16.102  0.00  0.00    +0.161 C 
ENDBRANCH   5   8
ENDBRANCH   7   5
BRANCH   7  11
ATOM     11  C   UNL     1      13.293   6.926  19.615  0.00  0.00    +0.085 C 
BRANCH  11  16
ATOM      3  O   UNL     1      16.742   7.960  19.877  0.00  0.00    -0.359 OA
ATOM      6  N   UNL     1      15.454   8.090  19.373  0.00  0.00    -0.083 NA
ATOM     16  C   UNL     1      14.761   7.097  19.937  0.00  0.00    +0.086 A 
ATOM     17  C   UNL     1      15.550   6.316  20.798  0.00  0.00    +0.071 A 
ATOM     18  C   UNL     1      16.787   6.900  20.725  0.00  0.00    +0.140 A 
BRANCH  18  19
ATOM     19  C   UNL     1      18.084   6.619  21.352  0.00  0.00    +0.105 C 
BRANCH  19  20
ATOM     20  C   UNL     1      18.834   7.880  21.822  0.00  0.00    +0.163 C 
BRANCH  20   4
ATOM      4  O   UNL     1      17.892   8.876  22.197  0.00  0.00    -0.395 OA
ATOM     22  H   UNL     1      17.008   8.508  22.032  0.00  0.00    +0.209 HD
ENDBRANCH  20   4
ENDBRANCH  19  20
ENDBRANCH  18  19
ENDBRANCH  11  16
ENDBRANCH   7  11
TORSDOF 7
ENDMDL
MODEL 2
REMARK VINA RESULT:      -5.2      2.821      4.885
REMARK  Name = 71694384
REMARK  7 active torsions:
REMARK  status: ('A' for Active; 'I' for Inactive)
REMARK    1  A    between atoms: O_4  and  C_20
REMARK    2  A    between atoms: N_5  and  C_7
REMARK    3  A    between atoms: N_5  and  C_8
REMARK    4  A    between atoms: C_7  and  C_11
REMARK    5  A    between atoms: C_11  and  C_16
REMARK    6  A    between atoms: C_18  and  C_19
REMARK    7  A    between atoms: C_19  and  C_20
REMARK                            x       y       z     vdW  Elec       q    Type
REMARK                         _______ _______ _______ _____ _____    ______ ____
ROOT
ATOM      1  O   UNL     1      13.150   6.623  21.486  0.00  0.00    -0.376 OA
ATOM      7  C   UNL     1      11.903   7.731  20.152  0.00  0.00    +0.072 C 
ATOM      9  C   UNL     1      11.751   6.541  21.107  0.00  0.00    +0.184 C 
ATOM     10  C   UNL     1      13.268   7.912  20.827  0.00  0.00    +0.184 C 
ENDROOT
BRANCH   7   5
ATOM      5  N   UNL     1      12.117   7.213  18.797  0.00  0.00    -0.304 NA
ATOM     21  H   UNL     1      12.970   6.671  18.671  0.00  0.00    +0.123 HD
BRANCH   5   8
ATOM      2  O   UNL     1      12.249   9.237  15.121  0.00  0.00    -0.380 OA
ATOM      8  C   UNL     1      12.074   8.320  17.844  0.00  0.00    +0.059 C 
ATOM     12  C   UNL     1      10.930   8.142  16.842  0.00  0.00    +0.047 C 
ATOM     13  C   UNL     1      13.408   8.434  17.100  0.00  0.00    +0.047 C 
ATOM     14  C   UNL     1      10.981   9.232  15.777  0.00  0.00    +0.161 C 
ATOM     15  C   UNL     1      13.324   9.508  16.021  0.00  0.00    +0.161 C 
ENDBRANCH   5   8
ENDBRANCH   7   5
BRANCH   7  11
ATOM     11  C   UNL     1      10.895   8.851  20.209  0.00  0.00    +0.085 C 
BRANCH  11  16
ATOM      3  O   UNL     1      10.998  10.226  23.545  0.00  0.00    -0.359 OA
ATOM      6  N   UNL     1      10.651   9.238  22.632  0.00  0.00    -0.083 NA
ATOM     16  C   UNL     1      11.099   9.683  21.454  0.00  0.00    +0.086 A 
ATOM     17  C   UNL     1      11.730  10.934  21.561  0.00  0.00    +0.071 A 
ATOM     18  C   UNL     1      11.640  11.231  22.895  0.00  0.00    +0.140 A 
BRANCH  18  19
ATOM     19  C   UNL     1      12.081  12.365  23.717  0.00  0.00    +0.105 C 
BRANCH  19  20
ATOM     20  C   UNL     1      12.015  12.097  25.233  0.00  0.00    +0.163 C 
BRANCH  20   4
ATOM      4  O   UNL     1      10.655  12.041  25.642  0.00  0.00    -0.395 OA
ATOM     22  H   UNL     1      10.550  11.232  26.171  0.00  0.00    +0.209 HD
ENDBRANCH  20   4
ENDBRANCH  19  20
ENDBRANCH  18  19
ENDBRANCH  11  16
ENDBRANCH   7  11
TORSDOF 7
ENDMDL
MODEL 3
REMARK VINA RESULT:      -5.1      2.604      4.084
REMARK  Name = 71694384
REMARK  7 active torsions:
REMARK  status: ('A' for Active; 'I' for Inactive)
REMARK    1  A    between atoms: O_4  and  C_20
REMARK    2  A    between atoms: N_5  and  C_7
REMARK    3  A    between atoms: N_5  and  C_8
REMARK    4  A    between atoms: C_7  and  C_11
REMARK    5  A    between atoms: C_11  and  C_16
REMARK    6  A    between atoms: C_18  and  C_19
REMARK    7  A    between atoms: C_19  and  C_20
REMARK                            x       y       z     vdW  Elec       q    Type
REMARK                         _______ _______ _______ _____ _____    ______ ____
ROOT
ATOM      1  O   UNL     1      10.919   6.776  20.937  0.00  0.00    -0.376 OA
ATOM      7  C   UNL     1      12.466   8.249  20.959  0.00  0.00    +0.072 C 
ATOM      9  C   UNL     1      12.359   6.728  21.118  0.00  0.00    +0.184 C 
ATOM     10  C   UNL     1      11.005   8.158  20.500  0.00  0.00    +0.184 C 
ENDROOT
BRANCH   7   5
ATOM      5  N   UNL     1      12.497   8.852  22.296  0.00  0.00    -0.304 NA
ATOM     21  H   UNL     1      11.752   8.552  22.924  0.00  0.00    +0.123 HD
BRANCH   5   8
ATOM      2  O   UNL     1      12.299  12.891  23.424  0.00  0.00    -0.380 OA
ATOM      8  C   UNL     1      12.497  10.308  22.170  0.00  0.00    +0.059 C 
ATOM     12  C   UNL     1      13.654  10.929  22.958  0.00  0.00    +0.047 C 
ATOM     13  C   UNL     1      11.164  10.885  22.655  0.00  0.00    +0.047 C 
ATOM     14  C   UNL     1      13.562  12.451  22.925  0.00  0.00    +0.161 C 
ATOM     15  C   UNL     1      11.209  12.409  22.639  0.00  0.00    +0.161 C 
ENDBRANCH   5   8
ENDBRANCH   7   5
BRANCH   7  11
ATOM     11  C   UNL     1      13.502   8.820  20.026  0.00  0.00    +0.085 C 
BRANCH  11  16
ATOM      3  O   UNL     1      16.642   7.469  21.186  0.00  0.00    -0.359 OA
ATOM      6  N   UNL     1      15.495   8.235  21.355  0.00  0.00    -0.083 NA
ATOM     16  C   UNL     1      14.824   8.109  20.206  0.00  0.00    +0.086 A 
ATOM     17  C   UNL     1      15.492   7.285  19.285  0.00  0.00    +0.071 A 
ATOM     18  C   UNL     1      16.629   6.908  19.950  0.00  0.00    +0.140 A 
BRANCH  18  19
ATOM     19  C   UNL     1      17.775   6.059  19.605  0.00  0.00    +0.105 C 
BRANCH  19  20
ATOM     20  C   UNL     1      19.025   6.322  20.466  0.00  0.00    +0.163 C 
BRANCH  20   4
ATOM      4  O   UNL     1      20.083   5.476  20.031  0.00  0.00    -0.395 OA
ATOM     22  H   UNL     1      20.385   5.817  19.173  0.00  0.00    +0.209 HD
ENDBRANCH  20   4
ENDBRANCH  19  20
ENDBRANCH  18  19
ENDBRANCH  11  16
ENDBRANCH   7  11
TORSDOF 7
ENDMDL
MODEL 4
REMARK VINA RESULT:      -5.0     13.255     16.714
REMARK  Name = 71694384
REMARK  7 active torsions:
REMARK  status: ('A' for Active; 'I' for Inactive)
REMARK    1  A    between atoms: O_4  and  C_20
REMARK    2  A    between atoms: N_5  and  C_7
REMARK    3  A    between atoms: N_5  and  C_8
REMARK    4  A    between atoms: C_7  and  C_11
REMARK    5  A    between atoms: C_11  and  C_16
REMARK    6  A    between atoms: C_18  and  C_19
REMARK    7  A    between atoms: C_19  and  C_20
REMARK                            x       y       z     vdW  Elec       q    Type
REMARK                         _______ _______ _______ _____ _____    ______ ____
ROOT
ATOM      1  O   UNL     1       8.724   8.563   2.175  0.00  0.00    -0.376 OA
ATOM      7  C   UNL     1       9.867   7.372   3.532  0.00  0.00    +0.072 C 
ATOM      9  C   UNL     1       9.354   7.258   2.091  0.00  0.00    +0.184 C 
ATOM     10  C   UNL     1       9.422   8.836   3.419  0.00  0.00    +0.184 C 
ENDROOT
BRANCH   7   5
ATOM      5  N   UNL     1       8.930   6.667   4.413  0.00  0.00    -0.304 NA
ATOM     21  H   UNL     1       7.962   6.980   4.355  0.00  0.00    +0.123 HD
BRANCH   5   8
ATOM      2  O   UNL     1       8.949   6.271   8.593  0.00  0.00    -0.380 OA
ATOM      8  C   UNL     1       9.408   6.749   5.791  0.00  0.00    +0.059 C 
ATOM     12  C   UNL     1       9.529   5.357   6.417  0.00  0.00    +0.047 C 
ATOM     13  C   UNL     1       8.468   7.620   6.629  0.00  0.00    +0.047 C 
ATOM     14  C   UNL     1       9.899   5.468   7.892  0.00  0.00    +0.161 C 
ATOM     15  C   UNL     1       8.897   7.607   8.093  0.00  0.00    +0.161 C 
ENDBRANCH   5   8
ENDBRANCH   7   5
BRANCH   7  11
ATOM     11  C   UNL     1      11.311   7.058   3.825  0.00  0.00    +0.085 C 
BRANCH  11  16
ATOM      3  O   UNL     1      11.696   3.691   2.579  0.00  0.00    -0.359 OA
ATOM      6  N   UNL     1      11.068   4.646   3.370  0.00  0.00    -0.083 NA
ATOM     16  C   UNL     1      11.727   5.783   3.126  0.00  0.00    +0.086 A 
ATOM     17  C   UNL     1      12.768   5.609   2.199  0.00  0.00    +0.071 A 
ATOM     18  C   UNL     1      12.706   4.277   1.886  0.00  0.00    +0.140 A 
BRANCH  18  19
ATOM     19  C   UNL     1      13.479   3.405   0.993  0.00  0.00    +0.105 C 
BRANCH  19  20
ATOM     20  C   UNL     1      15.002   3.627   1.071  0.00  0.00    +0.163 C 
BRANCH  20   4
ATOM      4  O   UNL     1      15.475   3.198   2.342  0.00  0.00    -0.395 OA
ATOM     22  H   UNL     1      15.504   2.227   2.321  0.00  0.00    +0.209 HD
ENDBRANCH  20   4
ENDBRANCH  19  20
ENDBRANCH  18  19
ENDBRANCH  11  16
ENDBRANCH   7  11
TORSDOF 7
ENDMDL
MODEL 5
REMARK VINA RESULT:      -4.9     30.979     31.846
REMARK  Name = 71694384
REMARK  7 active torsions:
REMARK  status: ('A' for Active; 'I' for Inactive)
REMARK    1  A    between atoms: O_4  and  C_20
REMARK    2  A    between atoms: N_5  and  C_7
REMARK    3  A    between atoms: N_5  and  C_8
REMARK    4  A    between atoms: C_7  and  C_11
REMARK    5  A    between atoms: C_11  and  C_16
REMARK    6  A    between atoms: C_18  and  C_19
REMARK    7  A    between atoms: C_19  and  C_20
REMARK                            x       y       z     vdW  Elec       q    Type
REMARK                         _______ _______ _______ _____ _____    ______ ____
ROOT
ATOM      1  O   UNL     1     -14.854  -0.865  30.667  0.00  0.00    -0.376 OA
ATOM      7  C   UNL     1     -14.824   1.202  30.131  0.00  0.00    +0.072 C 
ATOM      9  C   UNL     1     -15.002   0.373  31.409  0.00  0.00    +0.184 C 
ATOM     10  C   UNL     1     -14.399  -0.130  29.500  0.00  0.00    +0.184 C 
ENDROOT
BRANCH   7   5
ATOM      5  N   UNL     1     -16.152   1.557  29.621  0.00  0.00    -0.304 NA
ATOM     21  H   UNL     1     -16.861   0.831  29.717  0.00  0.00    +0.123 HD
BRANCH   5   8
ATOM      2  O   UNL     1     -17.314   2.906  25.819  0.00  0.00    -0.380 OA
ATOM      8  C   UNL     1     -16.039   1.972  28.225  0.00  0.00    +0.059 C 
ATOM     12  C   UNL     1     -16.487   3.426  28.044  0.00  0.00    +0.047 C 
ATOM     13  C   UNL     1     -16.870   1.052  27.326  0.00  0.00    +0.047 C 
ATOM     14  C   UNL     1     -16.489   3.800  26.566  0.00  0.00    +0.161 C 
ATOM     15  C   UNL     1     -16.851   1.557  25.887  0.00  0.00    +0.161 C 
ENDBRANCH   5   8
ENDBRANCH   7   5
BRANCH   7  11
ATOM     11  C   UNL     1     -13.860   2.361  30.135  0.00  0.00    +0.085 C 
BRANCH  11  16
ATOM      3  O   UNL     1     -15.396   4.678  32.438  0.00  0.00    -0.359 OA
ATOM      6  N   UNL     1     -15.426   3.851  31.322  0.00  0.00    -0.083 NA
ATOM     16  C   UNL     1     -14.199   3.327  31.248  0.00  0.00    +0.086 A 
ATOM     17  C   UNL     1     -13.361   3.781  32.280  0.00  0.00    +0.071 A 
ATOM     18  C   UNL     1     -14.161   4.628  33.001  0.00  0.00    +0.140 A 
BRANCH  18  19
ATOM     19  C   UNL     1     -13.955   5.448  34.200  0.00  0.00    +0.105 C 
BRANCH  19  20
ATOM     20  C   UNL     1     -14.434   4.777  35.502  0.00  0.00    +0.163 C 
BRANCH  20   4
ATOM      4  O   UNL     1     -15.856   4.764  35.529  0.00  0.00    -0.395 OA
ATOM     22  H   UNL     1     -16.153   4.432  34.665  0.00  0.00    +0.209 HD
ENDBRANCH  20   4
ENDBRANCH  19  20
ENDBRANCH  18  19
ENDBRANCH  11  16
ENDBRANCH   7  11
TORSDOF 7
ENDMDL
MODEL 6
REMARK VINA RESULT:      -4.8     26.356     27.337
REMARK  Name = 71694384
REMARK  7 active torsions:
REMARK  status: ('A' for Active; 'I' for Inactive)
REMARK    1  A    between atoms: O_4  and  C_20
REMARK    2  A    between atoms: N_5  and  C_7
REMARK    3  A    between atoms: N_5  and  C_8
REMARK    4  A    between atoms: C_7  and  C_11
REMARK    5  A    between atoms: C_11  and  C_16
REMARK    6  A    between atoms: C_18  and  C_19
REMARK    7  A    between atoms: C_19  and  C_20
REMARK                            x       y       z     vdW  Elec       q    Type
REMARK                         _______ _______ _______ _____ _____    ______ ____
ROOT
ATOM      1  O   UNL     1      -2.163 -13.987  13.914  0.00  0.00    -0.376 OA
ATOM      7  C   UNL     1      -3.022 -12.032  13.844  0.00  0.00    +0.072 C 
ATOM      9  C   UNL     1      -3.280 -13.348  14.587  0.00  0.00    +0.184 C 
ATOM     10  C   UNL     1      -1.711 -12.701  13.413  0.00  0.00    +0.184 C 
ENDROOT
BRANCH   7   5
ATOM      5  N   UNL     1      -3.918 -11.973  12.685  0.00  0.00    -0.304 NA
ATOM     21  H   UNL     1      -3.727 -12.657  11.954  0.00  0.00    +0.123 HD
BRANCH   5   8
ATOM      2  O   UNL     1      -4.537  -8.839   9.959  0.00  0.00    -0.380 OA
ATOM      8  C   UNL     1      -3.902 -10.622  12.129  0.00  0.00    +0.059 C 
ATOM     12  C   UNL     1      -5.325 -10.114  11.872  0.00  0.00    +0.047 C 
ATOM     13  C   UNL     1      -3.092 -10.589  10.831  0.00  0.00    +0.047 C 
ATOM     14  C   UNL     1      -5.287  -8.760  11.172  0.00  0.00    +0.161 C 
ATOM     15  C   UNL     1      -3.177  -9.209  10.187  0.00  0.00    +0.161 C 
ENDBRANCH   5   8
ENDBRANCH   7   5
BRANCH   7  11
ATOM     11  C   UNL     1      -2.975 -10.744  14.625  0.00  0.00    +0.085 C 
BRANCH  11  16
ATOM      3  O   UNL     1      -5.959 -10.720  16.657  0.00  0.00    -0.359 OA
ATOM      6  N   UNL     1      -5.304 -10.680  15.432  0.00  0.00    -0.083 NA
ATOM     16  C   UNL     1      -4.005 -10.759  15.732  0.00  0.00    +0.086 A 
ATOM     17  C   UNL     1      -3.780 -10.852  17.116  0.00  0.00    +0.071 A 
ATOM     18  C   UNL     1      -5.041 -10.823  17.653  0.00  0.00    +0.140 A 
BRANCH  18  19
ATOM     19  C   UNL     1      -5.564 -10.880  19.022  0.00  0.00    +0.105 C 
BRANCH  19  20
ATOM     20  C   UNL     1      -6.565 -12.028  19.259  0.00  0.00    +0.163 C 
BRANCH  20   4
ATOM      4  O   UNL     1      -6.173 -13.159  18.491  0.00  0.00    -0.395 OA
ATOM     22  H   UNL     1      -6.648 -13.106  17.644  0.00  0.00    +0.209 HD
ENDBRANCH  20   4
ENDBRANCH  19  20
ENDBRANCH  18  19
ENDBRANCH  11  16
ENDBRANCH   7  11
TORSDOF 7
ENDMDL
MODEL 7
REMARK VINA RESULT:      -4.7     24.831     26.794
REMARK  Name = 71694384
REMARK  7 active torsions:
REMARK  status: ('A' for Active; 'I' for Inactive)
REMARK    1  A    between atoms: O_4  and  C_20
REMARK    2  A    between atoms: N_5  and  C_7
REMARK    3  A    between atoms: N_5  and  C_8
REMARK    4  A    between atoms: C_7  and  C_11
REMARK    5  A    between atoms: C_11  and  C_16
REMARK    6  A    between atoms: C_18  and  C_19
REMARK    7  A    between atoms: C_19  and  C_20
REMARK                            x       y       z     vdW  Elec       q    Type
REMARK                         _______ _______ _______ _____ _____    ______ ____
ROOT
ATOM      1  O   UNL     1      -0.759 -11.091  15.163  0.00  0.00    -0.376 OA
ATOM      7  C   UNL     1      -2.429 -10.797  13.864  0.00  0.00    +0.072 C 
ATOM      9  C   UNL     1      -1.810 -11.955  14.657  0.00  0.00    +0.184 C 
ATOM     10  C   UNL     1      -1.464  -9.920  14.671  0.00  0.00    +0.184 C 
ENDROOT
BRANCH   7   5
ATOM      5  N   UNL     1      -1.946 -10.873  12.482  0.00  0.00    -0.304 NA
ATOM     21  H   UNL     1      -1.148 -10.275  12.269  0.00  0.00    +0.123 HD
BRANCH   5   8
ATOM      2  O   UNL     1      -4.035 -10.422   8.867  0.00  0.00    -0.380 OA
ATOM      8  C   UNL     1      -3.050 -10.589  11.567  0.00  0.00    +0.059 C 
ATOM     12  C   UNL     1      -3.423 -11.830  10.751  0.00  0.00    +0.047 C 
ATOM     13  C   UNL     1      -2.681  -9.436  10.629  0.00  0.00    +0.047 C 
ATOM     14  C   UNL     1      -4.483 -11.482   9.711  0.00  0.00    +0.161 C 
ATOM     15  C   UNL     1      -3.782  -9.220   9.596  0.00  0.00    +0.161 C 
ENDBRANCH   5   8
ENDBRANCH   7   5
BRANCH   7  11
ATOM     11  C   UNL     1      -3.913 -10.550  13.963  0.00  0.00    +0.085 C 
BRANCH  11  16
ATOM      3  O   UNL     1      -5.334 -12.243  16.817  0.00  0.00    -0.359 OA
ATOM      6  N   UNL     1      -4.972 -12.184  15.476  0.00  0.00    -0.083 NA
ATOM     16  C   UNL     1      -4.430 -10.973  15.319  0.00  0.00    +0.086 A 
ATOM     17  C   UNL     1      -4.422 -10.232  16.513  0.00  0.00    +0.071 A 
ATOM     18  C   UNL     1      -5.001 -11.075  17.424  0.00  0.00    +0.140 A 
BRANCH  18  19
ATOM     19  C   UNL     1      -5.315 -10.968  18.853  0.00  0.00    +0.105 C 
BRANCH  19  20
ATOM     20  C   UNL     1      -4.557 -11.980  19.734  0.00  0.00    +0.163 C 
BRANCH  20   4
ATOM      4  O   UNL     1      -3.284 -12.244  19.158  0.00  0.00    -0.395 OA
ATOM     22  H   UNL     1      -2.935 -11.395  18.838  0.00  0.00    +0.209 HD
ENDBRANCH  20   4
ENDBRANCH  19  20
ENDBRANCH  18  19
ENDBRANCH  11  16
ENDBRANCH   7  11
TORSDOF 7
ENDMDL
MODEL 8
REMARK VINA RESULT:      -4.6     12.656     16.147
REMARK  Name = 71694384
REMARK  7 active torsions:
REMARK  status: ('A' for Active; 'I' for Inactive)
REMARK    1  A    between atoms: O_4  and  C_20
REMARK    2  A    between atoms: N_5  and  C_7
REMARK    3  A    between atoms: N_5  and  C_8
REMARK    4  A    between atoms: C_7  and  C_11
REMARK    5  A    between atoms: C_11  and  C_16
REMARK    6  A    between atoms: C_18  and  C_19
REMARK    7  A    between atoms: C_19  and  C_20
REMARK                            x       y       z     vdW  Elec       q    Type
REMARK                         _______ _______ _______ _____ _____    ______ ____
ROOT
ATOM      1  O   UNL     1      10.061  10.407   3.375  0.00  0.00    -0.376 OA
ATOM      7  C   UNL     1       9.625   8.339   3.684  0.00  0.00    +0.072 C 
ATOM      9  C   UNL     1      10.079   9.532   4.533  0.00  0.00    +0.184 C 
ATOM     10  C   UNL     1       9.364   9.394   2.602  0.00  0.00    +0.184 C 
ENDROOT
BRANCH   7   5
ATOM      5  N   UNL     1      10.811   7.565   3.303  0.00  0.00    -0.304 NA
ATOM     21  H   UNL     1      11.443   8.031   2.653  0.00  0.00    +0.123 HD
BRANCH   5   8
ATOM      2  O   UNL     1      10.985   3.971   1.139  0.00  0.00    -0.380 OA
ATOM      8  C   UNL     1      10.393   6.273   2.762  0.00  0.00    +0.059 C 
ATOM     12  C   UNL     1      11.319   5.150   3.237  0.00  0.00    +0.047 C 
ATOM     13  C   UNL     1      10.367   6.319   1.232  0.00  0.00    +0.047 C 
ATOM     14  C   UNL     1      10.950   3.835   2.560  0.00  0.00    +0.161 C 
ATOM     15  C   UNL     1      10.050   4.940   0.665  0.00  0.00    +0.161 C 
ENDBRANCH   5   8
ENDBRANCH   7   5
BRANCH   7  11
ATOM     11  C   UNL     1       8.487   7.481   4.172  0.00  0.00    +0.085 C 
BRANCH  11  16
ATOM      3  O   UNL     1       8.275   7.532   7.775  0.00  0.00    -0.359 OA
ATOM      6  N   UNL     1       7.949   8.023   6.517  0.00  0.00    -0.083 NA
ATOM     16  C   UNL     1       8.608   7.238   5.659  0.00  0.00    +0.086 A 
ATOM     17  C   UNL     1       9.357   6.244   6.312  0.00  0.00    +0.071 A 
ATOM     18  C   UNL     1       9.114   6.473   7.641  0.00  0.00    +0.140 A 
BRANCH  18  19
ATOM     19  C   UNL     1       9.559   5.829   8.882  0.00  0.00    +0.105 C 
BRANCH  19  20
ATOM     20  C   UNL     1       9.460   4.292   8.855  0.00  0.00    +0.163 C 
BRANCH  20   4
ATOM      4  O   UNL     1      10.672   3.751   8.344  0.00  0.00    -0.395 OA
ATOM     22  H   UNL     1      11.182   4.493   7.978  0.00  0.00    +0.209 HD
ENDBRANCH  20   4
ENDBRANCH  19  20
ENDBRANCH  18  19
ENDBRANCH  11  16
ENDBRANCH   7  11
TORSDOF 7
ENDMDL
MODEL 9
REMARK VINA RESULT:      -4.6     13.533     16.986
REMARK  Name = 71694384
REMARK  7 active torsions:
REMARK  status: ('A' for Active; 'I' for Inactive)
REMARK    1  A    between atoms: O_4  and  C_20
REMARK    2  A    between atoms: N_5  and  C_7
REMARK    3  A    between atoms: N_5  and  C_8
REMARK    4  A    between atoms: C_7  and  C_11
REMARK    5  A    between atoms: C_11  and  C_16
REMARK    6  A    between atoms: C_18  and  C_19
REMARK    7  A    between atoms: C_19  and  C_20
REMARK                            x       y       z     vdW  Elec       q    Type
REMARK                         _______ _______ _______ _____ _____    ______ ____
ROOT
ATOM      1  O   UNL     1       9.847   9.063   2.137  0.00  0.00    -0.376 OA
ATOM      7  C   UNL     1      10.340   7.014   2.492  0.00  0.00    +0.072 C 
ATOM      9  C   UNL     1      10.398   8.336   3.267  0.00  0.00    +0.184 C 
ATOM     10  C   UNL     1       9.509   7.813   1.480  0.00  0.00    +0.184 C 
ENDROOT
BRANCH   7   5
ATOM      5  N   UNL     1      11.663   6.760   1.912  0.00  0.00    -0.304 NA
ATOM     21  H   UNL     1      11.915   7.361   1.128  0.00  0.00    +0.123 HD
BRANCH   5   8
ATOM      2  O   UNL     1      13.132   3.288   0.065  0.00  0.00    -0.380 OA
ATOM      8  C   UNL     1      11.758   5.355   1.524  0.00  0.00    +0.059 C 
ATOM     12  C   UNL     1      13.069   4.735   2.017  0.00  0.00    +0.047 C 
ATOM     13  C   UNL     1      11.652   5.214   0.003  0.00  0.00    +0.047 C 
ATOM     14  C   UNL     1      13.214   3.311   1.491  0.00  0.00    +0.161 C 
ATOM     15  C   UNL     1      11.874   3.764  -0.412  0.00  0.00    +0.161 C 
ENDBRANCH   5   8
ENDBRANCH   7   5
BRANCH   7  11
ATOM     11  C   UNL     1       9.737   5.801   3.153  0.00  0.00    +0.085 C 
BRANCH  11  16
ATOM      3  O   UNL     1      11.013   5.921   6.528  0.00  0.00    -0.359 OA
ATOM      6  N   UNL     1      11.183   5.865   5.150  0.00  0.00    -0.083 NA
ATOM     16  C   UNL     1       9.944   5.857   4.650  0.00  0.00    +0.086 A 
ATOM     17  C   UNL     1       8.962   5.906   5.654  0.00  0.00    +0.071 A 
ATOM     18  C   UNL     1       9.686   5.945   6.816  0.00  0.00    +0.140 A 
BRANCH  18  19
ATOM     19  C   UNL     1       9.326   6.005   8.237  0.00  0.00    +0.105 C 
BRANCH  19  20
ATOM     20  C   UNL     1       9.787   4.779   9.048  0.00  0.00    +0.163 C 
BRANCH  20   4
ATOM      4  O   UNL     1      10.326   3.805   8.163  0.00  0.00    -0.395 OA
ATOM     22  H   UNL     1      10.262   2.946   8.612  0.00  0.00    +0.209 HD
ENDBRANCH  20   4
ENDBRANCH  19  20
ENDBRANCH  18  19
ENDBRANCH  11  16
ENDBRANCH   7  11
TORSDOF 7
ENDMDL
MODEL 10
REMARK VINA RESULT:      -4.5      2.930      6.596
REMARK  Name = 71694384
REMARK  7 active torsions:
REMARK  status: ('A' for Active; 'I' for Inactive)
REMARK    1  A    between atoms: O_4  and  C_20
REMARK    2  A    between atoms: N_5  and  C_7
REMARK    3  A    between atoms: N_5  and  C_8
REMARK    4  A    between atoms: C_7  and  C_11
REMARK    5  A    between atoms: C_11  and  C_16
REMARK    6  A    between atoms: C_18  and  C_19
REMARK    7  A    between atoms: C_19  and  C_20
REMARK                            x       y       z     vdW  Elec       q    Type
REMARK                         _______ _______ _______ _____ _____    ______ ____
ROOT
ATOM      1  O   UNL     1      16.665  11.430  22.562  0.00  0.00    -0.376 OA
ATOM      7  C   UNL     1      16.252   9.735  21.328  0.00  0.00    +0.072 C 
ATOM      9  C   UNL     1      15.503  10.582  22.364  0.00  0.00    +0.184 C 
ATOM     10  C   UNL     1      17.307  10.847  21.398  0.00  0.00    +0.184 C 
ENDROOT
BRANCH   7   5
ATOM      5  N   UNL     1      16.784   8.545  22.001  0.00  0.00    -0.304 NA
ATOM     21  H   UNL     1      17.059   8.684  22.973  0.00  0.00    +0.123 HD
BRANCH   5   8
ATOM      2  O   UNL     1      20.118   6.184  21.038  0.00  0.00    -0.380 OA
ATOM      8  C   UNL     1      17.903   8.012  21.229  0.00  0.00    +0.059 C 
ATOM     12  C   UNL     1      17.714   6.520  20.941  0.00  0.00    +0.047 C 
ATOM     13  C   UNL     1      19.221   8.238  21.975  0.00  0.00    +0.047 C 
ATOM     14  C   UNL     1      18.949   5.951  20.252  0.00  0.00    +0.161 C 
ATOM     15  C   UNL     1      20.374   7.575  21.229  0.00  0.00    +0.161 C 
ENDBRANCH   5   8
ENDBRANCH   7   5
BRANCH   7  11
ATOM     11  C   UNL     1      15.587   9.426  20.012  0.00  0.00    +0.085 C 
BRANCH  11  16
ATOM      3  O   UNL     1      13.520   6.467  20.024  0.00  0.00    -0.359 OA
ATOM      6  N   UNL     1      14.671   7.162  19.674  0.00  0.00    -0.083 NA
ATOM     16  C   UNL     1      14.510   8.381  20.196  0.00  0.00    +0.086 A 
ATOM     17  C   UNL     1      13.289   8.513  20.879  0.00  0.00    +0.071 A 
ATOM     18  C   UNL     1      12.705   7.282  20.741  0.00  0.00    +0.140 A 
BRANCH  18  19
ATOM     19  C   UNL     1      11.435   6.702  21.195  0.00  0.00    +0.105 C 
BRANCH  19  20
ATOM     20  C   UNL     1      10.573   7.670  22.030  0.00  0.00    +0.163 C 
BRANCH  20   4
ATOM      4  O   UNL     1       9.319   7.061  22.308  0.00  0.00    -0.395 OA
ATOM     22  H   UNL     1       8.688   7.396  21.648  0.00  0.00    +0.209 HD
ENDBRANCH  20   4
ENDBRANCH  19  20
ENDBRANCH  18  19
ENDBRANCH  11  16
ENDBRANCH   7  11
TORSDOF 7
ENDMDL
