MODEL 1
REMARK VINA RESULT:      -6.7      0.000      0.000
REMARK  Name = 7051282
REMARK  6 active torsions:
REMARK  status: ('A' for Active; 'I' for Inactive)
REMARK    1  A    between atoms: S_1  and  N_9
REMARK    2  A    between atoms: S_1  and  C_23
REMARK    3  A    between atoms: O_4  and  C_22
REMARK    4  A    between atoms: O_4  and  C_24
REMARK    5  A    between atoms: N_9  and  C_20
REMARK    6  A    between atoms: C_19  and  C_22
REMARK                            x       y       z     vdW  Elec       q    Type
REMARK                         _______ _______ _______ _____ _____    ______ ____
ROOT
ATOM      2  O   UNL     1      -4.523 -14.176  15.695  0.00  0.00    -0.266 OA
ATOM      3  O   UNL     1      -9.393 -11.941  15.794  0.00  0.00    -0.272 OA
ATOM      7  N   UNL     1      -8.013 -10.976  17.395  0.00  0.00    -0.298 N 
ATOM      8  N   UNL     1      -5.154 -12.361  17.036  0.00  0.00    -0.310 N 
ATOM     10  C   UNL     1      -6.850 -12.555  18.942  0.00  0.00    +0.027 C 
ATOM     11  C   UNL     1      -5.833 -10.374  18.433  0.00  0.00    +0.054 C 
ATOM     12  C   UNL     1      -6.091 -11.382  19.551  0.00  0.00    +0.018 C 
ATOM     13  C   UNL     1      -8.184 -12.080  18.341  0.00  0.00    +0.113 C 
ATOM     14  C   UNL     1      -5.957 -13.237  17.899  0.00  0.00    +0.130 C 
ATOM     15  C   UNL     1      -7.176  -9.866  17.875  0.00  0.00    +0.117 C 
ATOM     16  C   UNL     1      -5.013 -10.995  17.316  0.00  0.00    +0.027 A 
ATOM     17  C   UNL     1      -4.181 -10.231  16.584  0.00  0.00    +0.024 A 
ATOM     18  C   UNL     1      -4.454 -12.981  15.980  0.00  0.00    +0.274 A 
ATOM     19  C   UNL     1      -8.695 -10.999  16.179  0.00  0.00    +0.253 C 
ATOM     20  C   UNL     1      -3.570 -12.082  15.194  0.00  0.00    +0.112 A 
ATOM     21  C   UNL     1      -3.436 -10.789  15.488  0.00  0.00    +0.031 A 
ENDROOT
BRANCH  20   9
ATOM      9  N   UNL     1      -2.830 -12.587  14.111  0.00  0.00    -0.211 N 
ATOM     35  H   UNL     1      -1.878 -12.198  14.062  0.00  0.00    +0.174 HD
BRANCH   9   1
ATOM      1  S   UNL     1      -3.624 -12.700  12.621  0.00  0.00    +0.072 S 
ATOM      5  O   UNL     1      -3.134 -13.854  11.891  0.00  0.00    -0.150 OA
ATOM      6  O   UNL     1      -5.050 -12.508  12.812  0.00  0.00    -0.150 OA
BRANCH   1  23
ATOM     23  C   UNL     1      -3.002 -11.258  11.808  0.00  0.00    +0.108 A 
ATOM     25  C   UNL     1      -3.746 -10.680  10.795  0.00  0.00    +0.029 A 
ATOM     26  C   UNL     1      -1.782 -10.736  12.200  0.00  0.00    +0.029 A 
ATOM     29  C   UNL     1      -3.254  -9.544  10.153  0.00  0.00    +0.002 A 
ATOM     30  C   UNL     1      -1.290  -9.599  11.558  0.00  0.00    +0.002 A 
ATOM     31  C   UNL     1      -2.027  -9.003  10.534  0.00  0.00    +0.000 A 
ENDBRANCH   1  23
ENDBRANCH   9   1
ENDBRANCH  20   9
BRANCH  19  22
ATOM     22  C   UNL     1      -8.544  -9.785  15.296  0.00  0.00    +0.324 C 
BRANCH  22   4
ATOM      4  O   UNL     1      -7.499 -10.069  14.397  0.00  0.00    -0.483 OA
BRANCH   4  24
ATOM     24  C   UNL     1      -7.713  -9.780  13.069  0.00  0.00    +0.121 A 
ATOM     27  C   UNL     1      -6.695  -9.202  12.324  0.00  0.00    +0.045 A 
ATOM     28  C   UNL     1      -8.943 -10.070  12.497  0.00  0.00    +0.045 A 
ATOM     32  C   UNL     1      -6.911  -8.908  10.978  0.00  0.00    +0.004 A 
ATOM     33  C   UNL     1      -9.160  -9.776  11.150  0.00  0.00    +0.004 A 
ATOM     34  C   UNL     1      -8.144  -9.195  10.392  0.00  0.00    +0.000 A 
ENDBRANCH   4  24
ENDBRANCH  22   4
ENDBRANCH  19  22
TORSDOF 6
ENDMDL
MODEL 2
REMARK VINA RESULT:      -6.6     24.900     28.640
REMARK  Name = 7051282
REMARK  6 active torsions:
REMARK  status: ('A' for Active; 'I' for Inactive)
REMARK    1  A    between atoms: S_1  and  N_9
REMARK    2  A    between atoms: S_1  and  C_23
REMARK    3  A    between atoms: O_4  and  C_22
REMARK    4  A    between atoms: O_4  and  C_24
REMARK    5  A    between atoms: N_9  and  C_20
REMARK    6  A    between atoms: C_19  and  C_22
REMARK                            x       y       z     vdW  Elec       q    Type
REMARK                         _______ _______ _______ _____ _____    ______ ____
ROOT
ATOM      2  O   UNL     1      14.335   6.770   6.932  0.00  0.00    -0.266 OA
ATOM      3  O   UNL     1      10.347   3.850   4.860  0.00  0.00    -0.272 OA
ATOM      7  N   UNL     1       9.742   6.090   4.996  0.00  0.00    -0.298 N 
ATOM      8  N   UNL     1      12.314   7.626   6.109  0.00  0.00    -0.310 N 
ATOM     10  C   UNL     1      10.053   7.181   7.220  0.00  0.00    +0.027 C 
ATOM     11  C   UNL     1      10.158   8.537   5.171  0.00  0.00    +0.054 C 
ATOM     12  C   UNL     1       9.646   8.517   6.610  0.00  0.00    +0.018 C 
ATOM     13  C   UNL     1       9.438   6.016   6.426  0.00  0.00    +0.113 C 
ATOM     14  C   UNL     1      11.583   7.102   7.270  0.00  0.00    +0.130 C 
ATOM     15  C   UNL     1       9.496   7.399   4.372  0.00  0.00    +0.117 C 
ATOM     16  C   UNL     1      11.668   8.387   5.126  0.00  0.00    +0.027 A 
ATOM     17  C   UNL     1      12.374   8.957   4.132  0.00  0.00    +0.024 A 
ATOM     18  C   UNL     1      13.709   7.413   6.090  0.00  0.00    +0.274 A 
ATOM     19  C   UNL     1      10.146   4.941   4.317  0.00  0.00    +0.253 C 
ATOM     20  C   UNL     1      14.429   8.047   4.957  0.00  0.00    +0.112 A 
ATOM     21  C   UNL     1      13.798   8.782   4.041  0.00  0.00    +0.031 A 
ENDROOT
BRANCH  20   9
ATOM      9  N   UNL     1      15.820   7.896   4.829  0.00  0.00    -0.211 N 
ATOM     35  H   UNL     1      16.183   7.085   5.349  0.00  0.00    +0.174 HD
BRANCH   9   1
ATOM      1  S   UNL     1      16.763   9.296   4.956  0.00  0.00    +0.072 S 
ATOM      5  O   UNL     1      16.815   9.969   3.672  0.00  0.00    -0.150 OA
ATOM      6  O   UNL     1      16.388  10.029   6.151  0.00  0.00    -0.150 OA
BRANCH   1  23
ATOM     23  C   UNL     1      18.359   8.592   5.248  0.00  0.00    +0.108 A 
ATOM     25  C   UNL     1      18.986   7.897   4.229  0.00  0.00    +0.029 A 
ATOM     26  C   UNL     1      18.949   8.749   6.489  0.00  0.00    +0.029 A 
ATOM     29  C   UNL     1      20.244   7.341   4.459  0.00  0.00    +0.002 A 
ATOM     30  C   UNL     1      20.207   8.193   6.720  0.00  0.00    +0.002 A 
ATOM     31  C   UNL     1      20.855   7.488   5.704  0.00  0.00    +0.000 A 
ENDBRANCH   1  23
ENDBRANCH   9   1
ENDBRANCH  20   9
BRANCH  19  22
ATOM     22  C   UNL     1      10.349   5.071   2.828  0.00  0.00    +0.324 C 
BRANCH  22   4
ATOM      4  O   UNL     1      11.167   3.994   2.438  0.00  0.00    -0.483 OA
BRANCH   4  24
ATOM     24  C   UNL     1      12.449   4.287   2.033  0.00  0.00    +0.121 A 
ATOM     27  C   UNL     1      13.274   3.266   1.588  0.00  0.00    +0.045 A 
ATOM     28  C   UNL     1      12.894   5.600   2.078  0.00  0.00    +0.045 A 
ATOM     32  C   UNL     1      14.574   3.562   1.179  0.00  0.00    +0.004 A 
ATOM     33  C   UNL     1      14.194   5.898   1.669  0.00  0.00    +0.004 A 
ATOM     34  C   UNL     1      15.034   4.879   1.219  0.00  0.00    +0.000 A 
ENDBRANCH   4  24
ENDBRANCH  22   4
ENDBRANCH  19  22
TORSDOF 6
ENDMDL
MODEL 3
REMARK VINA RESULT:      -6.6      1.811      2.654
REMARK  Name = 7051282
REMARK  6 active torsions:
REMARK  status: ('A' for Active; 'I' for Inactive)
REMARK    1  A    between atoms: S_1  and  N_9
REMARK    2  A    between atoms: S_1  and  C_23
REMARK    3  A    between atoms: O_4  and  C_22
REMARK    4  A    between atoms: O_4  and  C_24
REMARK    5  A    between atoms: N_9  and  C_20
REMARK    6  A    between atoms: C_19  and  C_22
REMARK                            x       y       z     vdW  Elec       q    Type
REMARK                         _______ _______ _______ _____ _____    ______ ____
ROOT
ATOM      2  O   UNL     1      -4.739 -14.066  16.140  0.00  0.00    -0.266 OA
ATOM      3  O   UNL     1      -9.664 -11.962  15.948  0.00  0.00    -0.272 OA
ATOM      7  N   UNL     1      -8.336 -10.810  17.468  0.00  0.00    -0.298 N 
ATOM      8  N   UNL     1      -5.439 -12.146  17.288  0.00  0.00    -0.310 N 
ATOM     10  C   UNL     1      -7.161 -12.199  19.178  0.00  0.00    +0.027 C 
ATOM     11  C   UNL     1      -6.190 -10.052  18.474  0.00  0.00    +0.054 C 
ATOM     12  C   UNL     1      -6.443 -10.953  19.681  0.00  0.00    +0.018 C 
ATOM     13  C   UNL     1      -8.497 -11.821  18.515  0.00  0.00    +0.113 C 
ATOM     14  C   UNL     1      -6.234 -12.955  18.220  0.00  0.00    +0.130 C 
ATOM     15  C   UNL     1      -7.536  -9.636  17.849  0.00  0.00    +0.117 C 
ATOM     16  C   UNL     1      -5.336 -10.757  17.435  0.00  0.00    +0.027 A 
ATOM     17  C   UNL     1      -4.511 -10.046  16.644  0.00  0.00    +0.024 A 
ATOM     18  C   UNL     1      -4.705 -12.848  16.308  0.00  0.00    +0.274 A 
ATOM     19  C   UNL     1      -8.997 -10.969  16.250  0.00  0.00    +0.253 C 
ATOM     20  C   UNL     1      -3.831 -12.007  15.451  0.00  0.00    +0.112 A 
ATOM     21  C   UNL     1      -3.734 -10.688  15.619  0.00  0.00    +0.031 A 
ENDROOT
BRANCH  20   9
ATOM      9  N   UNL     1      -3.060 -12.595  14.434  0.00  0.00    -0.211 N 
ATOM     35  H   UNL     1      -2.110 -12.202  14.375  0.00  0.00    +0.174 HD
BRANCH   9   1
ATOM      1  S   UNL     1      -3.815 -12.841  12.939  0.00  0.00    +0.072 S 
ATOM      5  O   UNL     1      -3.268 -14.025  12.303  0.00  0.00    -0.150 OA
ATOM      6  O   UNL     1      -5.251 -12.688  13.087  0.00  0.00    -0.150 OA
BRANCH   1  23
ATOM     23  C   UNL     1      -3.225 -11.438  12.038  0.00  0.00    +0.108 A 
ATOM     25  C   UNL     1      -4.041 -10.856  11.084  0.00  0.00    +0.029 A 
ATOM     26  C   UNL     1      -1.958 -10.950  12.304  0.00  0.00    +0.029 A 
ATOM     29  C   UNL     1      -3.575  -9.751  10.373  0.00  0.00    +0.002 A 
ATOM     30  C   UNL     1      -1.492  -9.844  11.593  0.00  0.00    +0.002 A 
ATOM     31  C   UNL     1      -2.301  -9.245  10.627  0.00  0.00    +0.000 A 
ENDBRANCH   1  23
ENDBRANCH   9   1
ENDBRANCH  20   9
BRANCH  19  22
ATOM     22  C   UNL     1      -8.861  -9.843  15.255  0.00  0.00    +0.324 C 
BRANCH  22   4
ATOM      4  O   UNL     1     -10.136  -9.648  14.693  0.00  0.00    -0.483 OA
BRANCH   4  24
ATOM     24  C   UNL     1     -10.859  -8.560  15.127  0.00  0.00    +0.121 A 
ATOM     27  C   UNL     1     -12.245  -8.597  15.072  0.00  0.00    +0.045 A 
ATOM     28  C   UNL     1     -10.190  -7.446  15.611  0.00  0.00    +0.045 A 
ATOM     32  C   UNL     1     -12.978  -7.494  15.511  0.00  0.00    +0.004 A 
ATOM     33  C   UNL     1     -10.923  -6.343  16.050  0.00  0.00    +0.004 A 
ATOM     34  C   UNL     1     -12.317  -6.368  16.001  0.00  0.00    +0.000 A 
ENDBRANCH   4  24
ENDBRANCH  22   4
ENDBRANCH  19  22
TORSDOF 6
ENDMDL
MODEL 4
REMARK VINA RESULT:      -6.4      1.524      2.007
REMARK  Name = 7051282
REMARK  6 active torsions:
REMARK  status: ('A' for Active; 'I' for Inactive)
REMARK    1  A    between atoms: S_1  and  N_9
REMARK    2  A    between atoms: S_1  and  C_23
REMARK    3  A    between atoms: O_4  and  C_22
REMARK    4  A    between atoms: O_4  and  C_24
REMARK    5  A    between atoms: N_9  and  C_20
REMARK    6  A    between atoms: C_19  and  C_22
REMARK                            x       y       z     vdW  Elec       q    Type
REMARK                         _______ _______ _______ _____ _____    ______ ____
ROOT
ATOM      2  O   UNL     1      -4.225 -13.587  16.417  0.00  0.00    -0.266 OA
ATOM      3  O   UNL     1      -9.405 -13.873  17.758  0.00  0.00    -0.272 OA
ATOM      7  N   UNL     1      -8.510 -11.818  18.370  0.00  0.00    -0.298 N 
ATOM      8  N   UNL     1      -5.485 -11.838  17.339  0.00  0.00    -0.310 N 
ATOM     10  C   UNL     1      -6.412 -11.890  19.722  0.00  0.00    +0.027 C 
ATOM     11  C   UNL     1      -6.867  -9.951  18.279  0.00  0.00    +0.054 C 
ATOM     12  C   UNL     1      -6.321 -10.371  19.643  0.00  0.00    +0.018 C 
ATOM     13  C   UNL     1      -7.872 -12.351  19.575  0.00  0.00    +0.113 C 
ATOM     14  C   UNL     1      -5.503 -12.500  18.649  0.00  0.00    +0.130 C 
ATOM     15  C   UNL     1      -8.345 -10.371  18.164  0.00  0.00    +0.117 C 
ATOM     16  C   UNL     1      -6.064 -10.576  17.152  0.00  0.00    +0.027 A 
ATOM     17  C   UNL     1      -5.938  -9.934  15.976  0.00  0.00    +0.024 A 
ATOM     18  C   UNL     1      -4.769 -12.488  16.311  0.00  0.00    +0.274 A 
ATOM     19  C   UNL     1      -9.280 -12.660  17.568  0.00  0.00    +0.253 C 
ATOM     20  C   UNL     1      -4.684 -11.741  15.030  0.00  0.00    +0.112 A 
ATOM     21  C   UNL     1      -5.227 -10.533  14.879  0.00  0.00    +0.031 A 
ENDROOT
BRANCH  20   9
ATOM      9  N   UNL     1      -4.003 -12.294  13.932  0.00  0.00    -0.211 N 
ATOM     35  H   UNL     1      -4.136 -13.312  13.851  0.00  0.00    +0.174 HD
BRANCH   9   1
ATOM      1  S   UNL     1      -2.418 -11.765  13.662  0.00  0.00    +0.072 S 
ATOM      5  O   UNL     1      -1.997 -10.907  14.753  0.00  0.00    -0.150 OA
ATOM      6  O   UNL     1      -1.593 -12.887  13.254  0.00  0.00    -0.150 OA
BRANCH   1  23
ATOM     23  C   UNL     1      -2.652 -10.737  12.242  0.00  0.00    +0.108 A 
ATOM     25  C   UNL     1      -3.849 -10.805  11.550  0.00  0.00    +0.029 A 
ATOM     26  C   UNL     1      -1.635  -9.886  11.850  0.00  0.00    +0.029 A 
ATOM     29  C   UNL     1      -4.033  -9.996  10.430  0.00  0.00    +0.002 A 
ATOM     30  C   UNL     1      -1.819  -9.076  10.730  0.00  0.00    +0.002 A 
ATOM     31  C   UNL     1      -3.019  -9.131  10.019  0.00  0.00    +0.000 A 
ENDBRANCH   1  23
ENDBRANCH   9   1
ENDBRANCH  20   9
BRANCH  19  22
ATOM     22  C   UNL     1      -9.983 -12.021  16.397  0.00  0.00    +0.324 C 
BRANCH  22   4
ATOM      4  O   UNL     1      -9.461 -12.623  15.237  0.00  0.00    -0.483 OA
BRANCH   4  24
ATOM     24  C   UNL     1      -8.925 -11.792  14.280  0.00  0.00    +0.121 A 
ATOM     27  C   UNL     1      -8.133 -12.330  13.277  0.00  0.00    +0.045 A 
ATOM     28  C   UNL     1      -9.185 -10.431  14.336  0.00  0.00    +0.045 A 
ATOM     32  C   UNL     1      -7.587 -11.488  12.307  0.00  0.00    +0.004 A 
ATOM     33  C   UNL     1      -8.640  -9.588  13.367  0.00  0.00    +0.004 A 
ATOM     34  C   UNL     1      -7.842 -10.117  12.352  0.00  0.00    +0.000 A 
ENDBRANCH   4  24
ENDBRANCH  22   4
ENDBRANCH  19  22
TORSDOF 6
ENDMDL
MODEL 5
REMARK VINA RESULT:      -6.4     30.688     33.502
REMARK  Name = 7051282
REMARK  6 active torsions:
REMARK  status: ('A' for Active; 'I' for Inactive)
REMARK    1  A    between atoms: S_1  and  N_9
REMARK    2  A    between atoms: S_1  and  C_23
REMARK    3  A    between atoms: O_4  and  C_22
REMARK    4  A    between atoms: O_4  and  C_24
REMARK    5  A    between atoms: N_9  and  C_20
REMARK    6  A    between atoms: C_19  and  C_22
REMARK                            x       y       z     vdW  Elec       q    Type
REMARK                         _______ _______ _______ _____ _____    ______ ____
ROOT
ATOM      2  O   UNL     1      20.837   4.214  20.327  0.00  0.00    -0.266 OA
ATOM      3  O   UNL     1      22.037   1.884  25.001  0.00  0.00    -0.272 OA
ATOM      7  N   UNL     1      23.968   2.552  23.896  0.00  0.00    -0.298 N 
ATOM      8  N   UNL     1      22.989   4.031  21.237  0.00  0.00    -0.310 N 
ATOM     10  C   UNL     1      24.198   1.795  21.526  0.00  0.00    +0.027 C 
ATOM     11  C   UNL     1      25.291   3.875  22.254  0.00  0.00    +0.054 C 
ATOM     12  C   UNL     1      25.470   2.624  21.396  0.00  0.00    +0.018 C 
ATOM     13  C   UNL     1      23.961   1.398  22.993  0.00  0.00    +0.113 C 
ATOM     14  C   UNL     1      23.023   2.592  20.947  0.00  0.00    +0.130 C 
ATOM     15  C   UNL     1      25.107   3.467  23.729  0.00  0.00    +0.117 C 
ATOM     16  C   UNL     1      24.095   4.688  21.792  0.00  0.00    +0.027 A 
ATOM     17  C   UNL     1      24.089   6.026  21.944  0.00  0.00    +0.024 A 
ATOM     18  C   UNL     1      21.832   4.731  20.835  0.00  0.00    +0.274 A 
ATOM     19  C   UNL     1      22.986   2.664  24.878  0.00  0.00    +0.253 C 
ATOM     20  C   UNL     1      21.876   6.200  21.048  0.00  0.00    +0.112 A 
ATOM     21  C   UNL     1      22.945   6.808  21.562  0.00  0.00    +0.031 A 
ENDROOT
BRANCH  20   9
ATOM      9  N   UNL     1      20.776   7.000  20.694  0.00  0.00    -0.211 N 
ATOM     35  H   UNL     1      21.049   7.853  20.187  0.00  0.00    +0.174 HD
BRANCH   9   1
ATOM      1  S   UNL     1      19.580   7.231  21.870  0.00  0.00    +0.072 S 
ATOM      5  O   UNL     1      19.625   6.146  22.832  0.00  0.00    -0.150 OA
ATOM      6  O   UNL     1      19.600   8.610  22.322  0.00  0.00    -0.150 OA
BRANCH   1  23
ATOM     23  C   UNL     1      18.118   7.014  20.899  0.00  0.00    +0.108 A 
ATOM     25  C   UNL     1      16.988   7.749  21.208  0.00  0.00    +0.029 A 
ATOM     26  C   UNL     1      18.133   6.114  19.849  0.00  0.00    +0.029 A 
ATOM     29  C   UNL     1      15.834   7.577  20.443  0.00  0.00    +0.002 A 
ATOM     30  C   UNL     1      16.980   5.942  19.083  0.00  0.00    +0.002 A 
ATOM     31  C   UNL     1      15.830   6.674  19.381  0.00  0.00    +0.000 A 
ENDBRANCH   1  23
ENDBRANCH   9   1
ENDBRANCH  20   9
BRANCH  19  22
ATOM     22  C   UNL     1      23.112   3.827  25.830  0.00  0.00    +0.324 C 
BRANCH  22   4
ATOM      4  O   UNL     1      22.212   4.813  25.382  0.00  0.00    -0.483 OA
BRANCH   4  24
ATOM     24  C   UNL     1      22.668   6.110  25.336  0.00  0.00    +0.121 A 
ATOM     27  C   UNL     1      21.778   7.136  25.057  0.00  0.00    +0.045 A 
ATOM     28  C   UNL     1      24.011   6.370  25.569  0.00  0.00    +0.045 A 
ATOM     32  C   UNL     1      22.240   8.452  25.009  0.00  0.00    +0.004 A 
ATOM     33  C   UNL     1      24.474   7.685  25.522  0.00  0.00    +0.004 A 
ATOM     34  C   UNL     1      23.588   8.725  25.242  0.00  0.00    +0.000 A 
ENDBRANCH   4  24
ENDBRANCH  22   4
ENDBRANCH  19  22
TORSDOF 6
ENDMDL
MODEL 6
REMARK VINA RESULT:      -6.2      2.259      7.259
REMARK  Name = 7051282
REMARK  6 active torsions:
REMARK  status: ('A' for Active; 'I' for Inactive)
REMARK    1  A    between atoms: S_1  and  N_9
REMARK    2  A    between atoms: S_1  and  C_23
REMARK    3  A    between atoms: O_4  and  C_22
REMARK    4  A    between atoms: O_4  and  C_24
REMARK    5  A    between atoms: N_9  and  C_20
REMARK    6  A    between atoms: C_19  and  C_22
REMARK                            x       y       z     vdW  Elec       q    Type
REMARK                         _______ _______ _______ _____ _____    ______ ____
ROOT
ATOM      2  O   UNL     1      -7.779 -12.775  12.077  0.00  0.00    -0.266 OA
ATOM      3  O   UNL     1      -3.210 -13.377  14.811  0.00  0.00    -0.272 OA
ATOM      7  N   UNL     1      -2.967 -11.774  13.147  0.00  0.00    -0.298 N 
ATOM      8  N   UNL     1      -5.839 -11.495  11.773  0.00  0.00    -0.310 N 
ATOM     10  C   UNL     1      -3.659 -12.461  10.848  0.00  0.00    +0.027 C 
ATOM     11  C   UNL     1      -3.764 -10.091  11.496  0.00  0.00    +0.054 C 
ATOM     12  C   UNL     1      -3.400 -11.042  10.357  0.00  0.00    +0.018 C 
ATOM     13  C   UNL     1      -2.799 -12.769  12.085  0.00  0.00    +0.113 C 
ATOM     14  C   UNL     1      -5.157 -12.625  11.130  0.00  0.00    +0.130 C 
ATOM     15  C   UNL     1      -2.860 -10.373  12.712  0.00  0.00    +0.117 C 
ATOM     16  C   UNL     1      -5.222 -10.243  11.891  0.00  0.00    +0.027 A 
ATOM     17  C   UNL     1      -5.903  -9.189  12.377  0.00  0.00    +0.024 A 
ATOM     18  C   UNL     1      -7.177 -11.706  12.170  0.00  0.00    +0.274 A 
ATOM     19  C   UNL     1      -3.122 -12.195  14.467  0.00  0.00    +0.253 C 
ATOM     20  C   UNL     1      -7.868 -10.513  12.720  0.00  0.00    +0.112 A 
ATOM     21  C   UNL     1      -7.268  -9.325  12.807  0.00  0.00    +0.031 A 
ENDROOT
BRANCH  20   9
ATOM      9  N   UNL     1      -9.201 -10.605  13.157  0.00  0.00    -0.211 N 
ATOM     35  H   UNL     1      -9.749  -9.759  12.949  0.00  0.00    +0.174 HD
BRANCH   9   1
ATOM      1  S   UNL     1      -9.464 -11.254  14.698  0.00  0.00    +0.072 S 
ATOM      5  O   UNL     1     -10.669 -12.062  14.689  0.00  0.00    -0.150 OA
ATOM      6  O   UNL     1      -8.222 -11.800  15.216  0.00  0.00    -0.150 OA
BRANCH   1  23
ATOM     23  C   UNL     1      -9.819  -9.786  15.617  0.00  0.00    +0.108 A 
ATOM     25  C   UNL     1      -9.831  -9.841  16.999  0.00  0.00    +0.029 A 
ATOM     26  C   UNL     1     -10.079  -8.611  14.935  0.00  0.00    +0.029 A 
ATOM     29  C   UNL     1     -10.113  -8.683  17.724  0.00  0.00    +0.002 A 
ATOM     30  C   UNL     1     -10.361  -7.452  15.660  0.00  0.00    +0.002 A 
ATOM     31  C   UNL     1     -10.378  -7.489  17.055  0.00  0.00    +0.000 A 
ENDBRANCH   1  23
ENDBRANCH   9   1
ENDBRANCH  20   9
BRANCH  19  22
ATOM     22  C   UNL     1      -3.194 -11.114  15.517  0.00  0.00    +0.324 C 
BRANCH  22   4
ATOM      4  O   UNL     1      -4.561 -10.874  15.753  0.00  0.00    -0.483 OA
BRANCH   4  24
ATOM     24  C   UNL     1      -4.998 -10.939  17.056  0.00  0.00    +0.121 A 
ATOM     27  C   UNL     1      -6.131 -10.233  17.431  0.00  0.00    +0.045 A 
ATOM     28  C   UNL     1      -4.296 -11.708  17.973  0.00  0.00    +0.045 A 
ATOM     32  C   UNL     1      -6.574 -10.297  18.753  0.00  0.00    +0.004 A 
ATOM     33  C   UNL     1      -4.738 -11.772  19.295  0.00  0.00    +0.004 A 
ATOM     34  C   UNL     1      -5.878 -11.068  19.684  0.00  0.00    +0.000 A 
ENDBRANCH   4  24
ENDBRANCH  22   4
ENDBRANCH  19  22
TORSDOF 6
ENDMDL
MODEL 7
REMARK VINA RESULT:      -6.2     25.013     27.775
REMARK  Name = 7051282
REMARK  6 active torsions:
REMARK  status: ('A' for Active; 'I' for Inactive)
REMARK    1  A    between atoms: S_1  and  N_9
REMARK    2  A    between atoms: S_1  and  C_23
REMARK    3  A    between atoms: O_4  and  C_22
REMARK    4  A    between atoms: O_4  and  C_24
REMARK    5  A    between atoms: N_9  and  C_20
REMARK    6  A    between atoms: C_19  and  C_22
REMARK                            x       y       z     vdW  Elec       q    Type
REMARK                         _______ _______ _______ _____ _____    ______ ____
ROOT
ATOM      2  O   UNL     1       9.921   6.864   1.532  0.00  0.00    -0.266 OA
ATOM      3  O   UNL     1      12.360   9.715   5.358  0.00  0.00    -0.272 OA
ATOM      7  N   UNL     1      10.741   8.323   6.275  0.00  0.00    -0.298 N 
ATOM      8  N   UNL     1       9.549   6.639   3.835  0.00  0.00    -0.310 N 
ATOM     10  C   UNL     1       8.463   8.465   5.260  0.00  0.00    +0.027 C 
ATOM     11  C   UNL     1       9.199   6.370   6.317  0.00  0.00    +0.054 C 
ATOM     12  C   UNL     1       8.008   7.311   6.145  0.00  0.00    +0.018 C 
ATOM     13  C   UNL     1       9.637   9.215   5.912  0.00  0.00    +0.113 C 
ATOM     14  C   UNL     1       8.827   7.917   3.875  0.00  0.00    +0.130 C 
ATOM     15  C   UNL     1      10.350   7.117   7.020  0.00  0.00    +0.117 C 
ATOM     16  C   UNL     1       9.674   5.837   4.977  0.00  0.00    +0.027 A 
ATOM     17  C   UNL     1      10.235   4.617   4.897  0.00  0.00    +0.024 A 
ATOM     18  C   UNL     1      10.015   6.214   2.573  0.00  0.00    +0.274 A 
ATOM     19  C   UNL     1      12.052   8.697   5.985  0.00  0.00    +0.253 C 
ATOM     20  C   UNL     1      10.647   4.870   2.552  0.00  0.00    +0.112 A 
ATOM     21  C   UNL     1      10.740   4.116   3.647  0.00  0.00    +0.031 A 
ENDROOT
BRANCH  20   9
ATOM      9  N   UNL     1      11.157   4.346   1.351  0.00  0.00    -0.211 N 
ATOM     35  H   UNL     1      10.595   3.566   0.985  0.00  0.00    +0.174 HD
BRANCH   9   1
ATOM      1  S   UNL     1      12.831   4.112   1.264  0.00  0.00    +0.072 S 
ATOM      5  O   UNL     1      13.517   5.309   1.712  0.00  0.00    -0.150 OA
ATOM      6  O   UNL     1      13.173   2.819   1.829  0.00  0.00    -0.150 OA
BRANCH   1  23
ATOM     23  C   UNL     1      13.056   3.999  -0.487  0.00  0.00    +0.108 A 
ATOM     25  C   UNL     1      12.103   3.345  -1.248  0.00  0.00    +0.029 A 
ATOM     26  C   UNL     1      14.179   4.567  -1.061  0.00  0.00    +0.029 A 
ATOM     29  C   UNL     1      12.281   3.255  -2.629  0.00  0.00    +0.002 A 
ATOM     30  C   UNL     1      14.356   4.477  -2.442  0.00  0.00    +0.002 A 
ATOM     31  C   UNL     1      13.407   3.821  -3.226  0.00  0.00    +0.000 A 
ENDBRANCH   1  23
ENDBRANCH   9   1
ENDBRANCH  20   9
BRANCH  19  22
ATOM     22  C   UNL     1      13.141   7.774   6.472  0.00  0.00    +0.324 C 
BRANCH  22   4
ATOM      4  O   UNL     1      13.795   7.283   5.326  0.00  0.00    -0.483 OA
BRANCH   4  24
ATOM     24  C   UNL     1      15.081   7.718   5.097  0.00  0.00    +0.121 A 
ATOM     27  C   UNL     1      15.624   7.601   3.827  0.00  0.00    +0.045 A 
ATOM     28  C   UNL     1      15.812   8.265   6.142  0.00  0.00    +0.045 A 
ATOM     32  C   UNL     1      16.928   8.040   3.594  0.00  0.00    +0.004 A 
ATOM     33  C   UNL     1      17.116   8.704   5.910  0.00  0.00    +0.004 A 
ATOM     34  C   UNL     1      17.672   8.592   4.636  0.00  0.00    +0.000 A 
ENDBRANCH   4  24
ENDBRANCH  22   4
ENDBRANCH  19  22
TORSDOF 6
ENDMDL
MODEL 8
REMARK VINA RESULT:      -6.0     21.607     25.037
REMARK  Name = 7051282
REMARK  6 active torsions:
REMARK  status: ('A' for Active; 'I' for Inactive)
REMARK    1  A    between atoms: S_1  and  N_9
REMARK    2  A    between atoms: S_1  and  C_23
REMARK    3  A    between atoms: O_4  and  C_22
REMARK    4  A    between atoms: O_4  and  C_24
REMARK    5  A    between atoms: N_9  and  C_20
REMARK    6  A    between atoms: C_19  and  C_22
REMARK                            x       y       z     vdW  Elec       q    Type
REMARK                         _______ _______ _______ _____ _____    ______ ____
ROOT
ATOM      2  O   UNL     1      -9.462 -12.320  39.845  0.00  0.00    -0.266 OA
ATOM      3  O   UNL     1      -9.065  -7.220  41.444  0.00  0.00    -0.272 OA
ATOM      7  N   UNL     1      -7.033  -7.982  40.612  0.00  0.00    -0.298 N 
ATOM      8  N   UNL     1      -7.565 -10.965  39.597  0.00  0.00    -0.310 N 
ATOM     10  C   UNL     1      -6.182 -10.123  41.576  0.00  0.00    +0.027 C 
ATOM     11  C   UNL     1      -5.552  -9.480  39.288  0.00  0.00    +0.054 C 
ATOM     12  C   UNL     1      -5.028 -10.100  40.582  0.00  0.00    +0.018 C 
ATOM     13  C   UNL     1      -6.692  -8.697  41.844  0.00  0.00    +0.113 C 
ATOM     14  C   UNL     1      -7.286 -11.039  41.036  0.00  0.00    +0.130 C 
ATOM     15  C   UNL     1      -6.010  -8.034  39.556  0.00  0.00    +0.117 C 
ATOM     16  C   UNL     1      -6.705 -10.289  38.722  0.00  0.00    +0.027 A 
ATOM     17  C   UNL     1      -6.912 -10.330  37.393  0.00  0.00    +0.024 A 
ATOM     18  C   UNL     1      -8.681 -11.693  39.130  0.00  0.00    +0.274 A 
ATOM     19  C   UNL     1      -8.218  -7.251  40.546  0.00  0.00    +0.253 C 
ATOM     20  C   UNL     1      -8.871 -11.682  37.657  0.00  0.00    +0.112 A 
ATOM     21  C   UNL     1      -8.030 -11.047  36.840  0.00  0.00    +0.031 A 
ENDROOT
BRANCH  20   9
ATOM      9  N   UNL     1      -9.954 -12.365  37.078  0.00  0.00    -0.211 N 
ATOM     35  H   UNL     1      -9.706 -12.831  36.194  0.00  0.00    +0.174 HD
BRANCH   9   1
ATOM      1  S   UNL     1     -11.447 -11.567  37.060  0.00  0.00    +0.072 S 
ATOM      5  O   UNL     1     -12.245 -11.996  38.194  0.00  0.00    -0.150 OA
ATOM      6  O   UNL     1     -11.242 -10.154  36.804  0.00  0.00    -0.150 OA
BRANCH   1  23
ATOM     23  C   UNL     1     -12.176 -12.267  35.608  0.00  0.00    +0.108 A 
ATOM     25  C   UNL     1     -11.644 -13.430  35.080  0.00  0.00    +0.029 A 
ATOM     26  C   UNL     1     -13.263 -11.638  35.029  0.00  0.00    +0.029 A 
ATOM     29  C   UNL     1     -12.217 -13.981  33.934  0.00  0.00    +0.002 A 
ATOM     30  C   UNL     1     -13.837 -12.189  33.883  0.00  0.00    +0.002 A 
ATOM     31  C   UNL     1     -13.313 -13.362  33.336  0.00  0.00    +0.000 A 
ENDBRANCH   1  23
ENDBRANCH   9   1
ENDBRANCH  20   9
BRANCH  19  22
ATOM     22  C   UNL     1      -8.457  -6.465  39.281  0.00  0.00    +0.324 C 
BRANCH  22   4
ATOM      4  O   UNL     1      -9.751  -5.921  39.384  0.00  0.00    -0.483 OA
BRANCH   4  24
ATOM     24  C   UNL     1      -9.852  -4.578  39.666  0.00  0.00    +0.121 A 
ATOM     27  C   UNL     1     -11.096  -4.032  39.949  0.00  0.00    +0.045 A 
ATOM     28  C   UNL     1      -8.709  -3.792  39.662  0.00  0.00    +0.045 A 
ATOM     32  C   UNL     1     -11.199  -2.670  40.234  0.00  0.00    +0.004 A 
ATOM     33  C   UNL     1      -8.811  -2.431  39.947  0.00  0.00    +0.004 A 
ATOM     34  C   UNL     1     -10.056  -1.870  40.233  0.00  0.00    +0.000 A 
ENDBRANCH   4  24
ENDBRANCH  22   4
ENDBRANCH  19  22
TORSDOF 6
ENDMDL
MODEL 9
REMARK VINA RESULT:      -6.0     20.605     23.844
REMARK  Name = 7051282
REMARK  6 active torsions:
REMARK  status: ('A' for Active; 'I' for Inactive)
REMARK    1  A    between atoms: S_1  and  N_9
REMARK    2  A    between atoms: S_1  and  C_23
REMARK    3  A    between atoms: O_4  and  C_22
REMARK    4  A    between atoms: O_4  and  C_24
REMARK    5  A    between atoms: N_9  and  C_20
REMARK    6  A    between atoms: C_19  and  C_22
REMARK                            x       y       z     vdW  Elec       q    Type
REMARK                         _______ _______ _______ _____ _____    ______ ____
ROOT
ATOM      2  O   UNL     1       9.280  -9.842  33.646  0.00  0.00    -0.266 OA
ATOM      3  O   UNL     1       8.286  -7.259  38.235  0.00  0.00    -0.272 OA
ATOM      7  N   UNL     1       8.221  -5.792  36.434  0.00  0.00    -0.298 N 
ATOM      8  N   UNL     1       8.690  -7.581  33.828  0.00  0.00    -0.310 N 
ATOM     10  C   UNL     1      10.202  -5.826  34.913  0.00  0.00    +0.027 C 
ATOM     11  C   UNL     1       8.002  -5.165  34.036  0.00  0.00    +0.054 C 
ATOM     12  C   UNL     1       9.495  -4.845  33.987  0.00  0.00    +0.018 C 
ATOM     13  C   UNL     1       9.679  -5.682  36.353  0.00  0.00    +0.113 C 
ATOM     14  C   UNL     1      10.013  -7.248  34.371  0.00  0.00    +0.130 C 
ATOM     15  C   UNL     1       7.478  -4.965  35.471  0.00  0.00    +0.117 C 
ATOM     16  C   UNL     1       7.732  -6.589  33.582  0.00  0.00    +0.027 A 
ATOM     17  C   UNL     1       6.570  -6.896  32.977  0.00  0.00    +0.024 A 
ATOM     18  C   UNL     1       8.473  -8.930  33.472  0.00  0.00    +0.274 A 
ATOM     19  C   UNL     1       7.644  -6.572  37.435  0.00  0.00    +0.253 C 
ATOM     20  C   UNL     1       7.164  -9.210  32.830  0.00  0.00    +0.112 A 
ATOM     21  C   UNL     1       6.274  -8.248  32.589  0.00  0.00    +0.031 A 
ENDROOT
BRANCH  20   9
ATOM      9  N   UNL     1       6.833 -10.520  32.440  0.00  0.00    -0.211 N 
ATOM     35  H   UNL     1       7.020 -11.215  33.177  0.00  0.00    +0.174 HD
BRANCH   9   1
ATOM      1  S   UNL     1       7.293 -11.000  30.884  0.00  0.00    +0.072 S 
ATOM      5  O   UNL     1       6.845 -10.016  29.916  0.00  0.00    -0.150 OA
ATOM      6  O   UNL     1       8.677 -11.436  30.896  0.00  0.00    -0.150 OA
BRANCH   1  23
ATOM     23  C   UNL     1       6.288 -12.441  30.675  0.00  0.00    +0.108 A 
ATOM     25  C   UNL     1       5.439 -12.825  31.697  0.00  0.00    +0.029 A 
ATOM     26  C   UNL     1       6.369 -13.154  29.493  0.00  0.00    +0.029 A 
ATOM     29  C   UNL     1       4.647 -13.962  31.533  0.00  0.00    +0.002 A 
ATOM     30  C   UNL     1       5.578 -14.291  29.328  0.00  0.00    +0.002 A 
ATOM     31  C   UNL     1       4.716 -14.695  30.349  0.00  0.00    +0.000 A 
ENDBRANCH   1  23
ENDBRANCH   9   1
ENDBRANCH  20   9
BRANCH  19  22
ATOM     22  C   UNL     1       6.138  -6.562  37.516  0.00  0.00    +0.324 C 
BRANCH  22   4
ATOM      4  O   UNL     1       5.752  -7.831  37.987  0.00  0.00    -0.483 OA
BRANCH   4  24
ATOM     24  C   UNL     1       4.791  -8.506  37.269  0.00  0.00    +0.121 A 
ATOM     27  C   UNL     1       5.061  -8.895  35.966  0.00  0.00    +0.045 A 
ATOM     28  C   UNL     1       3.568  -8.785  37.861  0.00  0.00    +0.045 A 
ATOM     32  C   UNL     1       4.087  -9.579  35.237  0.00  0.00    +0.004 A 
ATOM     33  C   UNL     1       2.594  -9.468  37.134  0.00  0.00    +0.004 A 
ATOM     34  C   UNL     1       2.854  -9.865  35.822  0.00  0.00    +0.000 A 
ENDBRANCH   4  24
ENDBRANCH  22   4
ENDBRANCH  19  22
TORSDOF 6
ENDMDL
MODEL 10
REMARK VINA RESULT:      -6.0     25.278     27.850
REMARK  Name = 7051282
REMARK  6 active torsions:
REMARK  status: ('A' for Active; 'I' for Inactive)
REMARK    1  A    between atoms: S_1  and  N_9
REMARK    2  A    between atoms: S_1  and  C_23
REMARK    3  A    between atoms: O_4  and  C_22
REMARK    4  A    between atoms: O_4  and  C_24
REMARK    5  A    between atoms: N_9  and  C_20
REMARK    6  A    between atoms: C_19  and  C_22
REMARK                            x       y       z     vdW  Elec       q    Type
REMARK                         _______ _______ _______ _____ _____    ______ ____
ROOT
ATOM      2  O   UNL     1      12.486   7.632   3.167  0.00  0.00    -0.266 OA
ATOM      3  O   UNL     1      12.385   6.441  -2.057  0.00  0.00    -0.272 OA
ATOM      7  N   UNL     1      13.063   4.602  -0.807  0.00  0.00    -0.298 N 
ATOM      8  N   UNL     1      12.897   5.514   2.252  0.00  0.00    -0.310 N 
ATOM     10  C   UNL     1      14.936   4.992   0.798  0.00  0.00    +0.027 C 
ATOM     11  C   UNL     1      13.284   3.230   1.257  0.00  0.00    +0.054 C 
ATOM     12  C   UNL     1      14.771   3.570   1.320  0.00  0.00    +0.018 C 
ATOM     13  C   UNL     1      14.432   5.097  -0.652  0.00  0.00    +0.113 C 
ATOM     14  C   UNL     1      14.199   5.955   1.736  0.00  0.00    +0.130 C 
ATOM     15  C   UNL     1      12.802   3.286  -0.206  0.00  0.00    +0.117 C 
ATOM     16  C   UNL     1      12.467   4.189   2.105  0.00  0.00    +0.027 A 
ATOM     17  C   UNL     1      11.326   3.774   2.684  0.00  0.00    +0.024 A 
ATOM     18  C   UNL     1      12.154   6.461   2.989  0.00  0.00    +0.274 A 
ATOM     19  C   UNL     1      12.147   5.336  -1.560  0.00  0.00    +0.253 C 
ATOM     20  C   UNL     1      10.893   5.950   3.583  0.00  0.00    +0.112 A 
ATOM     21  C   UNL     1      10.511   4.680   3.447  0.00  0.00    +0.031 A 
ENDROOT
BRANCH  20   9
ATOM      9  N   UNL     1      10.066   6.806   4.331  0.00  0.00    -0.211 N 
ATOM     35  H   UNL     1      10.101   7.781   4.005  0.00  0.00    +0.174 HD
BRANCH   9   1
ATOM      1  S   UNL     1      10.088   6.623   6.014  0.00  0.00    +0.072 S 
ATOM      5  O   UNL     1       8.938   5.845   6.436  0.00  0.00    -0.150 OA
ATOM      6  O   UNL     1      11.422   6.250   6.446  0.00  0.00    -0.150 OA
BRANCH   1  23
ATOM     23  C   UNL     1       9.813   8.292   6.529  0.00  0.00    +0.108 A 
ATOM     25  C   UNL     1      10.040   8.637   7.849  0.00  0.00    +0.029 A 
ATOM     26  C   UNL     1       9.375   9.221   5.601  0.00  0.00    +0.029 A 
ATOM     29  C   UNL     1       9.822   9.953   8.255  0.00  0.00    +0.002 A 
ATOM     30  C   UNL     1       9.157  10.537   6.007  0.00  0.00    +0.002 A 
ATOM     31  C   UNL     1       9.381  10.904   7.335  0.00  0.00    +0.000 A 
ENDBRANCH   1  23
ENDBRANCH   9   1
ENDBRANCH  20   9
BRANCH  19  22
ATOM     22  C   UNL     1      10.784   4.719  -1.755  0.00  0.00    +0.324 C 
BRANCH  22   4
ATOM      4  O   UNL     1      10.420   4.964  -3.092  0.00  0.00    -0.483 OA
BRANCH   4  24
ATOM     24  C   UNL     1       9.155   5.456  -3.323  0.00  0.00    +0.121 A 
ATOM     27  C   UNL     1       8.404   4.941  -4.368  0.00  0.00    +0.045 A 
ATOM     28  C   UNL     1       8.654   6.458  -2.506  0.00  0.00    +0.045 A 
ATOM     32  C   UNL     1       7.122   5.439  -4.603  0.00  0.00    +0.004 A 
ATOM     33  C   UNL     1       7.372   6.957  -2.740  0.00  0.00    +0.004 A 
ATOM     34  C   UNL     1       6.607   6.447  -3.788  0.00  0.00    +0.000 A 
ENDBRANCH   4  24
ENDBRANCH  22   4
ENDBRANCH  19  22
TORSDOF 6
ENDMDL
