MODEL 1
REMARK VINA RESULT:      -6.8      0.000      0.000
REMARK  Name = 51137797
REMARK  7 active torsions:
REMARK  status: ('A' for Active; 'I' for Inactive)
REMARK    1  A    between atoms: S_1  and  N_6
REMARK    2  A    between atoms: S_1  and  C_14
REMARK    3  A    between atoms: O_5  and  C_27
REMARK    4  A    between atoms: O_5  and  C_28
REMARK    5  A    between atoms: C_9  and  C_13
REMARK    6  A    between atoms: C_17  and  C_21
REMARK    7  A    between atoms: C_20  and  C_22
REMARK                            x       y       z     vdW  Elec       q    Type
REMARK                         _______ _______ _______ _____ _____    ______ ____
ROOT
ATOM      6  N   UNL     1      11.333   9.313  21.728  0.00  0.00    -0.176 NA
ATOM      9  C   UNL     1      11.531   7.555  20.079  0.00  0.00    +0.094 C 
ATOM     10  C   UNL     1      11.622   6.979  21.494  0.00  0.00    +0.031 C 
ATOM     11  C   UNL     1      10.981   8.971  20.318  0.00  0.00    +0.122 C 
ATOM     12  C   UNL     1      12.048   8.169  22.342  0.00  0.00    +0.110 C 
ENDROOT
BRANCH   9  13
ATOM      2  O   UNL     1      13.926   7.013  20.060  0.00  0.00    -0.420 OA
ATOM      7  N   UNL     1      13.136   7.713  18.087  0.00  0.00    -0.112 NA
ATOM      8  N   UNL     1      14.484   7.446  17.938  0.00  0.00    -0.107 NA
ATOM     13  C   UNL     1      12.854   7.447  19.341  0.00  0.00    +0.222 A 
ATOM     17  C   UNL     1      14.903   7.040  19.113  0.00  0.00    +0.248 A 
BRANCH  17  21
ATOM     21  C   UNL     1      16.207   6.628  19.545  0.00  0.00    +0.039 A 
ATOM     23  C   UNL     1      16.660   6.972  20.819  0.00  0.00    +0.017 A 
ATOM     24  C   UNL     1      17.021   5.883  18.693  0.00  0.00    +0.017 A 
ATOM     25  C   UNL     1      17.928   6.573  21.240  0.00  0.00    +0.046 A 
ATOM     26  C   UNL     1      18.289   5.482  19.114  0.00  0.00    +0.046 A 
ATOM     27  C   UNL     1      18.743   5.827  20.386  0.00  0.00    +0.120 A 
BRANCH  27   5
ATOM      5  O   UNL     1      19.979   5.433  20.798  0.00  0.00    -0.495 OA
ATOM     28  C   UNL     1      20.808   6.425  21.404  0.00  0.00    +0.277 C 
ENDBRANCH  27   5
ENDBRANCH  17  21
ENDBRANCH   9  13
BRANCH   6   1
ATOM      1  S   UNL     1      11.861  10.883  22.084  0.00  0.00    +0.061 S 
ATOM      3  O   UNL     1      11.747  11.123  23.511  0.00  0.00    -0.153 OA
ATOM      4  O   UNL     1      11.280  11.816  21.135  0.00  0.00    -0.153 OA
BRANCH   1  14
ATOM     14  C   UNL     1      13.581  10.739  21.705  0.00  0.00    +0.105 A 
ATOM     15  C   UNL     1      14.517  10.657  22.737  0.00  0.00    +0.029 A 
ATOM     16  C   UNL     1      14.004  10.709  20.377  0.00  0.00    +0.029 A 
ATOM     18  C   UNL     1      15.875  10.545  22.439  0.00  0.00    +0.005 A 
ATOM     19  C   UNL     1      15.362  10.598  20.079  0.00  0.00    +0.005 A 
ATOM     20  C   UNL     1      16.297  10.515  21.110  0.00  0.00    -0.050 A 
ATOM     22  C   UNL     1      17.750  10.397  20.791  0.00  0.00    +0.044 C 
ENDBRANCH   1  14
ENDBRANCH   6   1
TORSDOF 5
ENDMDL
MODEL 2
REMARK VINA RESULT:      -6.2      2.874      6.478
REMARK  Name = 51137797
REMARK  7 active torsions:
REMARK  status: ('A' for Active; 'I' for Inactive)
REMARK    1  A    between atoms: S_1  and  N_6
REMARK    2  A    between atoms: S_1  and  C_14
REMARK    3  A    between atoms: O_5  and  C_27
REMARK    4  A    between atoms: O_5  and  C_28
REMARK    5  A    between atoms: C_9  and  C_13
REMARK    6  A    between atoms: C_17  and  C_21
REMARK    7  A    between atoms: C_20  and  C_22
REMARK                            x       y       z     vdW  Elec       q    Type
REMARK                         _______ _______ _______ _____ _____    ______ ____
ROOT
ATOM      6  N   UNL     1      13.978   6.966  20.067  0.00  0.00    -0.176 NA
ATOM      9  C   UNL     1      15.985   8.317  20.077  0.00  0.00    +0.094 C 
ATOM     10  C   UNL     1      15.960   7.378  21.285  0.00  0.00    +0.031 C 
ATOM     11  C   UNL     1      14.888   7.735  19.168  0.00  0.00    +0.122 C 
ATOM     12  C   UNL     1      14.485   7.046  21.457  0.00  0.00    +0.110 C 
ENDROOT
BRANCH   9  13
ATOM      2  O   UNL     1      15.277  10.009  21.710  0.00  0.00    -0.420 OA
ATOM      7  N   UNL     1      16.166  10.862  19.842  0.00  0.00    -0.112 NA
ATOM      8  N   UNL     1      15.813  11.914  20.667  0.00  0.00    -0.107 NA
ATOM     13  C   UNL     1      15.834   9.771  20.490  0.00  0.00    +0.222 A 
ATOM     17  C   UNL     1      15.299  11.369  21.744  0.00  0.00    +0.248 A 
BRANCH  17  21
ATOM     21  C   UNL     1      14.768  11.975  22.930  0.00  0.00    +0.039 A 
ATOM     23  C   UNL     1      14.523  11.196  24.062  0.00  0.00    +0.017 A 
ATOM     24  C   UNL     1      14.496  13.343  22.954  0.00  0.00    +0.017 A 
ATOM     25  C   UNL     1      14.006  11.784  25.215  0.00  0.00    +0.046 A 
ATOM     26  C   UNL     1      13.979  13.932  24.108  0.00  0.00    +0.046 A 
ATOM     27  C   UNL     1      13.733  13.153  25.238  0.00  0.00    +0.120 A 
BRANCH  27   5
ATOM      5  O   UNL     1      13.232  13.728  26.365  0.00  0.00    -0.495 OA
ATOM     28  C   UNL     1      12.164  14.661  26.198  0.00  0.00    +0.277 C 
ENDBRANCH  27   5
ENDBRANCH  17  21
ENDBRANCH   9  13
BRANCH   6   1
ATOM      1  S   UNL     1      12.306   7.051  19.807  0.00  0.00    +0.061 S 
ATOM      3  O   UNL     1      11.655   5.932  20.465  0.00  0.00    -0.153 OA
ATOM      4  O   UNL     1      12.046   7.331  18.406  0.00  0.00    -0.153 OA
BRANCH   1  14
ATOM     14  C   UNL     1      11.911   8.508  20.726  0.00  0.00    +0.105 A 
ATOM     15  C   UNL     1      12.185   9.766  20.188  0.00  0.00    +0.029 A 
ATOM     16  C   UNL     1      11.328   8.402  21.988  0.00  0.00    +0.029 A 
ATOM     18  C   UNL     1      11.876  10.917  20.912  0.00  0.00    +0.005 A 
ATOM     19  C   UNL     1      11.020   9.552  22.713  0.00  0.00    +0.005 A 
ATOM     20  C   UNL     1      11.292  10.810  22.175  0.00  0.00    -0.050 A 
ATOM     22  C   UNL     1      10.962  12.040  22.951  0.00  0.00    +0.044 C 
ENDBRANCH   1  14
ENDBRANCH   6   1
TORSDOF 5
ENDMDL
MODEL 3
REMARK VINA RESULT:      -6.2      3.394      5.758
REMARK  Name = 51137797
REMARK  7 active torsions:
REMARK  status: ('A' for Active; 'I' for Inactive)
REMARK    1  A    between atoms: S_1  and  N_6
REMARK    2  A    between atoms: S_1  and  C_14
REMARK    3  A    between atoms: O_5  and  C_27
REMARK    4  A    between atoms: O_5  and  C_28
REMARK    5  A    between atoms: C_9  and  C_13
REMARK    6  A    between atoms: C_17  and  C_21
REMARK    7  A    between atoms: C_20  and  C_22
REMARK                            x       y       z     vdW  Elec       q    Type
REMARK                         _______ _______ _______ _____ _____    ______ ____
ROOT
ATOM      6  N   UNL     1      11.954   8.497  21.869  0.00  0.00    -0.176 NA
ATOM      9  C   UNL     1      12.798  10.750  22.111  0.00  0.00    +0.094 C 
ATOM     10  C   UNL     1      11.340  10.669  22.568  0.00  0.00    +0.031 C 
ATOM     11  C   UNL     1      13.218   9.272  22.036  0.00  0.00    +0.122 C 
ATOM     12  C   UNL     1      10.806   9.434  21.858  0.00  0.00    +0.110 C 
ENDROOT
BRANCH   9  13
ATOM      2  O   UNL     1      13.456  10.933  19.752  0.00  0.00    -0.420 OA
ATOM      7  N   UNL     1      12.649  12.830  20.622  0.00  0.00    -0.112 NA
ATOM      8  N   UNL     1      12.978  13.071  19.301  0.00  0.00    -0.107 NA
ATOM     13  C   UNL     1      12.945  11.571  20.842  0.00  0.00    +0.222 A 
ATOM     17  C   UNL     1      13.445  11.938  18.834  0.00  0.00    +0.248 A 
BRANCH  17  21
ATOM     21  C   UNL     1      13.935  11.599  17.530  0.00  0.00    +0.039 A 
ATOM     23  C   UNL     1      13.954  10.267  17.115  0.00  0.00    +0.017 A 
ATOM     24  C   UNL     1      14.392  12.602  16.674  0.00  0.00    +0.017 A 
ATOM     25  C   UNL     1      14.431   9.938  15.847  0.00  0.00    +0.046 A 
ATOM     26  C   UNL     1      14.869  12.273  15.405  0.00  0.00    +0.046 A 
ATOM     27  C   UNL     1      14.889  10.942  14.991  0.00  0.00    +0.120 A 
BRANCH  27   5
ATOM      5  O   UNL     1      15.351  10.621  13.752  0.00  0.00    -0.495 OA
ATOM     28  C   UNL     1      15.565  11.698  12.840  0.00  0.00    +0.277 C 
ENDBRANCH  27   5
ENDBRANCH  17  21
ENDBRANCH   9  13
BRANCH   6   1
ATOM      1  S   UNL     1      11.935   7.179  20.805  0.00  0.00    +0.061 S 
ATOM      3  O   UNL     1      11.324   7.576  19.549  0.00  0.00    -0.153 OA
ATOM      4  O   UNL     1      11.468   5.996  21.506  0.00  0.00    -0.153 OA
BRANCH   1  14
ATOM     14  C   UNL     1      13.666   6.977  20.511  0.00  0.00    +0.105 A 
ATOM     15  C   UNL     1      14.179   7.143  19.224  0.00  0.00    +0.029 A 
ATOM     16  C   UNL     1      14.520   6.650  21.564  0.00  0.00    +0.029 A 
ATOM     18  C   UNL     1      15.545   6.982  18.991  0.00  0.00    +0.005 A 
ATOM     19  C   UNL     1      15.885   6.488  21.332  0.00  0.00    +0.005 A 
ATOM     20  C   UNL     1      16.398   6.654  20.046  0.00  0.00    -0.050 A 
ATOM     22  C   UNL     1      17.858   6.481  19.797  0.00  0.00    +0.044 C 
ENDBRANCH   1  14
ENDBRANCH   6   1
TORSDOF 5
ENDMDL
MODEL 4
REMARK VINA RESULT:      -6.1     26.877     29.096
REMARK  Name = 51137797
REMARK  7 active torsions:
REMARK  status: ('A' for Active; 'I' for Inactive)
REMARK    1  A    between atoms: S_1  and  N_6
REMARK    2  A    between atoms: S_1  and  C_14
REMARK    3  A    between atoms: O_5  and  C_27
REMARK    4  A    between atoms: O_5  and  C_28
REMARK    5  A    between atoms: C_9  and  C_13
REMARK    6  A    between atoms: C_17  and  C_21
REMARK    7  A    between atoms: C_20  and  C_22
REMARK                            x       y       z     vdW  Elec       q    Type
REMARK                         _______ _______ _______ _____ _____    ______ ____
ROOT
ATOM      6  N   UNL     1      -4.244 -11.008  11.528  0.00  0.00    -0.176 NA
ATOM      9  C   UNL     1      -2.154 -11.041  12.744  0.00  0.00    +0.094 C 
ATOM     10  C   UNL     1      -2.535 -12.451  12.288  0.00  0.00    +0.031 C 
ATOM     11  C   UNL     1      -3.087 -10.146  11.909  0.00  0.00    +0.122 C 
ATOM     12  C   UNL     1      -4.039 -12.369  12.077  0.00  0.00    +0.110 C 
ENDROOT
BRANCH   9  13
ATOM      2  O   UNL     1      -3.473 -10.941  14.812  0.00  0.00    -0.420 OA
ATOM      7  N   UNL     1      -1.268 -10.731  15.128  0.00  0.00    -0.112 NA
ATOM      8  N   UNL     1      -1.886 -10.657  16.362  0.00  0.00    -0.107 NA
ATOM     13  C   UNL     1      -2.232 -10.896  14.253  0.00  0.00    +0.222 A 
ATOM     17  C   UNL     1      -3.171 -10.784  16.130  0.00  0.00    +0.248 A 
BRANCH  17  21
ATOM     21  C   UNL     1      -4.285 -10.784  17.032  0.00  0.00    +0.039 A 
ATOM     23  C   UNL     1      -4.199 -11.463  18.248  0.00  0.00    +0.017 A 
ATOM     24  C   UNL     1      -5.455 -10.103  16.696  0.00  0.00    +0.017 A 
ATOM     25  C   UNL     1      -5.282 -11.463  19.125  0.00  0.00    +0.046 A 
ATOM     26  C   UNL     1      -6.539 -10.102  17.574  0.00  0.00    +0.046 A 
ATOM     27  C   UNL     1      -6.453 -10.782  18.788  0.00  0.00    +0.120 A 
BRANCH  27   5
ATOM      5  O   UNL     1      -7.509 -10.779  19.646  0.00  0.00    -0.495 OA
ATOM     28  C   UNL     1      -8.465 -11.830  19.504  0.00  0.00    +0.277 C 
ENDBRANCH  27   5
ENDBRANCH  17  21
ENDBRANCH   9  13
BRANCH   6   1
ATOM      1  S   UNL     1      -5.804 -10.347  11.560  0.00  0.00    +0.061 S 
ATOM      3  O   UNL     1      -5.775  -9.065  12.240  0.00  0.00    -0.153 OA
ATOM      4  O   UNL     1      -6.755 -11.369  11.960  0.00  0.00    -0.153 OA
BRANCH   1  14
ATOM     14  C   UNL     1      -6.055 -10.029   9.839  0.00  0.00    +0.105 A 
ATOM     15  C   UNL     1      -7.179  -9.318   9.419  0.00  0.00    +0.029 A 
ATOM     16  C   UNL     1      -5.131 -10.491   8.902  0.00  0.00    +0.029 A 
ATOM     18  C   UNL     1      -7.378  -9.068   8.062  0.00  0.00    +0.005 A 
ATOM     19  C   UNL     1      -5.331 -10.243   7.545  0.00  0.00    +0.005 A 
ATOM     20  C   UNL     1      -6.454  -9.531   7.124  0.00  0.00    -0.050 A 
ATOM     22  C   UNL     1      -6.668  -9.264   5.672  0.00  0.00    +0.044 C 
ENDBRANCH   1  14
ENDBRANCH   6   1
TORSDOF 5
ENDMDL
MODEL 5
REMARK VINA RESULT:      -6.1     27.716     30.524
REMARK  Name = 51137797
REMARK  7 active torsions:
REMARK  status: ('A' for Active; 'I' for Inactive)
REMARK    1  A    between atoms: S_1  and  N_6
REMARK    2  A    between atoms: S_1  and  C_14
REMARK    3  A    between atoms: O_5  and  C_27
REMARK    4  A    between atoms: O_5  and  C_28
REMARK    5  A    between atoms: C_9  and  C_13
REMARK    6  A    between atoms: C_17  and  C_21
REMARK    7  A    between atoms: C_20  and  C_22
REMARK                            x       y       z     vdW  Elec       q    Type
REMARK                         _______ _______ _______ _____ _____    ______ ____
ROOT
ATOM      6  N   UNL     1      -4.367 -11.667  17.088  0.00  0.00    -0.176 NA
ATOM      9  C   UNL     1      -5.579 -10.670  18.928  0.00  0.00    +0.094 C 
ATOM     10  C   UNL     1      -4.992 -12.022  19.339  0.00  0.00    +0.031 C 
ATOM     11  C   UNL     1      -4.830 -10.353  17.622  0.00  0.00    +0.122 C 
ATOM     12  C   UNL     1      -4.785 -12.744  18.016  0.00  0.00    +0.110 C 
ENDROOT
BRANCH   9  13
ATOM      2  O   UNL     1      -7.706  -9.716  18.158  0.00  0.00    -0.420 OA
ATOM      7  N   UNL     1      -7.932 -11.579  19.377  0.00  0.00    -0.112 NA
ATOM      8  N   UNL     1      -9.195 -11.150  19.012  0.00  0.00    -0.107 NA
ATOM     13  C   UNL     1      -7.095 -10.712  18.858  0.00  0.00    +0.222 A 
ATOM     17  C   UNL     1      -9.015 -10.062  18.303  0.00  0.00    +0.248 A 
BRANCH  17  21
ATOM     21  C   UNL     1      -9.965  -9.197  17.668  0.00  0.00    +0.039 A 
ATOM     23  C   UNL     1      -9.531  -8.046  17.010  0.00  0.00    +0.017 A 
ATOM     24  C   UNL     1     -11.325  -9.506  17.706  0.00  0.00    +0.017 A 
ATOM     25  C   UNL     1     -10.455  -7.204  16.393  0.00  0.00    +0.046 A 
ATOM     26  C   UNL     1     -12.250  -8.664  17.088  0.00  0.00    +0.046 A 
ATOM     27  C   UNL     1     -11.815  -7.513  16.431  0.00  0.00    +0.120 A 
BRANCH  27   5
ATOM      5  O   UNL     1     -12.717  -6.694  15.826  0.00  0.00    -0.495 OA
ATOM     28  C   UNL     1     -12.217  -5.799  14.833  0.00  0.00    +0.277 C 
ENDBRANCH  27   5
ENDBRANCH  17  21
ENDBRANCH   9  13
BRANCH   6   1
ATOM      1  S   UNL     1      -4.457 -11.952  15.420  0.00  0.00    +0.061 S 
ATOM      3  O   UNL     1      -4.317 -13.374  15.162  0.00  0.00    -0.153 OA
ATOM      4  O   UNL     1      -3.624 -10.993  14.718  0.00  0.00    -0.153 OA
BRANCH   1  14
ATOM     14  C   UNL     1      -6.144 -11.522  15.111  0.00  0.00    +0.105 A 
ATOM     15  C   UNL     1      -7.165 -12.399  15.475  0.00  0.00    +0.029 A 
ATOM     16  C   UNL     1      -6.453 -10.306  14.502  0.00  0.00    +0.029 A 
ATOM     18  C   UNL     1      -8.496 -12.061  15.230  0.00  0.00    +0.005 A 
ATOM     19  C   UNL     1      -7.783  -9.969  14.255  0.00  0.00    +0.005 A 
ATOM     20  C   UNL     1      -8.805 -10.845  14.620  0.00  0.00    -0.050 A 
ATOM     22  C   UNL     1     -10.228 -10.484  14.356  0.00  0.00    +0.044 C 
ENDBRANCH   1  14
ENDBRANCH   6   1
TORSDOF 5
ENDMDL
MODEL 6
REMARK VINA RESULT:      -6.0      3.824      5.308
REMARK  Name = 51137797
REMARK  7 active torsions:
REMARK  status: ('A' for Active; 'I' for Inactive)
REMARK    1  A    between atoms: S_1  and  N_6
REMARK    2  A    between atoms: S_1  and  C_14
REMARK    3  A    between atoms: O_5  and  C_27
REMARK    4  A    between atoms: O_5  and  C_28
REMARK    5  A    between atoms: C_9  and  C_13
REMARK    6  A    between atoms: C_17  and  C_21
REMARK    7  A    between atoms: C_20  and  C_22
REMARK                            x       y       z     vdW  Elec       q    Type
REMARK                         _______ _______ _______ _____ _____    ______ ____
ROOT
ATOM      6  N   UNL     1      12.531   9.415  21.963  0.00  0.00    -0.176 NA
ATOM      9  C   UNL     1      11.464   8.142  20.204  0.00  0.00    +0.094 C 
ATOM     10  C   UNL     1      12.217   7.215  21.160  0.00  0.00    +0.031 C 
ATOM     11  C   UNL     1      11.403   9.466  20.986  0.00  0.00    +0.122 C 
ATOM     12  C   UNL     1      13.246   8.126  21.813  0.00  0.00    +0.110 C 
ENDROOT
BRANCH   9  13
ATOM      2  O   UNL     1      12.908   9.256  18.560  0.00  0.00    -0.420 OA
ATOM      7  N   UNL     1      12.028   7.329  17.841  0.00  0.00    -0.112 NA
ATOM      8  N   UNL     1      12.812   7.846  16.826  0.00  0.00    -0.107 NA
ATOM     13  C   UNL     1      12.113   8.184  18.832  0.00  0.00    +0.222 A 
ATOM     17  C   UNL     1      13.305   8.969  17.290  0.00  0.00    +0.248 A 
BRANCH  17  21
ATOM     21  C   UNL     1      14.182   9.924  16.677  0.00  0.00    +0.039 A 
ATOM     23  C   UNL     1      14.676  10.996  17.422  0.00  0.00    +0.017 A 
ATOM     24  C   UNL     1      14.542   9.781  15.337  0.00  0.00    +0.017 A 
ATOM     25  C   UNL     1      15.528  11.925  16.826  0.00  0.00    +0.046 A 
ATOM     26  C   UNL     1      15.395  10.710  14.741  0.00  0.00    +0.046 A 
ATOM     27  C   UNL     1      15.888  11.782  15.485  0.00  0.00    +0.120 A 
BRANCH  27   5
ATOM      5  O   UNL     1      16.722  12.686  14.904  0.00  0.00    -0.495 OA
ATOM     28  C   UNL     1      17.824  12.168  14.158  0.00  0.00    +0.277 C 
ENDBRANCH  27   5
ENDBRANCH  17  21
ENDBRANCH   9  13
BRANCH   6   1
ATOM      1  S   UNL     1      13.439  10.818  22.240  0.00  0.00    +0.061 S 
ATOM      3  O   UNL     1      14.140  11.193  21.026  0.00  0.00    -0.153 OA
ATOM      4  O   UNL     1      14.160  10.688  23.494  0.00  0.00    -0.153 OA
BRANCH   1  14
ATOM     14  C   UNL     1      12.144  11.996  22.490  0.00  0.00    +0.105 A 
ATOM     15  C   UNL     1      11.816  12.896  21.476  0.00  0.00    +0.029 A 
ATOM     16  C   UNL     1      11.452  12.027  23.700  0.00  0.00    +0.029 A 
ATOM     18  C   UNL     1      10.796  13.826  21.672  0.00  0.00    +0.005 A 
ATOM     19  C   UNL     1      10.433  12.958  23.898  0.00  0.00    +0.005 A 
ATOM     20  C   UNL     1      10.104  13.857  22.884  0.00  0.00    -0.050 A 
ATOM     22  C   UNL     1       9.014  14.853  23.094  0.00  0.00    +0.044 C 
ENDBRANCH   1  14
ENDBRANCH   6   1
TORSDOF 5
ENDMDL
MODEL 7
REMARK VINA RESULT:      -6.0     27.233     29.956
REMARK  Name = 51137797
REMARK  7 active torsions:
REMARK  status: ('A' for Active; 'I' for Inactive)
REMARK    1  A    between atoms: S_1  and  N_6
REMARK    2  A    between atoms: S_1  and  C_14
REMARK    3  A    between atoms: O_5  and  C_27
REMARK    4  A    between atoms: O_5  and  C_28
REMARK    5  A    between atoms: C_9  and  C_13
REMARK    6  A    between atoms: C_17  and  C_21
REMARK    7  A    between atoms: C_20  and  C_22
REMARK                            x       y       z     vdW  Elec       q    Type
REMARK                         _______ _______ _______ _____ _____    ______ ____
ROOT
ATOM      6  N   UNL     1      -4.473 -12.293  16.952  0.00  0.00    -0.176 NA
ATOM      9  C   UNL     1      -5.234 -10.714  18.619  0.00  0.00    +0.094 C 
ATOM     10  C   UNL     1      -4.585 -11.929  19.284  0.00  0.00    +0.031 C 
ATOM     11  C   UNL     1      -4.792 -10.848  17.151  0.00  0.00    +0.122 C 
ATOM     12  C   UNL     1      -4.686 -13.019  18.227  0.00  0.00    +0.110 C 
ENDROOT
BRANCH   9  13
ATOM      2  O   UNL     1      -7.470  -9.871  18.056  0.00  0.00    -0.420 OA
ATOM      7  N   UNL     1      -7.436 -11.264  19.807  0.00  0.00    -0.112 NA
ATOM      8  N   UNL     1      -8.745 -10.867  19.601  0.00  0.00    -0.107 NA
ATOM     13  C   UNL     1      -6.728 -10.658  18.883  0.00  0.00    +0.222 A 
ATOM     17  C   UNL     1      -8.717 -10.057  18.570  0.00  0.00    +0.248 A 
BRANCH  17  21
ATOM     21  C   UNL     1      -9.777  -9.349  17.913  0.00  0.00    +0.039 A 
ATOM     23  C   UNL     1      -9.481  -8.307  17.034  0.00  0.00    +0.017 A 
ATOM     24  C   UNL     1     -11.105  -9.703  18.151  0.00  0.00    +0.017 A 
ATOM     25  C   UNL     1     -10.511  -7.618  16.396  0.00  0.00    +0.046 A 
ATOM     26  C   UNL     1     -12.136  -9.015  17.512  0.00  0.00    +0.046 A 
ATOM     27  C   UNL     1     -11.840  -7.972  16.635  0.00  0.00    +0.120 A 
BRANCH  27   5
ATOM      5  O   UNL     1     -12.846  -7.303  16.009  0.00  0.00    -0.495 OA
ATOM     28  C   UNL     1     -12.507  -6.074  15.366  0.00  0.00    +0.277 C 
ENDBRANCH  27   5
ENDBRANCH  17  21
ENDBRANCH   9  13
BRANCH   6   1
ATOM      1  S   UNL     1      -4.936 -13.043  15.505  0.00  0.00    +0.061 S 
ATOM      3  O   UNL     1      -6.345 -12.795  15.258  0.00  0.00    -0.153 OA
ATOM      4  O   UNL     1      -4.413 -14.397  15.471  0.00  0.00    -0.153 OA
BRANCH   1  14
ATOM     14  C   UNL     1      -4.016 -12.086  14.338  0.00  0.00    +0.105 A 
ATOM     15  C   UNL     1      -4.683 -11.247  13.444  0.00  0.00    +0.029 A 
ATOM     16  C   UNL     1      -2.625 -12.170  14.308  0.00  0.00    +0.029 A 
ATOM     18  C   UNL     1      -3.959 -10.493  12.522  0.00  0.00    +0.005 A 
ATOM     19  C   UNL     1      -1.900 -11.418  13.384  0.00  0.00    +0.005 A 
ATOM     20  C   UNL     1      -2.566 -10.579  12.492  0.00  0.00    -0.050 A 
ATOM     22  C   UNL     1      -1.791  -9.773  11.505  0.00  0.00    +0.044 C 
ENDBRANCH   1  14
ENDBRANCH   6   1
TORSDOF 5
ENDMDL
MODEL 8
REMARK VINA RESULT:      -5.9     26.470     29.121
REMARK  Name = 51137797
REMARK  7 active torsions:
REMARK  status: ('A' for Active; 'I' for Inactive)
REMARK    1  A    between atoms: S_1  and  N_6
REMARK    2  A    between atoms: S_1  and  C_14
REMARK    3  A    between atoms: O_5  and  C_27
REMARK    4  A    between atoms: O_5  and  C_28
REMARK    5  A    between atoms: C_9  and  C_13
REMARK    6  A    between atoms: C_17  and  C_21
REMARK    7  A    between atoms: C_20  and  C_22
REMARK                            x       y       z     vdW  Elec       q    Type
REMARK                         _______ _______ _______ _____ _____    ______ ____
ROOT
ATOM      6  N   UNL     1      -3.533 -11.652  15.894  0.00  0.00    -0.176 NA
ATOM      9  C   UNL     1      -2.009 -12.052  14.059  0.00  0.00    +0.094 C 
ATOM     10  C   UNL     1      -1.295 -11.335  15.207  0.00  0.00    +0.031 C 
ATOM     11  C   UNL     1      -3.310 -12.543  14.717  0.00  0.00    +0.122 C 
ATOM     12  C   UNL     1      -2.426 -10.671  15.979  0.00  0.00    +0.110 C 
ENDROOT
BRANCH   9  13
ATOM      2  O   UNL     1      -3.072 -11.532  11.908  0.00  0.00    -0.420 OA
ATOM      7  N   UNL     1      -1.510 -10.057  12.531  0.00  0.00    -0.112 NA
ATOM      8  N   UNL     1      -2.022  -9.648  11.313  0.00  0.00    -0.107 NA
ATOM     13  C   UNL     1      -2.151 -11.159  12.838  0.00  0.00    +0.222 A 
ATOM     17  C   UNL     1      -2.930 -10.538  10.989  0.00  0.00    +0.248 A 
BRANCH  17  21
ATOM     21  C   UNL     1      -3.780 -10.623   9.837  0.00  0.00    +0.039 A 
ATOM     23  C   UNL     1      -4.301  -9.461   9.267  0.00  0.00    +0.017 A 
ATOM     24  C   UNL     1      -4.084 -11.868   9.286  0.00  0.00    +0.017 A 
ATOM     25  C   UNL     1      -5.128  -9.544   8.147  0.00  0.00    +0.046 A 
ATOM     26  C   UNL     1      -4.911 -11.951   8.165  0.00  0.00    +0.046 A 
ATOM     27  C   UNL     1      -5.433 -10.790   7.596  0.00  0.00    +0.120 A 
BRANCH  27   5
ATOM      5  O   UNL     1      -6.237 -10.870   6.501  0.00  0.00    -0.495 OA
ATOM     28  C   UNL     1      -6.353  -9.700   5.693  0.00  0.00    +0.277 C 
ENDBRANCH  27   5
ENDBRANCH  17  21
ENDBRANCH   9  13
BRANCH   6   1
ATOM      1  S   UNL     1      -5.107 -11.130  16.240  0.00  0.00    +0.061 S 
ATOM      3  O   UNL     1      -5.068  -9.770  16.748  0.00  0.00    -0.153 OA
ATOM      4  O   UNL     1      -5.812 -12.167  16.972  0.00  0.00    -0.153 OA
BRANCH   1  14
ATOM     14  C   UNL     1      -5.792 -11.068  14.611  0.00  0.00    +0.105 A 
ATOM     15  C   UNL     1      -5.631  -9.922  13.831  0.00  0.00    +0.029 A 
ATOM     16  C   UNL     1      -6.493 -12.162  14.107  0.00  0.00    +0.029 A 
ATOM     18  C   UNL     1      -6.172  -9.872  12.547  0.00  0.00    +0.005 A 
ATOM     19  C   UNL     1      -7.036 -12.112  12.823  0.00  0.00    +0.005 A 
ATOM     20  C   UNL     1      -6.875 -10.967  12.043  0.00  0.00    -0.050 A 
ATOM     22  C   UNL     1      -7.454 -10.913  10.669  0.00  0.00    +0.044 C 
ENDBRANCH   1  14
ENDBRANCH   6   1
TORSDOF 5
ENDMDL
MODEL 9
REMARK VINA RESULT:      -5.9     27.171     29.600
REMARK  Name = 51137797
REMARK  7 active torsions:
REMARK  status: ('A' for Active; 'I' for Inactive)
REMARK    1  A    between atoms: S_1  and  N_6
REMARK    2  A    between atoms: S_1  and  C_14
REMARK    3  A    between atoms: O_5  and  C_27
REMARK    4  A    between atoms: O_5  and  C_28
REMARK    5  A    between atoms: C_9  and  C_13
REMARK    6  A    between atoms: C_17  and  C_21
REMARK    7  A    between atoms: C_20  and  C_22
REMARK                            x       y       z     vdW  Elec       q    Type
REMARK                         _______ _______ _______ _____ _____    ______ ____
ROOT
ATOM      6  N   UNL     1      -4.081 -11.724  11.462  0.00  0.00    -0.176 NA
ATOM      9  C   UNL     1      -2.845 -10.292  12.969  0.00  0.00    +0.094 C 
ATOM     10  C   UNL     1      -1.900 -11.242  12.230  0.00  0.00    +0.031 C 
ATOM     11  C   UNL     1      -4.148 -10.406  12.160  0.00  0.00    +0.122 C 
ATOM     12  C   UNL     1      -2.802 -12.390  11.801  0.00  0.00    +0.110 C 
ENDROOT
BRANCH   9  13
ATOM      2  O   UNL     1      -4.140 -10.469  15.047  0.00  0.00    -0.420 OA
ATOM      7  N   UNL     1      -1.986 -11.031  15.267  0.00  0.00    -0.112 NA
ATOM      8  N   UNL     1      -2.593 -11.173  16.501  0.00  0.00    -0.107 NA
ATOM     13  C   UNL     1      -2.925 -10.618  14.450  0.00  0.00    +0.222 A 
ATOM     17  C   UNL     1      -3.848 -10.835  16.325  0.00  0.00    +0.248 A 
BRANCH  17  21
ATOM     21  C   UNL     1      -4.939 -10.792  17.254  0.00  0.00    +0.039 A 
ATOM     23  C   UNL     1      -4.787 -11.324  18.535  0.00  0.00    +0.017 A 
ATOM     24  C   UNL     1      -6.154 -10.217  16.878  0.00  0.00    +0.017 A 
ATOM     25  C   UNL     1      -5.848 -11.283  19.438  0.00  0.00    +0.046 A 
ATOM     26  C   UNL     1      -7.215 -10.175  17.782  0.00  0.00    +0.046 A 
ATOM     27  C   UNL     1      -7.063 -10.708  19.062  0.00  0.00    +0.120 A 
BRANCH  27   5
ATOM      5  O   UNL     1      -8.098 -10.664  19.944  0.00  0.00    -0.495 OA
ATOM     28  C   UNL     1      -9.142 -11.622  19.769  0.00  0.00    +0.277 C 
ENDBRANCH  27   5
ENDBRANCH  17  21
ENDBRANCH   9  13
BRANCH   6   1
ATOM      1  S   UNL     1      -5.484 -12.669  11.359  0.00  0.00    +0.061 S 
ATOM      3  O   UNL     1      -5.199 -13.884  10.617  0.00  0.00    -0.153 OA
ATOM      4  O   UNL     1      -6.608 -11.829  10.986  0.00  0.00    -0.153 OA
BRANCH   1  14
ATOM     14  C   UNL     1      -5.695 -13.120  13.055  0.00  0.00    +0.105 A 
ATOM     15  C   UNL     1      -4.699 -13.843  13.712  0.00  0.00    +0.029 A 
ATOM     16  C   UNL     1      -6.856 -12.756  13.735  0.00  0.00    +0.029 A 
ATOM     18  C   UNL     1      -4.865 -14.201  15.050  0.00  0.00    +0.005 A 
ATOM     19  C   UNL     1      -7.023 -13.115  15.072  0.00  0.00    +0.005 A 
ATOM     20  C   UNL     1      -6.028 -13.836  15.730  0.00  0.00    -0.050 A 
ATOM     22  C   UNL     1      -6.206 -14.220  17.160  0.00  0.00    +0.044 C 
ENDBRANCH   1  14
ENDBRANCH   6   1
TORSDOF 5
ENDMDL
MODEL 10
REMARK VINA RESULT:      -5.8     16.506     18.414
REMARK  Name = 51137797
REMARK  7 active torsions:
REMARK  status: ('A' for Active; 'I' for Inactive)
REMARK    1  A    between atoms: S_1  and  N_6
REMARK    2  A    between atoms: S_1  and  C_14
REMARK    3  A    between atoms: O_5  and  C_27
REMARK    4  A    between atoms: O_5  and  C_28
REMARK    5  A    between atoms: C_9  and  C_13
REMARK    6  A    between atoms: C_17  and  C_21
REMARK    7  A    between atoms: C_20  and  C_22
REMARK                            x       y       z     vdW  Elec       q    Type
REMARK                         _______ _______ _______ _____ _____    ______ ____
ROOT
ATOM      6  N   UNL     1      11.339   7.819   5.134  0.00  0.00    -0.176 NA
ATOM      9  C   UNL     1      13.690   7.630   4.602  0.00  0.00    +0.094 C 
ATOM     10  C   UNL     1      13.207   9.067   4.403  0.00  0.00    +0.031 C 
ATOM     11  C   UNL     1      12.549   6.992   5.414  0.00  0.00    +0.122 C 
ATOM     12  C   UNL     1      11.704   8.922   4.214  0.00  0.00    +0.110 C 
ENDROOT
BRANCH   9  13
ATOM      2  O   UNL     1      13.048   6.303   2.638  0.00  0.00    -0.420 OA
ATOM      7  N   UNL     1      15.195   6.935   2.648  0.00  0.00    -0.112 NA
ATOM      8  N   UNL     1      14.970   6.201   1.498  0.00  0.00    -0.107 NA
ATOM     13  C   UNL     1      14.047   6.968   3.283  0.00  0.00    +0.222 A 
ATOM     17  C   UNL     1      13.706   5.854   1.534  0.00  0.00    +0.248 A 
BRANCH  17  21
ATOM     21  C   UNL     1      12.924   5.089   0.607  0.00  0.00    +0.039 A 
ATOM     23  C   UNL     1      11.586   5.418   0.384  0.00  0.00    +0.017 A 
ATOM     24  C   UNL     1      13.500   4.016  -0.073  0.00  0.00    +0.017 A 
ATOM     25  C   UNL     1      10.825   4.674  -0.516  0.00  0.00    +0.046 A 
ATOM     26  C   UNL     1      12.739   3.272  -0.974  0.00  0.00    +0.046 A 
ATOM     27  C   UNL     1      11.402   3.600  -1.196  0.00  0.00    +0.120 A 
BRANCH  27   5
ATOM      5  O   UNL     1      10.661   2.876  -2.078  0.00  0.00    -0.495 OA
ATOM     28  C   UNL     1      10.132   3.571  -3.207  0.00  0.00    +0.277 C 
ENDBRANCH  27   5
ENDBRANCH  17  21
ENDBRANCH   9  13
BRANCH   6   1
ATOM      1  S   UNL     1       9.848   7.043   4.918  0.00  0.00    +0.061 S 
ATOM      3  O   UNL     1       9.996   5.965   3.957  0.00  0.00    -0.153 OA
ATOM      4  O   UNL     1       8.804   8.038   4.750  0.00  0.00    -0.153 OA
BRANCH   1  14
ATOM     14  C   UNL     1       9.633   6.308   6.511  0.00  0.00    +0.105 A 
ATOM     15  C   UNL     1       9.918   4.955   6.699  0.00  0.00    +0.029 A 
ATOM     16  C   UNL     1       9.177   7.079   7.580  0.00  0.00    +0.029 A 
ATOM     18  C   UNL     1       9.748   4.374   7.955  0.00  0.00    +0.005 A 
ATOM     19  C   UNL     1       9.005   6.498   8.836  0.00  0.00    +0.005 A 
ATOM     20  C   UNL     1       9.291   5.146   9.024  0.00  0.00    -0.050 A 
ATOM     22  C   UNL     1       9.107   4.525  10.367  0.00  0.00    +0.044 C 
ENDBRANCH   1  14
ENDBRANCH   6   1
TORSDOF 5
ENDMDL
