MODEL 1
REMARK VINA RESULT:      -6.7      0.000      0.000
REMARK  Name = 51136698
REMARK  8 active torsions:
REMARK  status: ('A' for Active; 'I' for Inactive)
REMARK    1  A    between atoms: O_2  and  C_15
REMARK    2  A    between atoms: C_6  and  C_11
REMARK    3  A    between atoms: C_7  and  C_12
REMARK    4  A    between atoms: C_11  and  C_13
REMARK    5  A    between atoms: C_12  and  C_15
REMARK    6  A    between atoms: C_14  and  C_17
REMARK    7  A    between atoms: C_17  and  C_21
REMARK    8  A    between atoms: C_21  and  C_25
REMARK                            x       y       z     vdW  Elec       q    Type
REMARK                         _______ _______ _______ _____ _____    ______ ____
ROOT
ATOM      1  O   UNL     1      -8.513 -10.340  13.481  0.00  0.00    -0.276 OA
ATOM      4  N   UNL     1      -7.254 -10.021  15.406  0.00  0.00    -0.301 N 
ATOM      6  C   UNL     1      -5.489 -10.730  17.004  0.00  0.00    +0.016 C 
ATOM      7  C   UNL     1      -6.605 -11.184  17.979  0.00  0.00    +0.006 C 
ATOM      8  C   UNL     1      -7.896 -11.554  17.228  0.00  0.00    +0.023 C 
ATOM      9  C   UNL     1      -6.019  -9.613  16.087  0.00  0.00    +0.112 C 
ATOM     10  C   UNL     1      -8.340 -10.424  16.300  0.00  0.00    +0.108 C 
ATOM     14  C   UNL     1      -7.456 -10.018  14.027  0.00  0.00    +0.216 C 
ENDROOT
BRANCH   6  11
ATOM     11  C   UNL     1      -4.891 -11.868  16.168  0.00  0.00    +0.061 C 
BRANCH  11  13
ATOM      5  N   UNL     1      -2.675 -10.970  16.390  0.00  0.00    -0.287 NA
ATOM     13  C   UNL     1      -3.569 -11.433  15.581  0.00  0.00    +0.044 C 
ATOM     16  C   UNL     1      -3.365 -11.550  14.115  0.00  0.00    -0.001 A 
ATOM     18  C   UNL     1      -2.319 -10.801  13.562  0.00  0.00    -0.037 A 
ATOM     19  C   UNL     1      -1.370 -10.605  15.829  0.00  0.00    +0.146 C 
ATOM     20  C   UNL     1      -1.497  -9.932  14.468  0.00  0.00    +0.059 C 
ATOM     22  C   UNL     1      -4.171 -12.349  13.301  0.00  0.00    +0.010 A 
ATOM     23  C   UNL     1      -2.099 -10.836  12.182  0.00  0.00    +0.004 A 
ATOM     24  C   UNL     1      -3.933 -12.390  11.927  0.00  0.00    +0.001 A 
ATOM     26  C   UNL     1      -2.903 -11.633  11.368  0.00  0.00    +0.000 A 
ENDBRANCH  11  13
ENDBRANCH   6  11
BRANCH   7  12
ATOM     12  C   UNL     1      -6.173 -12.326  18.898  0.00  0.00    +0.124 C 
BRANCH  12  15
ATOM      3  O   UNL     1      -3.953 -12.053  19.866  0.00  0.00    -0.251 OA
ATOM     15  C   UNL     1      -5.160 -11.870  19.912  0.00  0.00    +0.305 C 
BRANCH  15   2
ATOM      2  O   UNL     1      -5.785 -11.207  20.918  0.00  0.00    -0.481 OA
ATOM     32  H   UNL     1      -6.738 -11.437  20.971  0.00  0.00    +0.295 HD
ENDBRANCH  15   2
ENDBRANCH  12  15
ENDBRANCH   7  12
BRANCH  14  17
ATOM     17  C   UNL     1      -6.287  -9.590  13.174  0.00  0.00    +0.100 C 
BRANCH  17  21
ATOM     21  C   UNL     1      -6.774  -8.936  11.889  0.00  0.00    +0.044 C 
BRANCH  21  25
ATOM     25  C   UNL     1      -5.950  -9.310  10.681  0.00  0.00    -0.047 A 
ATOM     27  C   UNL     1      -4.821  -8.561  10.347  0.00  0.00    +0.003 A 
ATOM     28  C   UNL     1      -6.318 -10.404   9.898  0.00  0.00    +0.003 A 
ATOM     29  C   UNL     1      -4.061  -8.907   9.230  0.00  0.00    +0.000 A 
ATOM     30  C   UNL     1      -5.558 -10.749   8.782  0.00  0.00    +0.000 A 
ATOM     31  C   UNL     1      -4.429 -10.001   8.447  0.00  0.00    +0.000 A 
ENDBRANCH  21  25
ENDBRANCH  17  21
ENDBRANCH  14  17
TORSDOF 8
ENDMDL
MODEL 2
REMARK VINA RESULT:      -6.6     23.468     26.306
REMARK  Name = 51136698
REMARK  8 active torsions:
REMARK  status: ('A' for Active; 'I' for Inactive)
REMARK    1  A    between atoms: O_2  and  C_15
REMARK    2  A    between atoms: C_6  and  C_11
REMARK    3  A    between atoms: C_7  and  C_12
REMARK    4  A    between atoms: C_11  and  C_13
REMARK    5  A    between atoms: C_12  and  C_15
REMARK    6  A    between atoms: C_14  and  C_17
REMARK    7  A    between atoms: C_17  and  C_21
REMARK    8  A    between atoms: C_21  and  C_25
REMARK                            x       y       z     vdW  Elec       q    Type
REMARK                         _______ _______ _______ _____ _____    ______ ____
ROOT
ATOM      1  O   UNL     1      16.469  -4.659  30.494  0.00  0.00    -0.276 OA
ATOM      4  N   UNL     1      17.157  -6.179  28.878  0.00  0.00    -0.301 N 
ATOM      6  C   UNL     1      17.240  -6.980  26.528  0.00  0.00    +0.016 C 
ATOM      7  C   UNL     1      16.195  -8.063  26.899  0.00  0.00    +0.006 C 
ATOM      8  C   UNL     1      15.322  -7.623  28.087  0.00  0.00    +0.023 C 
ATOM      9  C   UNL     1      18.044  -6.579  27.778  0.00  0.00    +0.112 C 
ATOM     10  C   UNL     1      16.180  -7.192  29.275  0.00  0.00    +0.108 C 
ATOM     14  C   UNL     1      17.209  -4.961  29.555  0.00  0.00    +0.216 C 
ENDROOT
BRANCH   6  11
ATOM     11  C   UNL     1      16.640  -5.738  25.860  0.00  0.00    +0.061 C 
BRANCH  11  13
ATOM      5  N   UNL     1      17.940  -6.497  23.989  0.00  0.00    -0.287 NA
ATOM     13  C   UNL     1      17.293  -5.511  24.517  0.00  0.00    +0.044 C 
ATOM     16  C   UNL     1      17.169  -4.177  23.877  0.00  0.00    -0.001 A 
ATOM     18  C   UNL     1      18.081  -3.879  22.857  0.00  0.00    -0.037 A 
ATOM     19  C   UNL     1      18.522  -6.296  22.657  0.00  0.00    +0.146 C 
ATOM     20  C   UNL     1      19.116  -4.903  22.494  0.00  0.00    +0.059 C 
ATOM     22  C   UNL     1      16.208  -3.240  24.265  0.00  0.00    +0.010 A 
ATOM     23  C   UNL     1      18.044  -2.625  22.242  0.00  0.00    +0.004 A 
ATOM     24  C   UNL     1      16.168  -1.996  23.633  0.00  0.00    +0.001 A 
ATOM     26  C   UNL     1      17.085  -1.688  22.627  0.00  0.00    +0.000 A 
ENDBRANCH  11  13
ENDBRANCH   6  11
BRANCH   7  12
ATOM     12  C   UNL     1      15.322  -8.485  25.718  0.00  0.00    +0.124 C 
BRANCH  12  15
ATOM      3  O   UNL     1      15.669 -10.812  26.355  0.00  0.00    -0.251 OA
ATOM     15  C   UNL     1      15.052  -9.964  25.727  0.00  0.00    +0.305 C 
BRANCH  15   2
ATOM      2  O   UNL     1      13.998 -10.243  24.919  0.00  0.00    -0.481 OA
ATOM     32  H   UNL     1      13.371  -9.489  24.863  0.00  0.00    +0.295 HD
ENDBRANCH  15   2
ENDBRANCH  12  15
ENDBRANCH   7  12
BRANCH  14  17
ATOM     17  C   UNL     1      18.243  -3.970  29.084  0.00  0.00    +0.100 C 
BRANCH  17  21
ATOM     21  C   UNL     1      17.670  -3.075  27.995  0.00  0.00    +0.044 C 
BRANCH  21  25
ATOM     25  C   UNL     1      18.676  -2.712  26.930  0.00  0.00    -0.047 A 
ATOM     27  C   UNL     1      19.661  -3.628  26.559  0.00  0.00    +0.003 A 
ATOM     28  C   UNL     1      18.621  -1.460  26.317  0.00  0.00    +0.003 A 
ATOM     29  C   UNL     1      20.590  -3.291  25.575  0.00  0.00    +0.000 A 
ATOM     30  C   UNL     1      19.551  -1.124  25.334  0.00  0.00    +0.000 A 
ATOM     31  C   UNL     1      20.536  -2.040  24.963  0.00  0.00    +0.000 A 
ENDBRANCH  21  25
ENDBRANCH  17  21
ENDBRANCH  14  17
TORSDOF 8
ENDMDL
MODEL 3
REMARK VINA RESULT:      -6.2      2.113      4.554
REMARK  Name = 51136698
REMARK  8 active torsions:
REMARK  status: ('A' for Active; 'I' for Inactive)
REMARK    1  A    between atoms: O_2  and  C_15
REMARK    2  A    between atoms: C_6  and  C_11
REMARK    3  A    between atoms: C_7  and  C_12
REMARK    4  A    between atoms: C_11  and  C_13
REMARK    5  A    between atoms: C_12  and  C_15
REMARK    6  A    between atoms: C_14  and  C_17
REMARK    7  A    between atoms: C_17  and  C_21
REMARK    8  A    between atoms: C_21  and  C_25
REMARK                            x       y       z     vdW  Elec       q    Type
REMARK                         _______ _______ _______ _____ _____    ______ ____
ROOT
ATOM      1  O   UNL     1      -1.082  -9.546  14.451  0.00  0.00    -0.276 OA
ATOM      4  N   UNL     1      -2.739 -11.085  14.985  0.00  0.00    -0.301 N 
ATOM      6  C   UNL     1      -5.103 -11.846  14.956  0.00  0.00    +0.016 C 
ATOM      7  C   UNL     1      -5.222 -11.416  16.440  0.00  0.00    +0.006 C 
ATOM      8  C   UNL     1      -4.227 -10.295  16.785  0.00  0.00    +0.023 C 
ATOM      9  C   UNL     1      -3.639 -12.188  14.626  0.00  0.00    +0.112 C 
ATOM     10  C   UNL     1      -2.802 -10.677  16.388  0.00  0.00    +0.108 C 
ATOM     14  C   UNL     1      -1.847 -10.454  14.118  0.00  0.00    +0.216 C 
ENDROOT
BRANCH   6  11
ATOM     11  C   UNL     1      -5.646 -10.812  13.962  0.00  0.00    +0.061 C 
BRANCH  11  13
ATOM      5  N   UNL     1      -7.108 -12.624  13.373  0.00  0.00    -0.287 NA
ATOM     13  C   UNL     1      -6.645 -11.465  13.037  0.00  0.00    +0.044 C 
ATOM     16  C   UNL     1      -7.038 -10.756  11.793  0.00  0.00    -0.001 A 
ATOM     18  C   UNL     1      -7.641 -11.525  10.791  0.00  0.00    -0.037 A 
ATOM     19  C   UNL     1      -8.124 -13.230  12.505  0.00  0.00    +0.146 C 
ATOM     20  C   UNL     1      -7.834 -12.994  11.028  0.00  0.00    +0.059 C 
ATOM     22  C   UNL     1      -6.815  -9.390  11.600  0.00  0.00    +0.010 A 
ATOM     23  C   UNL     1      -7.999 -10.926   9.580  0.00  0.00    +0.004 A 
ATOM     24  C   UNL     1      -7.190  -8.797  10.394  0.00  0.00    +0.001 A 
ATOM     26  C   UNL     1      -7.777  -9.562   9.386  0.00  0.00    +0.000 A 
ENDBRANCH  11  13
ENDBRANCH   6  11
BRANCH   7  12
ATOM     12  C   UNL     1      -6.642 -11.016  16.839  0.00  0.00    +0.124 C 
BRANCH  12  15
ATOM      3  O   UNL     1      -6.446 -11.624  19.191  0.00  0.00    -0.251 OA
ATOM     15  C   UNL     1      -6.769 -10.825  18.325  0.00  0.00    +0.305 C 
BRANCH  15   2
ATOM      2  O   UNL     1      -7.306  -9.606  18.585  0.00  0.00    -0.481 OA
ATOM     32  H   UNL     1      -8.071  -9.411  18.002  0.00  0.00    +0.295 HD
ENDBRANCH  15   2
ENDBRANCH  12  15
ENDBRANCH   7  12
BRANCH  14  17
ATOM     17  C   UNL     1      -1.844 -10.932  12.687  0.00  0.00    +0.100 C 
BRANCH  17  21
ATOM     21  C   UNL     1      -2.747 -10.057  11.829  0.00  0.00    +0.044 C 
BRANCH  21  25
ATOM     25  C   UNL     1      -3.426 -10.814  10.715  0.00  0.00    -0.047 A 
ATOM     27  C   UNL     1      -3.830 -10.143   9.560  0.00  0.00    +0.003 A 
ATOM     28  C   UNL     1      -3.651 -12.185  10.839  0.00  0.00    +0.003 A 
ATOM     29  C   UNL     1      -4.458 -10.844   8.530  0.00  0.00    +0.000 A 
ATOM     30  C   UNL     1      -4.279 -12.885   9.810  0.00  0.00    +0.000 A 
ATOM     31  C   UNL     1      -4.683 -12.214   8.655  0.00  0.00    +0.000 A 
ENDBRANCH  21  25
ENDBRANCH  17  21
ENDBRANCH  14  17
TORSDOF 8
ENDMDL
MODEL 4
REMARK VINA RESULT:      -6.1      1.685      2.026
REMARK  Name = 51136698
REMARK  8 active torsions:
REMARK  status: ('A' for Active; 'I' for Inactive)
REMARK    1  A    between atoms: O_2  and  C_15
REMARK    2  A    between atoms: C_6  and  C_11
REMARK    3  A    between atoms: C_7  and  C_12
REMARK    4  A    between atoms: C_11  and  C_13
REMARK    5  A    between atoms: C_12  and  C_15
REMARK    6  A    between atoms: C_14  and  C_17
REMARK    7  A    between atoms: C_17  and  C_21
REMARK    8  A    between atoms: C_21  and  C_25
REMARK                            x       y       z     vdW  Elec       q    Type
REMARK                         _______ _______ _______ _____ _____    ______ ____
ROOT
ATOM      1  O   UNL     1      -9.907 -11.729  13.313  0.00  0.00    -0.276 OA
ATOM      4  N   UNL     1      -8.530 -10.821  14.948  0.00  0.00    -0.301 N 
ATOM      6  C   UNL     1      -6.525 -10.913  16.413  0.00  0.00    +0.016 C 
ATOM      7  C   UNL     1      -7.454 -11.278  17.599  0.00  0.00    +0.006 C 
ATOM      8  C   UNL     1      -8.739 -11.974  17.117  0.00  0.00    +0.023 C 
ATOM      9  C   UNL     1      -7.312 -10.111  15.360  0.00  0.00    +0.112 C 
ATOM     10  C   UNL     1      -9.444 -11.152  16.041  0.00  0.00    +0.108 C 
ATOM     14  C   UNL     1      -8.865 -11.156  13.637  0.00  0.00    +0.216 C 
ENDROOT
BRANCH   6  11
ATOM     11  C   UNL     1      -5.842 -12.121  15.762  0.00  0.00    +0.061 C 
BRANCH  11  13
ATOM      5  N   UNL     1      -3.855 -10.957  16.442  0.00  0.00    -0.287 NA
ATOM     13  C   UNL     1      -4.349 -11.899  15.708  0.00  0.00    +0.044 C 
ATOM     16  C   UNL     1      -3.529 -12.761  14.820  0.00  0.00    -0.001 A 
ATOM     18  C   UNL     1      -2.248 -12.297  14.497  0.00  0.00    -0.037 A 
ATOM     19  C   UNL     1      -2.398 -10.782  16.436  0.00  0.00    +0.146 C 
ATOM     20  C   UNL     1      -1.801 -10.975  15.048  0.00  0.00    +0.059 C 
ATOM     22  C   UNL     1      -3.994 -13.973  14.304  0.00  0.00    +0.010 A 
ATOM     23  C   UNL     1      -1.441 -13.041  13.633  0.00  0.00    +0.004 A 
ATOM     24  C   UNL     1      -3.175 -14.717  13.454  0.00  0.00    +0.001 A 
ATOM     26  C   UNL     1      -1.903 -14.252  13.117  0.00  0.00    +0.000 A 
ENDBRANCH  11  13
ENDBRANCH   6  11
BRANCH   7  12
ATOM     12  C   UNL     1      -6.759 -12.116  18.671  0.00  0.00    +0.124 C 
BRANCH  12  15
ATOM      3  O   UNL     1      -4.686 -11.483  19.787  0.00  0.00    -0.251 OA
ATOM     15  C   UNL     1      -5.865 -11.276  19.540  0.00  0.00    +0.305 C 
BRANCH  15   2
ATOM      2  O   UNL     1      -6.564 -10.221  20.031  0.00  0.00    -0.481 OA
ATOM     32  H   UNL     1      -6.627  -9.488  19.381  0.00  0.00    +0.295 HD
ENDBRANCH  15   2
ENDBRANCH  12  15
ENDBRANCH   7  12
BRANCH  14  17
ATOM     17  C   UNL     1      -7.868 -10.782  12.568  0.00  0.00    +0.100 C 
BRANCH  17  21
ATOM     21  C   UNL     1      -7.023 -11.987  12.180  0.00  0.00    +0.044 C 
BRANCH  21  25
ATOM     25  C   UNL     1      -5.607 -11.626  11.802  0.00  0.00    -0.047 A 
ATOM     27  C   UNL     1      -5.032 -10.452  12.291  0.00  0.00    +0.003 A 
ATOM     28  C   UNL     1      -4.873 -12.466  10.965  0.00  0.00    +0.003 A 
ATOM     29  C   UNL     1      -3.724 -10.119  11.941  0.00  0.00    +0.000 A 
ATOM     30  C   UNL     1      -3.565 -12.132  10.615  0.00  0.00    +0.000 A 
ATOM     31  C   UNL     1      -2.990 -10.958  11.104  0.00  0.00    +0.000 A 
ENDBRANCH  21  25
ENDBRANCH  17  21
ENDBRANCH  14  17
TORSDOF 8
ENDMDL
MODEL 5
REMARK VINA RESULT:      -5.8     19.916     21.644
REMARK  Name = 51136698
REMARK  8 active torsions:
REMARK  status: ('A' for Active; 'I' for Inactive)
REMARK    1  A    between atoms: O_2  and  C_15
REMARK    2  A    between atoms: C_6  and  C_11
REMARK    3  A    between atoms: C_7  and  C_12
REMARK    4  A    between atoms: C_11  and  C_13
REMARK    5  A    between atoms: C_12  and  C_15
REMARK    6  A    between atoms: C_14  and  C_17
REMARK    7  A    between atoms: C_17  and  C_21
REMARK    8  A    between atoms: C_21  and  C_25
REMARK                            x       y       z     vdW  Elec       q    Type
REMARK                         _______ _______ _______ _____ _____    ______ ____
ROOT
ATOM      1  O   UNL     1     -17.386   6.340  17.130  0.00  0.00    -0.276 OA
ATOM      4  N   UNL     1     -16.962   7.270  19.216  0.00  0.00    -0.301 N 
ATOM      6  C   UNL     1     -15.428   7.822  21.091  0.00  0.00    +0.016 C 
ATOM      7  C   UNL     1     -16.047   6.651  21.895  0.00  0.00    +0.006 C 
ATOM      8  C   UNL     1     -16.618   5.566  20.965  0.00  0.00    +0.023 C 
ATOM      9  C   UNL     1     -16.448   8.351  20.067  0.00  0.00    +0.112 C 
ATOM     10  C   UNL     1     -17.584   6.163  19.944  0.00  0.00    +0.108 C 
ATOM     14  C   UNL     1     -16.923   7.249  17.823  0.00  0.00    +0.216 C 
ENDROOT
BRANCH   6  11
ATOM     11  C   UNL     1     -14.108   7.469  20.394  0.00  0.00    +0.061 C 
BRANCH  11  13
ATOM      5  N   UNL     1     -13.306   9.443  21.503  0.00  0.00    -0.287 NA
ATOM     13  C   UNL     1     -13.138   8.620  20.521  0.00  0.00    +0.044 C 
ATOM     16  C   UNL     1     -12.052   8.754  19.517  0.00  0.00    -0.001 A 
ATOM     18  C   UNL     1     -11.427  10.004  19.427  0.00  0.00    -0.037 A 
ATOM     19  C   UNL     1     -12.328  10.525  21.662  0.00  0.00    +0.146 C 
ATOM     20  C   UNL     1     -11.897  11.111  20.323  0.00  0.00    +0.059 C 
ATOM     22  C   UNL     1     -11.663   7.705  18.681  0.00  0.00    +0.010 A 
ATOM     23  C   UNL     1     -10.424  10.207  18.475  0.00  0.00    +0.004 A 
ATOM     24  C   UNL     1     -10.649   7.913  17.744  0.00  0.00    +0.001 A 
ATOM     26  C   UNL     1     -10.034   9.161  17.639  0.00  0.00    +0.000 A 
ENDBRANCH  11  13
ENDBRANCH   6  11
BRANCH   7  12
ATOM     12  C   UNL     1     -15.080   6.037  22.906  0.00  0.00    +0.124 C 
BRANCH  12  15
ATOM      3  O   UNL     1     -15.666   3.680  23.109  0.00  0.00    -0.251 OA
ATOM     15  C   UNL     1     -14.922   4.557  22.696  0.00  0.00    +0.305 C 
BRANCH  15   2
ATOM      2  O   UNL     1     -13.806   4.315  21.962  0.00  0.00    -0.481 OA
ATOM     32  H   UNL     1     -13.122   3.839  22.481  0.00  0.00    +0.295 HD
ENDBRANCH  15   2
ENDBRANCH  12  15
ENDBRANCH   7  12
BRANCH  14  17
ATOM     17  C   UNL     1     -16.264   8.426  17.148  0.00  0.00    +0.100 C 
BRANCH  17  21
ATOM     21  C   UNL     1     -14.834   8.084  16.754  0.00  0.00    +0.044 C 
BRANCH  21  25
ATOM     25  C   UNL     1     -14.013   9.294  16.380  0.00  0.00    -0.047 A 
ATOM     27  C   UNL     1     -14.186  10.496  17.069  0.00  0.00    +0.003 A 
ATOM     28  C   UNL     1     -13.080   9.212  15.346  0.00  0.00    +0.003 A 
ATOM     29  C   UNL     1     -13.428  11.613  16.722  0.00  0.00    +0.000 A 
ATOM     30  C   UNL     1     -12.322  10.329  15.000  0.00  0.00    +0.000 A 
ATOM     31  C   UNL     1     -12.496  11.531  15.688  0.00  0.00    +0.000 A 
ENDBRANCH  21  25
ENDBRANCH  17  21
ENDBRANCH  14  17
TORSDOF 8
ENDMDL
MODEL 6
REMARK VINA RESULT:      -5.8      1.897      4.471
REMARK  Name = 51136698
REMARK  8 active torsions:
REMARK  status: ('A' for Active; 'I' for Inactive)
REMARK    1  A    between atoms: O_2  and  C_15
REMARK    2  A    between atoms: C_6  and  C_11
REMARK    3  A    between atoms: C_7  and  C_12
REMARK    4  A    between atoms: C_11  and  C_13
REMARK    5  A    between atoms: C_12  and  C_15
REMARK    6  A    between atoms: C_14  and  C_17
REMARK    7  A    between atoms: C_17  and  C_21
REMARK    8  A    between atoms: C_21  and  C_25
REMARK                            x       y       z     vdW  Elec       q    Type
REMARK                         _______ _______ _______ _____ _____    ______ ____
ROOT
ATOM      1  O   UNL     1      -2.018 -10.709  14.475  0.00  0.00    -0.276 OA
ATOM      4  N   UNL     1      -3.902 -11.505  15.578  0.00  0.00    -0.301 N 
ATOM      6  C   UNL     1      -6.215 -11.216  16.436  0.00  0.00    +0.016 C 
ATOM      7  C   UNL     1      -5.627 -11.045  17.860  0.00  0.00    +0.006 C 
ATOM      8  C   UNL     1      -4.186 -10.509  17.815  0.00  0.00    +0.023 C 
ATOM      9  C   UNL     1      -5.261 -12.061  15.573  0.00  0.00    +0.112 C 
ATOM     10  C   UNL     1      -3.305 -11.362  16.906  0.00  0.00    +0.108 C 
ATOM     14  C   UNL     1      -3.170 -11.150  14.446  0.00  0.00    +0.216 C 
ENDROOT
BRANCH   6  11
ATOM     11  C   UNL     1      -6.538  -9.892  15.732  0.00  0.00    +0.061 C 
BRANCH  11  13
ATOM      5  N   UNL     1      -8.914 -10.236  15.699  0.00  0.00    -0.287 NA
ATOM     13  C   UNL     1      -7.853 -10.008  14.998  0.00  0.00    +0.044 C 
ATOM     16  C   UNL     1      -7.862  -9.863  13.521  0.00  0.00    -0.001 A 
ATOM     18  C   UNL     1      -8.989 -10.349  12.846  0.00  0.00    -0.037 A 
ATOM     19  C   UNL     1     -10.199 -10.288  14.993  0.00  0.00    +0.146 C 
ATOM     20  C   UNL     1     -10.087 -10.988  13.645  0.00  0.00    +0.059 C 
ATOM     22  C   UNL     1      -6.806  -9.286  12.812  0.00  0.00    +0.010 A 
ATOM     23  C   UNL     1      -9.043 -10.279  11.452  0.00  0.00    +0.004 A 
ATOM     24  C   UNL     1      -6.875  -9.206  11.420  0.00  0.00    +0.001 A 
ATOM     26  C   UNL     1      -7.989  -9.704  10.741  0.00  0.00    +0.000 A 
ENDBRANCH  11  13
ENDBRANCH   6  11
BRANCH   7  12
ATOM     12  C   UNL     1      -6.496 -10.177  18.769  0.00  0.00    +0.124 C 
BRANCH  12  15
ATOM      3  O   UNL     1      -7.731 -11.919  19.945  0.00  0.00    -0.251 OA
ATOM     15  C   UNL     1      -7.715 -10.918  19.245  0.00  0.00    +0.305 C 
BRANCH  15   2
ATOM      2  O   UNL     1      -8.834 -10.306  18.778  0.00  0.00    -0.481 OA
ATOM     32  H   UNL     1      -8.624  -9.471  18.306  0.00  0.00    +0.295 HD
ENDBRANCH  15   2
ENDBRANCH  12  15
ENDBRANCH   7  12
BRANCH  14  17
ATOM     17  C   UNL     1      -3.857 -11.326  13.115  0.00  0.00    +0.100 C 
BRANCH  17  21
ATOM     21  C   UNL     1      -2.868 -11.138  11.973  0.00  0.00    +0.044 C 
BRANCH  21  25
ATOM     25  C   UNL     1      -3.512 -10.642  10.702  0.00  0.00    -0.047 A 
ATOM     27  C   UNL     1      -3.371  -9.307  10.322  0.00  0.00    +0.003 A 
ATOM     28  C   UNL     1      -4.249 -11.519   9.906  0.00  0.00    +0.003 A 
ATOM     29  C   UNL     1      -3.966  -8.850   9.147  0.00  0.00    +0.000 A 
ATOM     30  C   UNL     1      -4.845 -11.062   8.731  0.00  0.00    +0.000 A 
ATOM     31  C   UNL     1      -4.704  -9.727   8.351  0.00  0.00    +0.000 A 
ENDBRANCH  21  25
ENDBRANCH  17  21
ENDBRANCH  14  17
TORSDOF 8
ENDMDL
MODEL 7
REMARK VINA RESULT:      -5.7     20.513     23.072
REMARK  Name = 51136698
REMARK  8 active torsions:
REMARK  status: ('A' for Active; 'I' for Inactive)
REMARK    1  A    between atoms: O_2  and  C_15
REMARK    2  A    between atoms: C_6  and  C_11
REMARK    3  A    between atoms: C_7  and  C_12
REMARK    4  A    between atoms: C_11  and  C_13
REMARK    5  A    between atoms: C_12  and  C_15
REMARK    6  A    between atoms: C_14  and  C_17
REMARK    7  A    between atoms: C_17  and  C_21
REMARK    8  A    between atoms: C_21  and  C_25
REMARK                            x       y       z     vdW  Elec       q    Type
REMARK                         _______ _______ _______ _____ _____    ______ ____
ROOT
ATOM      1  O   UNL     1     -10.230  13.014  16.901  0.00  0.00    -0.276 OA
ATOM      4  N   UNL     1     -12.065  11.848  16.081  0.00  0.00    -0.301 N 
ATOM      6  C   UNL     1     -13.411   9.772  15.856  0.00  0.00    +0.016 C 
ATOM      7  C   UNL     1     -12.841   9.602  14.424  0.00  0.00    +0.006 C 
ATOM      8  C   UNL     1     -11.466  10.276  14.279  0.00  0.00    +0.023 C 
ATOM      9  C   UNL     1     -13.400  11.261  16.250  0.00  0.00    +0.112 C 
ATOM     10  C   UNL     1     -11.513  11.734  14.731  0.00  0.00    +0.108 C 
ATOM     14  C   UNL     1     -11.340  12.505  17.075  0.00  0.00    +0.216 C 
ENDROOT
BRANCH   6  11
ATOM     11  C   UNL     1     -12.687   8.935  16.917  0.00  0.00    +0.061 C 
BRANCH  11  13
ATOM      5  N   UNL     1     -14.902   8.097  17.315  0.00  0.00    -0.287 NA
ATOM     13  C   UNL     1     -13.697   8.201  17.768  0.00  0.00    +0.044 C 
ATOM     16  C   UNL     1     -13.263   7.647  19.075  0.00  0.00    -0.001 A 
ATOM     18  C   UNL     1     -14.272   7.328  19.992  0.00  0.00    -0.037 A 
ATOM     19  C   UNL     1     -15.867   7.332  18.113  0.00  0.00    +0.146 C 
ATOM     20  C   UNL     1     -15.700   7.577  19.607  0.00  0.00    +0.059 C 
ATOM     22  C   UNL     1     -11.919   7.457  19.406  0.00  0.00    +0.010 A 
ATOM     23  C   UNL     1     -13.928   6.840  21.255  0.00  0.00    +0.004 A 
ATOM     24  C   UNL     1     -11.586   6.953  20.664  0.00  0.00    +0.001 A 
ATOM     26  C   UNL     1     -12.587   6.649  21.588  0.00  0.00    +0.000 A 
ENDBRANCH  11  13
ENDBRANCH   6  11
BRANCH   7  12
ATOM     12  C   UNL     1     -12.776   8.144  13.972  0.00  0.00    +0.124 C 
BRANCH  12  15
ATOM      3  O   UNL     1     -14.598   7.838  12.383  0.00  0.00    -0.251 OA
ATOM     15  C   UNL     1     -14.112   7.652  13.488  0.00  0.00    +0.305 C 
BRANCH  15   2
ATOM      2  O   UNL     1     -14.725   6.949  14.474  0.00  0.00    -0.481 OA
ATOM     32  H   UNL     1     -14.431   6.012  14.494  0.00  0.00    +0.295 HD
ENDBRANCH  15   2
ENDBRANCH  12  15
ENDBRANCH   7  12
BRANCH  14  17
ATOM     17  C   UNL     1     -11.978  12.578  18.440  0.00  0.00    +0.100 C 
BRANCH  17  21
ATOM     21  C   UNL     1     -11.537  11.403  19.300  0.00  0.00    +0.044 C 
BRANCH  21  25
ATOM     25  C   UNL     1     -12.540  11.035  20.366  0.00  0.00    -0.047 A 
ATOM     27  C   UNL     1     -12.102  10.570  21.606  0.00  0.00    +0.003 A 
ATOM     28  C   UNL     1     -13.906  11.161  20.111  0.00  0.00    +0.003 A 
ATOM     29  C   UNL     1     -13.030  10.231  22.591  0.00  0.00    +0.000 A 
ATOM     30  C   UNL     1     -14.833  10.821  21.096  0.00  0.00    +0.000 A 
ATOM     31  C   UNL     1     -14.395  10.356  22.336  0.00  0.00    +0.000 A 
ENDBRANCH  21  25
ENDBRANCH  17  21
ENDBRANCH  14  17
TORSDOF 8
ENDMDL
MODEL 8
REMARK VINA RESULT:      -5.7      2.718      5.752
REMARK  Name = 51136698
REMARK  8 active torsions:
REMARK  status: ('A' for Active; 'I' for Inactive)
REMARK    1  A    between atoms: O_2  and  C_15
REMARK    2  A    between atoms: C_6  and  C_11
REMARK    3  A    between atoms: C_7  and  C_12
REMARK    4  A    between atoms: C_11  and  C_13
REMARK    5  A    between atoms: C_12  and  C_15
REMARK    6  A    between atoms: C_14  and  C_17
REMARK    7  A    between atoms: C_17  and  C_21
REMARK    8  A    between atoms: C_21  and  C_25
REMARK                            x       y       z     vdW  Elec       q    Type
REMARK                         _______ _______ _______ _____ _____    ______ ____
ROOT
ATOM      1  O   UNL     1      -7.532 -11.962  20.072  0.00  0.00    -0.276 OA
ATOM      4  N   UNL     1      -6.317 -10.686  18.558  0.00  0.00    -0.301 N 
ATOM      6  C   UNL     1      -5.415 -10.272  16.281  0.00  0.00    +0.016 C 
ATOM      7  C   UNL     1      -4.026 -10.738  16.786  0.00  0.00    +0.006 C 
ATOM      8  C   UNL     1      -4.152 -11.710  17.972  0.00  0.00    +0.023 C 
ATOM      9  C   UNL     1      -6.240  -9.718  17.456  0.00  0.00    +0.112 C 
ATOM     10  C   UNL     1      -5.022 -11.121  19.080  0.00  0.00    +0.108 C 
ATOM     14  C   UNL     1      -7.494 -11.168  19.129  0.00  0.00    +0.216 C 
ENDROOT
BRANCH   6  11
ATOM     11  C   UNL     1      -6.204 -11.357  15.540  0.00  0.00    +0.061 C 
BRANCH  11  13
ATOM      5  N   UNL     1      -5.951  -9.832  13.702  0.00  0.00    -0.287 NA
ATOM     13  C   UNL     1      -6.568 -10.873  14.156  0.00  0.00    +0.044 C 
ATOM     16  C   UNL     1      -7.611 -11.604  13.393  0.00  0.00    -0.001 A 
ATOM     18  C   UNL     1      -8.193 -10.929  12.313  0.00  0.00    -0.037 A 
ATOM     19  C   UNL     1      -6.260  -9.398  12.335  0.00  0.00    +0.146 C 
ATOM     20  C   UNL     1      -7.743  -9.530  12.011  0.00  0.00    +0.059 C 
ATOM     22  C   UNL     1      -8.021 -12.897  13.725  0.00  0.00    +0.010 A 
ATOM     23  C   UNL     1      -9.209 -11.547  11.579  0.00  0.00    +0.004 A 
ATOM     24  C   UNL     1      -9.026 -13.512  12.975  0.00  0.00    +0.001 A 
ATOM     26  C   UNL     1      -9.620 -12.838  11.908  0.00  0.00    +0.000 A 
ENDBRANCH  11  13
ENDBRANCH   6  11
BRANCH   7  12
ATOM     12  C   UNL     1      -3.157 -11.344  15.685  0.00  0.00    +0.124 C 
BRANCH  12  15
ATOM      3  O   UNL     1      -1.481  -9.903  14.657  0.00  0.00    -0.251 OA
ATOM     15  C   UNL     1      -1.835 -10.637  15.568  0.00  0.00    +0.305 C 
BRANCH  15   2
ATOM      2  O   UNL     1      -1.061 -10.932  16.644  0.00  0.00    -0.481 OA
ATOM     32  H   UNL     1      -0.978 -11.901  16.780  0.00  0.00    +0.295 HD
ENDBRANCH  15   2
ENDBRANCH  12  15
ENDBRANCH   7  12
BRANCH  14  17
ATOM     17  C   UNL     1      -8.787 -10.673  18.532  0.00  0.00    +0.100 C 
BRANCH  17  21
ATOM     21  C   UNL     1      -9.272 -11.621  17.444  0.00  0.00    +0.044 C 
BRANCH  21  25
ATOM     25  C   UNL     1      -9.920 -10.911  16.280  0.00  0.00    -0.047 A 
ATOM     27  C   UNL     1      -9.509  -9.624  15.930  0.00  0.00    +0.003 A 
ATOM     28  C   UNL     1     -10.930 -11.542  15.554  0.00  0.00    +0.003 A 
ATOM     29  C   UNL     1     -10.108  -8.970  14.854  0.00  0.00    +0.000 A 
ATOM     30  C   UNL     1     -11.530 -10.887  14.479  0.00  0.00    +0.000 A 
ATOM     31  C   UNL     1     -11.118  -9.600  14.129  0.00  0.00    +0.000 A 
ENDBRANCH  21  25
ENDBRANCH  17  21
ENDBRANCH  14  17
TORSDOF 8
ENDMDL
MODEL 9
REMARK VINA RESULT:      -5.6      2.113      5.286
REMARK  Name = 51136698
REMARK  8 active torsions:
REMARK  status: ('A' for Active; 'I' for Inactive)
REMARK    1  A    between atoms: O_2  and  C_15
REMARK    2  A    between atoms: C_6  and  C_11
REMARK    3  A    between atoms: C_7  and  C_12
REMARK    4  A    between atoms: C_11  and  C_13
REMARK    5  A    between atoms: C_12  and  C_15
REMARK    6  A    between atoms: C_14  and  C_17
REMARK    7  A    between atoms: C_17  and  C_21
REMARK    8  A    between atoms: C_21  and  C_25
REMARK                            x       y       z     vdW  Elec       q    Type
REMARK                         _______ _______ _______ _____ _____    ______ ____
ROOT
ATOM      1  O   UNL     1      -1.785 -10.351  14.410  0.00  0.00    -0.276 OA
ATOM      4  N   UNL     1      -3.662 -11.304  15.394  0.00  0.00    -0.301 N 
ATOM      6  C   UNL     1      -6.054 -11.228  16.062  0.00  0.00    +0.016 C 
ATOM      7  C   UNL     1      -5.600 -10.960  17.519  0.00  0.00    +0.006 C 
ATOM      8  C   UNL     1      -4.221 -10.280  17.566  0.00  0.00    +0.023 C 
ATOM      9  C   UNL     1      -4.954 -11.996  15.305  0.00  0.00    +0.112 C 
ATOM     10  C   UNL     1      -3.190 -11.064  16.757  0.00  0.00    +0.108 C 
ATOM     14  C   UNL     1      -2.881 -10.908  14.309  0.00  0.00    +0.216 C 
ENDROOT
BRANCH   6  11
ATOM     11  C   UNL     1      -6.449  -9.964  15.289  0.00  0.00    +0.061 C 
BRANCH  11  13
ATOM      5  N   UNL     1      -8.021 -10.936  13.756  0.00  0.00    -0.287 NA
ATOM     13  C   UNL     1      -7.848 -10.115  14.739  0.00  0.00    +0.044 C 
ATOM     16  C   UNL     1      -8.944  -9.317  15.342  0.00  0.00    -0.001 A 
ATOM     18  C   UNL     1     -10.115  -9.181  14.586  0.00  0.00    -0.037 A 
ATOM     19  C   UNL     1      -9.389 -11.129  13.261  0.00  0.00    +0.146 C 
ATOM     20  C   UNL     1     -10.179  -9.827  13.234  0.00  0.00    +0.059 C 
ATOM     22  C   UNL     1      -8.834  -8.707  16.594  0.00  0.00    +0.010 A 
ATOM     23  C   UNL     1     -11.170  -8.408  15.080  0.00  0.00    +0.004 A 
ATOM     24  C   UNL     1      -9.899  -7.951  17.086  0.00  0.00    +0.001 A 
ATOM     26  C   UNL     1     -11.062  -7.799  16.330  0.00  0.00    +0.000 A 
ENDBRANCH  11  13
ENDBRANCH   6  11
BRANCH   7  12
ATOM     12  C   UNL     1      -6.621 -10.160  18.328  0.00  0.00    +0.124 C 
BRANCH  12  15
ATOM      3  O   UNL     1      -6.057 -11.338  20.386  0.00  0.00    -0.251 OA
ATOM     15  C   UNL     1      -6.879 -10.787  19.671  0.00  0.00    +0.305 C 
BRANCH  15   2
ATOM      2  O   UNL     1      -8.191 -10.654  19.993  0.00  0.00    -0.481 OA
ATOM     32  H   UNL     1      -8.734 -11.387  19.629  0.00  0.00    +0.295 HD
ENDBRANCH  15   2
ENDBRANCH  12  15
ENDBRANCH   7  12
BRANCH  14  17
ATOM     17  C   UNL     1      -3.440 -11.189  12.936  0.00  0.00    +0.100 C 
BRANCH  17  21
ATOM     21  C   UNL     1      -2.689 -10.391  11.880  0.00  0.00    +0.044 C 
BRANCH  21  25
ATOM     25  C   UNL     1      -3.443 -10.270  10.578  0.00  0.00    -0.047 A 
ATOM     27  C   UNL     1      -3.917 -11.414   9.936  0.00  0.00    +0.003 A 
ATOM     28  C   UNL     1      -3.665  -9.012  10.015  0.00  0.00    +0.003 A 
ATOM     29  C   UNL     1      -4.613 -11.301   8.733  0.00  0.00    +0.000 A 
ATOM     30  C   UNL     1      -4.360  -8.900   8.812  0.00  0.00    +0.000 A 
ATOM     31  C   UNL     1      -4.835 -10.044   8.171  0.00  0.00    +0.000 A 
ENDBRANCH  21  25
ENDBRANCH  17  21
ENDBRANCH  14  17
TORSDOF 8
ENDMDL
MODEL 10
REMARK VINA RESULT:      -5.5     19.471     22.263
REMARK  Name = 51136698
REMARK  8 active torsions:
REMARK  status: ('A' for Active; 'I' for Inactive)
REMARK    1  A    between atoms: O_2  and  C_15
REMARK    2  A    between atoms: C_6  and  C_11
REMARK    3  A    between atoms: C_7  and  C_12
REMARK    4  A    between atoms: C_11  and  C_13
REMARK    5  A    between atoms: C_12  and  C_15
REMARK    6  A    between atoms: C_14  and  C_17
REMARK    7  A    between atoms: C_17  and  C_21
REMARK    8  A    between atoms: C_21  and  C_25
REMARK                            x       y       z     vdW  Elec       q    Type
REMARK                         _______ _______ _______ _____ _____    ______ ____
ROOT
ATOM      1  O   UNL     1       2.793 -14.228  35.274  0.00  0.00    -0.276 OA
ATOM      4  N   UNL     1       2.806 -11.919  35.523  0.00  0.00    -0.301 N 
ATOM      6  C   UNL     1       4.000  -9.745  35.672  0.00  0.00    +0.016 C 
ATOM      7  C   UNL     1       3.775  -9.768  37.205  0.00  0.00    +0.006 C 
ATOM      8  C   UNL     1       3.632 -11.205  37.734  0.00  0.00    +0.023 C 
ATOM      9  C   UNL     1       2.900 -10.561  34.970  0.00  0.00    +0.112 C 
ATOM     10  C   UNL     1       2.561 -11.975  36.965  0.00  0.00    +0.108 C 
ATOM     14  C   UNL     1       2.902 -13.099  34.788  0.00  0.00    +0.216 C 
ENDROOT
BRANCH   6  11
ATOM     11  C   UNL     1       5.387 -10.235  35.238  0.00  0.00    +0.061 C 
BRANCH  11  13
ATOM      5  N   UNL     1       6.264  -8.047  34.782  0.00  0.00    -0.287 NA
ATOM     13  C   UNL     1       6.021  -9.225  34.311  0.00  0.00    +0.044 C 
ATOM     16  C   UNL     1       6.326  -9.629  32.915  0.00  0.00    -0.001 A 
ATOM     18  C   UNL     1       6.541  -8.597  31.993  0.00  0.00    -0.037 A 
ATOM     19  C   UNL     1       6.935  -7.085  33.900  0.00  0.00    +0.146 C 
ATOM     20  C   UNL     1       6.436  -7.176  32.464  0.00  0.00    +0.059 C 
ATOM     22  C   UNL     1       6.387 -10.964  32.511  0.00  0.00    +0.010 A 
ATOM     23  C   UNL     1       6.793  -8.909  30.654  0.00  0.00    +0.004 A 
ATOM     24  C   UNL     1       6.655 -11.266  31.175  0.00  0.00    +0.001 A 
ATOM     26  C   UNL     1       6.854 -10.242  30.249  0.00  0.00    +0.000 A 
ENDBRANCH  11  13
ENDBRANCH   6  11
BRANCH   7  12
ATOM     12  C   UNL     1       4.854  -9.014  37.983  0.00  0.00    +0.124 C 
BRANCH  12  15
ATOM      3  O   UNL     1       3.640  -7.041  38.739  0.00  0.00    -0.251 OA
ATOM     15  C   UNL     1       4.541  -7.547  38.087  0.00  0.00    +0.305 C 
BRANCH  15   2
ATOM      2  O   UNL     1       5.421  -6.837  37.338  0.00  0.00    -0.481 OA
ATOM     32  H   UNL     1       6.283  -7.298  37.249  0.00  0.00    +0.295 HD
ENDBRANCH  15   2
ENDBRANCH  12  15
ENDBRANCH   7  12
BRANCH  14  17
ATOM     17  C   UNL     1       3.157 -12.955  33.309  0.00  0.00    +0.100 C 
BRANCH  17  21
ATOM     21  C   UNL     1       3.270 -14.323  32.650  0.00  0.00    +0.044 C 
BRANCH  21  25
ATOM     25  C   UNL     1       4.387 -14.407  31.639  0.00  0.00    -0.047 A 
ATOM     27  C   UNL     1       5.639 -14.891  32.019  0.00  0.00    +0.003 A 
ATOM     28  C   UNL     1       4.168 -14.000  30.322  0.00  0.00    +0.003 A 
ATOM     29  C   UNL     1       6.670 -14.968  31.084  0.00  0.00    +0.000 A 
ATOM     30  C   UNL     1       5.199 -14.076  29.388  0.00  0.00    +0.000 A 
ATOM     31  C   UNL     1       6.451 -14.561  29.768  0.00  0.00    +0.000 A 
ENDBRANCH  21  25
ENDBRANCH  17  21
ENDBRANCH  14  17
TORSDOF 8
ENDMDL
