MODEL 1
REMARK VINA RESULT:      -6.4      0.000      0.000
REMARK  Name = 26763478
REMARK  13 active torsions:
REMARK  status: ('A' for Active; 'I' for Inactive)
REMARK    1  A    between atoms: O_2  and  C_13
REMARK    2  A    between atoms: O_2  and  C_21
REMARK    3  A    between atoms: O_5  and  C_20
REMARK    4  A    between atoms: O_5  and  C_26
REMARK    5  A    between atoms: O_7  and  C_31
REMARK    6  A    between atoms: N_10  and  C_19
REMARK    7  A    between atoms: C_12  and  C_17
REMARK    8  A    between atoms: C_18  and  C_20
REMARK    9  A    between atoms: C_19  and  C_22
REMARK   10  A    between atoms: C_19  and  C_23
REMARK   11  A    between atoms: C_21  and  C_24
REMARK   12  A    between atoms: C_22  and  C_25
REMARK   13  A    between atoms: C_26  and  C_31
REMARK                            x       y       z     vdW  Elec       q    Type
REMARK                         _______ _______ _______ _____ _____    ______ ____
ROOT
ATOM      4  O   UNL     1      11.291   6.108  20.769  0.00  0.00    -0.273 OA
ATOM      9  N   UNL     1      11.996   8.294  21.149  0.00  0.00    -0.288 N 
ATOM     12  C   UNL     1      12.899   9.412  20.833  0.00  0.00    +0.164 C 
ATOM     13  C   UNL     1      11.501  10.900  22.392  0.00  0.00    +0.122 C 
ATOM     14  C   UNL     1      12.279  10.792  21.082  0.00  0.00    +0.063 C 
ATOM     15  C   UNL     1      10.524   9.737  22.534  0.00  0.00    +0.050 C 
ATOM     16  C   UNL     1      11.230   8.394  22.397  0.00  0.00    +0.111 C 
ATOM     18  C   UNL     1      11.944   7.097  20.426  0.00  0.00    +0.242 C 
ENDROOT
BRANCH  12  17
ATOM      3  O   UNL     1      14.400   8.184  22.230  0.00  0.00    -0.274 OA
ATOM     10  N   UNL     1      14.989  10.335  21.560  0.00  0.00    -0.302 N 
ATOM     17  C   UNL     1      14.168   9.221  21.614  0.00  0.00    +0.234 C 
ATOM     32  H   UNL     1      14.677  11.157  21.053  0.00  0.00    +0.150 HD
BRANCH  10  19
ATOM     19  C   UNL     1      16.258  10.414  22.246  0.00  0.00    +0.163 C 
BRANCH  19  23
ATOM      6  O   UNL     1      15.493  12.669  22.731  0.00  0.00    -0.274 OA
ATOM     11  N   UNL     1      17.392  11.905  23.775  0.00  0.00    -0.328 N 
ATOM     23  C   UNL     1      16.325  11.782  22.910  0.00  0.00    +0.231 C 
ATOM     33  H   UNL     1      18.069  11.163  23.916  0.00  0.00    +0.145 HD
ATOM     34  H   UNL     1      17.542  12.763  24.295  0.00  0.00    +0.145 HD
ENDBRANCH  19  23
BRANCH  19  22
ATOM     22  C   UNL     1      17.445  10.225  21.293  0.00  0.00    +0.074 C 
BRANCH  22  25
ATOM      1  S   UNL     1      19.411   8.533  22.302  0.00  0.00    -0.102 S 
ATOM     25  C   UNL     1      18.022   8.831  21.348  0.00  0.00    -0.008 A 
ATOM     27  C   UNL     1      17.577   7.694  20.711  0.00  0.00    +0.011 A 
ATOM     29  C   UNL     1      18.389   6.561  21.010  0.00  0.00    +0.008 A 
ATOM     30  C   UNL     1      19.423   6.877  21.864  0.00  0.00    +0.045 A 
ENDBRANCH  22  25
ENDBRANCH  19  22
ENDBRANCH  10  19
ENDBRANCH  12  17
BRANCH  13   2
ATOM      2  O   UNL     1      12.411  10.915  23.487  0.00  0.00    -0.372 OA
BRANCH   2  21
ATOM     21  C   UNL     1      11.862  11.589  24.610  0.00  0.00    +0.187 C 
BRANCH  21  24
ATOM     24  C   UNL     1      11.384  12.934  24.178  0.00  0.00    -0.007 C 
ATOM     28  C   UNL     1      10.382  13.597  24.766  0.00  0.00    +0.006 C 
ENDBRANCH  21  24
ENDBRANCH   2  21
ENDBRANCH  13   2
BRANCH  18  20
ATOM     20  C   UNL     1      12.739   7.042  19.145  0.00  0.00    +0.256 C 
BRANCH  20   5
ATOM      5  O   UNL     1      11.834   7.303  18.099  0.00  0.00    -0.359 OA
BRANCH   5  26
ATOM     26  C   UNL     1      12.086   8.561  17.475  0.00  0.00    +0.280 C 
BRANCH  26  31
ATOM      8  O   UNL     1      11.674   9.181  15.161  0.00  0.00    -0.248 OA
ATOM     31  C   UNL     1      11.293   8.663  16.200  0.00  0.00    +0.331 C 
BRANCH  31   7
ATOM      7  O   UNL     1      10.075   8.090  16.360  0.00  0.00    -0.479 OA
ATOM     35  H   UNL     1      10.138   7.116  16.462  0.00  0.00    +0.295 HD
ENDBRANCH  31   7
ENDBRANCH  26  31
ENDBRANCH   5  26
ENDBRANCH  20   5
ENDBRANCH  18  20
TORSDOF 13
ENDMDL
MODEL 2
REMARK VINA RESULT:      -5.4     15.326     18.723
REMARK  Name = 26763478
REMARK  13 active torsions:
REMARK  status: ('A' for Active; 'I' for Inactive)
REMARK    1  A    between atoms: O_2  and  C_13
REMARK    2  A    between atoms: O_2  and  C_21
REMARK    3  A    between atoms: O_5  and  C_20
REMARK    4  A    between atoms: O_5  and  C_26
REMARK    5  A    between atoms: O_7  and  C_31
REMARK    6  A    between atoms: N_10  and  C_19
REMARK    7  A    between atoms: C_12  and  C_17
REMARK    8  A    between atoms: C_18  and  C_20
REMARK    9  A    between atoms: C_19  and  C_22
REMARK   10  A    between atoms: C_19  and  C_23
REMARK   11  A    between atoms: C_21  and  C_24
REMARK   12  A    between atoms: C_22  and  C_25
REMARK   13  A    between atoms: C_26  and  C_31
REMARK                            x       y       z     vdW  Elec       q    Type
REMARK                         _______ _______ _______ _____ _____    ______ ____
ROOT
ATOM      4  O   UNL     1      13.000   9.062   7.184  0.00  0.00    -0.273 OA
ATOM      9  N   UNL     1      11.528   7.529   6.232  0.00  0.00    -0.288 N 
ATOM     12  C   UNL     1      11.281   6.210   5.628  0.00  0.00    +0.164 C 
ATOM     13  C   UNL     1       8.766   6.735   5.667  0.00  0.00    +0.122 C 
ATOM     14  C   UNL     1       9.859   5.685   5.861  0.00  0.00    +0.063 C 
ATOM     15  C   UNL     1       9.100   8.008   6.439  0.00  0.00    +0.050 C 
ATOM     16  C   UNL     1      10.478   8.541   6.067  0.00  0.00    +0.111 C 
ATOM     18  C   UNL     1      12.746   7.916   6.804  0.00  0.00    +0.242 C 
ENDROOT
BRANCH  12  17
ATOM      3  O   UNL     1      11.885   7.367   3.626  0.00  0.00    -0.274 OA
ATOM     10  N   UNL     1      11.544   5.066   3.538  0.00  0.00    -0.302 N 
ATOM     17  C   UNL     1      11.611   6.298   4.165  0.00  0.00    +0.234 C 
ATOM     32  H   UNL     1      11.264   4.250   4.075  0.00  0.00    +0.150 HD
BRANCH  10  19
ATOM     19  C   UNL     1      11.796   4.883   2.127  0.00  0.00    +0.163 C 
BRANCH  19  23
ATOM      6  O   UNL     1       9.898   3.931   0.943  0.00  0.00    -0.274 OA
ATOM     11  N   UNL     1       9.880   6.178   1.422  0.00  0.00    -0.328 N 
ATOM     23  C   UNL     1      10.447   4.921   1.422  0.00  0.00    +0.231 C 
ATOM     33  H   UNL     1      10.342   6.986   1.826  0.00  0.00    +0.145 HD
ATOM     34  H   UNL     1       8.972   6.338   0.999  0.00  0.00    +0.145 HD
ENDBRANCH  19  23
BRANCH  19  22
ATOM     22  C   UNL     1      12.513   3.560   1.833  0.00  0.00    +0.074 C 
BRANCH  22  25
ATOM      1  S   UNL     1      13.554   4.075  -0.697  0.00  0.00    -0.102 S 
ATOM     25  C   UNL     1      13.740   3.740   0.971  0.00  0.00    -0.008 A 
ATOM     27  C   UNL     1      15.065   3.672   1.342  0.00  0.00    +0.011 A 
ATOM     29  C   UNL     1      15.940   3.898   0.239  0.00  0.00    +0.008 A 
ATOM     30  C   UNL     1      15.250   4.130  -0.930  0.00  0.00    +0.045 A 
ENDBRANCH  22  25
ENDBRANCH  19  22
ENDBRANCH  10  19
ENDBRANCH  12  17
BRANCH  13   2
ATOM      2  O   UNL     1       8.623   7.023   4.280  0.00  0.00    -0.372 OA
BRANCH   2  21
ATOM     21  C   UNL     1       7.745   8.118   4.064  0.00  0.00    +0.187 C 
BRANCH  21  24
ATOM     24  C   UNL     1       8.114   8.784   2.781  0.00  0.00    -0.007 C 
ATOM     28  C   UNL     1       7.259   9.485   2.029  0.00  0.00    +0.006 C 
ENDBRANCH  21  24
ENDBRANCH   2  21
ENDBRANCH  13   2
BRANCH  18  20
ATOM     20  C   UNL     1      13.794   6.841   6.963  0.00  0.00    +0.256 C 
BRANCH  20   5
ATOM      5  O   UNL     1      14.998   7.380   6.474  0.00  0.00    -0.359 OA
BRANCH   5  26
ATOM     26  C   UNL     1      15.107   7.251   5.057  0.00  0.00    +0.280 C 
BRANCH  26  31
ATOM      8  O   UNL     1      16.079   9.433   4.609  0.00  0.00    -0.248 OA
ATOM     31  C   UNL     1      16.138   8.215   4.537  0.00  0.00    +0.331 C 
BRANCH  31   7
ATOM      7  O   UNL     1      17.166   7.538   3.966  0.00  0.00    -0.479 OA
ATOM     35  H   UNL     1      17.645   6.981   4.617  0.00  0.00    +0.295 HD
ENDBRANCH  31   7
ENDBRANCH  26  31
ENDBRANCH   5  26
ENDBRANCH  20   5
ENDBRANCH  18  20
TORSDOF 13
ENDMDL
MODEL 3
REMARK VINA RESULT:      -5.3     14.115     16.573
REMARK  Name = 26763478
REMARK  13 active torsions:
REMARK  status: ('A' for Active; 'I' for Inactive)
REMARK    1  A    between atoms: O_2  and  C_13
REMARK    2  A    between atoms: O_2  and  C_21
REMARK    3  A    between atoms: O_5  and  C_20
REMARK    4  A    between atoms: O_5  and  C_26
REMARK    5  A    between atoms: O_7  and  C_31
REMARK    6  A    between atoms: N_10  and  C_19
REMARK    7  A    between atoms: C_12  and  C_17
REMARK    8  A    between atoms: C_18  and  C_20
REMARK    9  A    between atoms: C_19  and  C_22
REMARK   10  A    between atoms: C_19  and  C_23
REMARK   11  A    between atoms: C_21  and  C_24
REMARK   12  A    between atoms: C_22  and  C_25
REMARK   13  A    between atoms: C_26  and  C_31
REMARK                            x       y       z     vdW  Elec       q    Type
REMARK                         _______ _______ _______ _____ _____    ______ ____
ROOT
ATOM      4  O   UNL     1      11.583   3.875   2.791  0.00  0.00    -0.273 OA
ATOM      9  N   UNL     1      10.805   5.760   3.916  0.00  0.00    -0.288 N 
ATOM     12  C   UNL     1      10.800   7.220   4.098  0.00  0.00    +0.164 C 
ATOM     13  C   UNL     1       8.883   6.939   5.785  0.00  0.00    +0.122 C 
ATOM     14  C   UNL     1       9.476   7.766   4.646  0.00  0.00    +0.063 C 
ATOM     15  C   UNL     1       8.847   5.460   5.414  0.00  0.00    +0.050 C 
ATOM     16  C   UNL     1      10.223   4.955   4.996  0.00  0.00    +0.111 C 
ATOM     18  C   UNL     1      11.461   5.100   2.870  0.00  0.00    +0.242 C 
ENDROOT
BRANCH  12  17
ATOM      3  O   UNL     1      12.901   6.813   5.164  0.00  0.00    -0.274 OA
ATOM     10  N   UNL     1      11.818   8.840   5.544  0.00  0.00    -0.302 N 
ATOM     17  C   UNL     1      11.961   7.583   4.979  0.00  0.00    +0.234 C 
ATOM     32  H   UNL     1      10.976   9.375   5.355  0.00  0.00    +0.150 HD
BRANCH  10  19
ATOM     19  C   UNL     1      12.787   9.415   6.448  0.00  0.00    +0.163 C 
BRANCH  19  23
ATOM      6  O   UNL     1      10.790  10.041   7.684  0.00  0.00    -0.274 OA
ATOM     11  N   UNL     1      12.823  10.829   8.408  0.00  0.00    -0.328 N 
ATOM     23  C   UNL     1      12.009  10.124   7.547  0.00  0.00    +0.231 C 
ATOM     33  H   UNL     1      13.829  10.885   8.286  0.00  0.00    +0.145 HD
ATOM     34  H   UNL     1      12.432  11.334   9.196  0.00  0.00    +0.145 HD
ENDBRANCH  19  23
BRANCH  19  22
ATOM     22  C   UNL     1      13.727  10.399   5.740  0.00  0.00    +0.074 C 
BRANCH  22  25
ATOM      1  S   UNL     1      16.380  10.958   5.110  0.00  0.00    -0.102 S 
ATOM     25  C   UNL     1      15.160   9.924   5.719  0.00  0.00    -0.008 A 
ATOM     27  C   UNL     1      15.668   8.714   6.139  0.00  0.00    +0.011 A 
ATOM     29  C   UNL     1      17.079   8.635   5.957  0.00  0.00    +0.008 A 
ATOM     30  C   UNL     1      17.595   9.788   5.406  0.00  0.00    +0.045 A 
ENDBRANCH  22  25
ENDBRANCH  19  22
ENDBRANCH  10  19
ENDBRANCH  12  17
BRANCH  13   2
ATOM      2  O   UNL     1       9.655   7.133   6.966  0.00  0.00    -0.372 OA
BRANCH   2  21
ATOM     21  C   UNL     1       8.971   6.662   8.118  0.00  0.00    +0.187 C 
BRANCH  21  24
ATOM     24  C   UNL     1       9.838   5.673   8.821  0.00  0.00    -0.007 C 
ATOM     28  C   UNL     1       9.568   4.365   8.903  0.00  0.00    +0.006 C 
ENDBRANCH  21  24
ENDBRANCH   2  21
ENDBRANCH  13   2
BRANCH  18  20
ATOM     20  C   UNL     1      12.036   5.966   1.776  0.00  0.00    +0.256 C 
BRANCH  20   5
ATOM      5  O   UNL     1      13.436   5.846   1.863  0.00  0.00    -0.359 OA
BRANCH   5  26
ATOM     26  C   UNL     1      14.093   7.099   1.684  0.00  0.00    +0.280 C 
BRANCH  26  31
ATOM      8  O   UNL     1      16.091   8.095   2.645  0.00  0.00    -0.248 OA
ATOM     31  C   UNL     1      15.252   7.206   2.636  0.00  0.00    +0.331 C 
BRANCH  31   7
ATOM      7  O   UNL     1      15.242   6.164   3.504  0.00  0.00    -0.479 OA
ATOM     35  H   UNL     1      15.249   5.300   3.039  0.00  0.00    +0.295 HD
ENDBRANCH  31   7
ENDBRANCH  26  31
ENDBRANCH   5  26
ENDBRANCH  20   5
ENDBRANCH  18  20
TORSDOF 13
ENDMDL
MODEL 4
REMARK VINA RESULT:      -5.3     13.804     17.705
REMARK  Name = 26763478
REMARK  13 active torsions:
REMARK  status: ('A' for Active; 'I' for Inactive)
REMARK    1  A    between atoms: O_2  and  C_13
REMARK    2  A    between atoms: O_2  and  C_21
REMARK    3  A    between atoms: O_5  and  C_20
REMARK    4  A    between atoms: O_5  and  C_26
REMARK    5  A    between atoms: O_7  and  C_31
REMARK    6  A    between atoms: N_10  and  C_19
REMARK    7  A    between atoms: C_12  and  C_17
REMARK    8  A    between atoms: C_18  and  C_20
REMARK    9  A    between atoms: C_19  and  C_22
REMARK   10  A    between atoms: C_19  and  C_23
REMARK   11  A    between atoms: C_21  and  C_24
REMARK   12  A    between atoms: C_22  and  C_25
REMARK   13  A    between atoms: C_26  and  C_31
REMARK                            x       y       z     vdW  Elec       q    Type
REMARK                         _______ _______ _______ _____ _____    ______ ____
ROOT
ATOM      4  O   UNL     1      10.114   9.165   8.294  0.00  0.00    -0.273 OA
ATOM      9  N   UNL     1       9.383   8.463   6.198  0.00  0.00    -0.288 N 
ATOM     12  C   UNL     1       8.842   7.407   5.328  0.00  0.00    +0.164 C 
ATOM     13  C   UNL     1       8.589   9.158   3.465  0.00  0.00    +0.122 C 
ATOM     14  C   UNL     1       7.991   7.941   4.170  0.00  0.00    +0.063 C 
ATOM     15  C   UNL     1       9.003  10.218   4.482  0.00  0.00    +0.050 C 
ATOM     16  C   UNL     1       9.945   9.645   5.534  0.00  0.00    +0.111 C 
ATOM     18  C   UNL     1       9.535   8.339   7.584  0.00  0.00    +0.242 C 
ENDROOT
BRANCH  12  17
ATOM      3  O   UNL     1       9.855   5.384   4.559  0.00  0.00    -0.274 OA
ATOM     10  N   UNL     1      11.171   7.293   4.773  0.00  0.00    -0.302 N 
ATOM     17  C   UNL     1       9.990   6.572   4.839  0.00  0.00    +0.234 C 
ATOM     32  H   UNL     1      11.177   8.264   5.071  0.00  0.00    +0.150 HD
BRANCH  10  19
ATOM     19  C   UNL     1      12.427   6.715   4.354  0.00  0.00    +0.163 C 
BRANCH  19  23
ATOM      6  O   UNL     1      14.634   7.709   4.569  0.00  0.00    -0.274 OA
ATOM     11  N   UNL     1      13.151   7.938   6.309  0.00  0.00    -0.328 N 
ATOM     23  C   UNL     1      13.533   7.481   5.065  0.00  0.00    +0.231 C 
ATOM     33  H   UNL     1      12.237   7.746   6.705  0.00  0.00    +0.145 HD
ATOM     34  H   UNL     1      13.790   8.479   6.882  0.00  0.00    +0.145 HD
ENDBRANCH  19  23
BRANCH  19  22
ATOM     22  C   UNL     1      12.620   6.787   2.834  0.00  0.00    +0.074 C 
BRANCH  22  25
ATOM      1  S   UNL     1      11.960   4.187   2.091  0.00  0.00    -0.102 S 
ATOM     25  C   UNL     1      13.076   5.476   2.240  0.00  0.00    -0.008 A 
ATOM     27  C   UNL     1      14.327   5.136   1.772  0.00  0.00    +0.011 A 
ATOM     29  C   UNL     1      14.369   3.798   1.284  0.00  0.00    +0.008 A 
ATOM     30  C   UNL     1      13.149   3.167   1.398  0.00  0.00    +0.045 A 
ENDBRANCH  22  25
ENDBRANCH  19  22
ENDBRANCH  10  19
ENDBRANCH  12  17
BRANCH  13   2
ATOM      2  O   UNL     1       9.711   8.755   2.689  0.00  0.00    -0.372 OA
BRANCH   2  21
ATOM     21  C   UNL     1       9.345   8.496   1.341  0.00  0.00    +0.187 C 
BRANCH  21  24
ATOM     24  C   UNL     1       9.724   7.093   1.002  0.00  0.00    -0.007 C 
ATOM     28  C   UNL     1      10.007   6.673  -0.237  0.00  0.00    +0.006 C 
ENDBRANCH  21  24
ENDBRANCH   2  21
ENDBRANCH  13   2
BRANCH  18  20
ATOM     20  C   UNL     1       8.934   7.113   8.226  0.00  0.00    +0.256 C 
BRANCH  20   5
ATOM      5  O   UNL     1       9.999   6.227   8.474  0.00  0.00    -0.359 OA
BRANCH   5  26
ATOM     26  C   UNL     1       9.544   4.892   8.695  0.00  0.00    +0.280 C 
BRANCH  26  31
ATOM      8  O   UNL     1       8.140   4.626  10.661  0.00  0.00    -0.248 OA
ATOM     31  C   UNL     1       9.251   4.691  10.157  0.00  0.00    +0.331 C 
BRANCH  31   7
ATOM      7  O   UNL     1      10.409   4.587  10.855  0.00  0.00    -0.479 OA
ATOM     35  H   UNL     1      10.445   5.224  11.602  0.00  0.00    +0.295 HD
ENDBRANCH  31   7
ENDBRANCH  26  31
ENDBRANCH   5  26
ENDBRANCH  20   5
ENDBRANCH  18  20
TORSDOF 13
ENDMDL
MODEL 5
REMARK VINA RESULT:      -5.3     27.276     29.570
REMARK  Name = 26763478
REMARK  13 active torsions:
REMARK  status: ('A' for Active; 'I' for Inactive)
REMARK    1  A    between atoms: O_2  and  C_13
REMARK    2  A    between atoms: O_2  and  C_21
REMARK    3  A    between atoms: O_5  and  C_20
REMARK    4  A    between atoms: O_5  and  C_26
REMARK    5  A    between atoms: O_7  and  C_31
REMARK    6  A    between atoms: N_10  and  C_19
REMARK    7  A    between atoms: C_12  and  C_17
REMARK    8  A    between atoms: C_18  and  C_20
REMARK    9  A    between atoms: C_19  and  C_22
REMARK   10  A    between atoms: C_19  and  C_23
REMARK   11  A    between atoms: C_21  and  C_24
REMARK   12  A    between atoms: C_22  and  C_25
REMARK   13  A    between atoms: C_26  and  C_31
REMARK                            x       y       z     vdW  Elec       q    Type
REMARK                         _______ _______ _______ _____ _____    ______ ____
ROOT
ATOM      4  O   UNL     1      -5.074  -8.302  10.905  0.00  0.00    -0.273 OA
ATOM      9  N   UNL     1      -4.957 -10.294  12.105  0.00  0.00    -0.288 N 
ATOM     12  C   UNL     1      -5.623 -11.353  12.879  0.00  0.00    +0.164 C 
ATOM     13  C   UNL     1      -3.406 -12.652  12.888  0.00  0.00    +0.122 C 
ATOM     14  C   UNL     1      -4.928 -12.717  12.777  0.00  0.00    +0.063 C 
ATOM     15  C   UNL     1      -2.843 -11.589  11.950  0.00  0.00    +0.050 C 
ATOM     16  C   UNL     1      -3.493 -10.231  12.191  0.00  0.00    +0.111 C 
ATOM     18  C   UNL     1      -5.631  -9.266  11.436  0.00  0.00    +0.242 C 
ENDROOT
BRANCH  12  17
ATOM      3  O   UNL     1      -5.640  -9.704  14.608  0.00  0.00    -0.274 OA
ATOM     10  N   UNL     1      -5.935 -11.941  15.182  0.00  0.00    -0.302 N 
ATOM     17  C   UNL     1      -5.737 -10.889  14.302  0.00  0.00    +0.234 C 
ATOM     32  H   UNL     1      -5.956 -12.891  14.823  0.00  0.00    +0.150 HD
BRANCH  10  19
ATOM     19  C   UNL     1      -6.055 -11.764  16.611  0.00  0.00    +0.163 C 
BRANCH  19  23
ATOM      6  O   UNL     1      -4.772 -12.674  18.464  0.00  0.00    -0.274 OA
ATOM     11  N   UNL     1      -4.486 -13.588  16.375  0.00  0.00    -0.328 N 
ATOM     23  C   UNL     1      -5.039 -12.690  17.264  0.00  0.00    +0.231 C 
ATOM     33  H   UNL     1      -4.719 -13.593  15.388  0.00  0.00    +0.145 HD
ATOM     34  H   UNL     1      -3.806 -14.274  16.686  0.00  0.00    +0.145 HD
ENDBRANCH  19  23
BRANCH  19  22
ATOM     22  C   UNL     1      -7.467 -12.078  17.117  0.00  0.00    +0.074 C 
BRANCH  22  25
ATOM      1  S   UNL     1      -9.958 -11.003  17.742  0.00  0.00    -0.102 S 
ATOM     25  C   UNL     1      -8.318 -10.842  17.281  0.00  0.00    -0.008 A 
ATOM     27  C   UNL     1      -7.956  -9.524  17.105  0.00  0.00    +0.011 A 
ATOM     29  C   UNL     1      -9.042  -8.634  17.352  0.00  0.00    +0.008 A 
ATOM     30  C   UNL     1     -10.191  -9.306  17.707  0.00  0.00    +0.045 A 
ENDBRANCH  22  25
ENDBRANCH  19  22
ENDBRANCH  10  19
ENDBRANCH  12  17
BRANCH  13   2
ATOM      2  O   UNL     1      -3.039 -12.367  14.234  0.00  0.00    -0.372 OA
BRANCH   2  21
ATOM     21  C   UNL     1      -1.632 -12.234  14.372  0.00  0.00    +0.187 C 
BRANCH  21  24
ATOM     24  C   UNL     1      -1.346 -11.121  15.323  0.00  0.00    -0.007 C 
ATOM     28  C   UNL     1      -2.264 -10.564  16.121  0.00  0.00    +0.006 C 
ENDBRANCH  21  24
ENDBRANCH   2  21
ENDBRANCH  13   2
BRANCH  18  20
ATOM     20  C   UNL     1      -7.135  -9.375  11.364  0.00  0.00    +0.256 C 
BRANCH  20   5
ATOM      5  O   UNL     1      -7.462  -9.518  10.002  0.00  0.00    -0.359 OA
BRANCH   5  26
ATOM     26  C   UNL     1      -8.345  -8.490   9.554  0.00  0.00    +0.280 C 
BRANCH  26  31
ATOM      8  O   UNL     1      -8.028  -6.509   8.180  0.00  0.00    -0.248 OA
ATOM     31  C   UNL     1      -7.626  -7.590   8.586  0.00  0.00    +0.331 C 
BRANCH  31   7
ATOM      7  O   UNL     1      -6.446  -8.147   8.217  0.00  0.00    -0.479 OA
ATOM     35  H   UNL     1      -5.729  -7.480   8.155  0.00  0.00    +0.295 HD
ENDBRANCH  31   7
ENDBRANCH  26  31
ENDBRANCH   5  26
ENDBRANCH  20   5
ENDBRANCH  18  20
TORSDOF 13
ENDMDL
MODEL 6
REMARK VINA RESULT:      -5.3     27.196     29.562
REMARK  Name = 26763478
REMARK  13 active torsions:
REMARK  status: ('A' for Active; 'I' for Inactive)
REMARK    1  A    between atoms: O_2  and  C_13
REMARK    2  A    between atoms: O_2  and  C_21
REMARK    3  A    between atoms: O_5  and  C_20
REMARK    4  A    between atoms: O_5  and  C_26
REMARK    5  A    between atoms: O_7  and  C_31
REMARK    6  A    between atoms: N_10  and  C_19
REMARK    7  A    between atoms: C_12  and  C_17
REMARK    8  A    between atoms: C_18  and  C_20
REMARK    9  A    between atoms: C_19  and  C_22
REMARK   10  A    between atoms: C_19  and  C_23
REMARK   11  A    between atoms: C_21  and  C_24
REMARK   12  A    between atoms: C_22  and  C_25
REMARK   13  A    between atoms: C_26  and  C_31
REMARK                            x       y       z     vdW  Elec       q    Type
REMARK                         _______ _______ _______ _____ _____    ______ ____
ROOT
ATOM      4  O   UNL     1      -5.122 -14.652  16.250  0.00  0.00    -0.273 OA
ATOM      9  N   UNL     1      -4.055 -12.601  15.970  0.00  0.00    -0.288 N 
ATOM     12  C   UNL     1      -3.854 -11.205  16.389  0.00  0.00    +0.164 C 
ATOM     13  C   UNL     1      -1.910 -11.050  14.716  0.00  0.00    +0.122 C 
ATOM     14  C   UNL     1      -2.446 -10.673  16.096  0.00  0.00    +0.063 C 
ATOM     15  C   UNL     1      -2.082 -12.544  14.462  0.00  0.00    +0.050 C 
ATOM     16  C   UNL     1      -3.530 -12.980  14.653  0.00  0.00    +0.111 C 
ATOM     18  C   UNL     1      -4.839 -13.526  16.669  0.00  0.00    +0.242 C 
ENDROOT
BRANCH  12  17
ATOM      3  O   UNL     1      -5.242  -9.270  16.186  0.00  0.00    -0.274 OA
ATOM     10  N   UNL     1      -5.460 -10.982  14.623  0.00  0.00    -0.302 N 
ATOM     17  C   UNL     1      -4.914 -10.365  15.737  0.00  0.00    +0.234 C 
ATOM     32  H   UNL     1      -5.142 -11.912  14.366  0.00  0.00    +0.150 HD
BRANCH  10  19
ATOM     19  C   UNL     1      -6.515 -10.393  13.831  0.00  0.00    +0.163 C 
BRANCH  19  23
ATOM      6  O   UNL     1      -8.358 -11.462  15.000  0.00  0.00    -0.274 OA
ATOM     11  N   UNL     1      -8.187  -9.172  15.080  0.00  0.00    -0.328 N 
ATOM     23  C   UNL     1      -7.782 -10.427  14.675  0.00  0.00    +0.231 C 
ATOM     33  H   UNL     1      -7.698  -8.326  14.808  0.00  0.00    +0.145 HD
ATOM     34  H   UNL     1      -9.009  -9.055  15.663  0.00  0.00    +0.145 HD
ENDBRANCH  19  23
BRANCH  19  22
ATOM     22  C   UNL     1      -6.734 -11.140  12.511  0.00  0.00    +0.074 C 
BRANCH  22  25
ATOM      1  S   UNL     1      -7.205 -10.786   9.790  0.00  0.00    -0.102 S 
ATOM     25  C   UNL     1      -6.627 -10.238  11.305  0.00  0.00    -0.008 A 
ATOM     27  C   UNL     1      -6.104  -8.966  11.231  0.00  0.00    +0.011 A 
ATOM     29  C   UNL     1      -6.178  -8.434   9.911  0.00  0.00    +0.008 A 
ATOM     30  C   UNL     1      -6.756  -9.319   9.027  0.00  0.00    +0.045 A 
ENDBRANCH  22  25
ENDBRANCH  19  22
ENDBRANCH  10  19
ENDBRANCH  12  17
BRANCH  13   2
ATOM      2  O   UNL     1      -2.593 -10.298  13.718  0.00  0.00    -0.372 OA
BRANCH   2  21
ATOM     21  C   UNL     1      -1.938 -10.386  12.461  0.00  0.00    +0.187 C 
BRANCH  21  24
ATOM     24  C   UNL     1      -2.969 -10.498  11.389  0.00  0.00    -0.007 C 
ATOM     28  C   UNL     1      -3.349 -11.655  10.834  0.00  0.00    +0.006 C 
ENDBRANCH  21  24
ENDBRANCH   2  21
ENDBRANCH  13   2
BRANCH  18  20
ATOM     20  C   UNL     1      -5.350 -13.098  18.023  0.00  0.00    +0.256 C 
BRANCH  20   5
ATOM      5  O   UNL     1      -6.679 -12.675  17.835  0.00  0.00    -0.359 OA
BRANCH   5  26
ATOM     26  C   UNL     1      -7.257 -12.173  19.039  0.00  0.00    +0.280 C 
BRANCH  26  31
ATOM      8  O   UNL     1      -7.810  -9.999  18.102  0.00  0.00    -0.248 OA
ATOM     31  C   UNL     1      -7.306 -10.671  18.991  0.00  0.00    +0.331 C 
BRANCH  31   7
ATOM      7  O   UNL     1      -6.707 -10.147  20.090  0.00  0.00    -0.479 OA
ATOM     35  H   UNL     1      -5.731 -10.237  20.053  0.00  0.00    +0.295 HD
ENDBRANCH  31   7
ENDBRANCH  26  31
ENDBRANCH   5  26
ENDBRANCH  20   5
ENDBRANCH  18  20
TORSDOF 13
ENDMDL
MODEL 7
REMARK VINA RESULT:      -5.2     14.220     16.954
REMARK  Name = 26763478
REMARK  13 active torsions:
REMARK  status: ('A' for Active; 'I' for Inactive)
REMARK    1  A    between atoms: O_2  and  C_13
REMARK    2  A    between atoms: O_2  and  C_21
REMARK    3  A    between atoms: O_5  and  C_20
REMARK    4  A    between atoms: O_5  and  C_26
REMARK    5  A    between atoms: O_7  and  C_31
REMARK    6  A    between atoms: N_10  and  C_19
REMARK    7  A    between atoms: C_12  and  C_17
REMARK    8  A    between atoms: C_18  and  C_20
REMARK    9  A    between atoms: C_19  and  C_22
REMARK   10  A    between atoms: C_19  and  C_23
REMARK   11  A    between atoms: C_21  and  C_24
REMARK   12  A    between atoms: C_22  and  C_25
REMARK   13  A    between atoms: C_26  and  C_31
REMARK                            x       y       z     vdW  Elec       q    Type
REMARK                         _______ _______ _______ _____ _____    ______ ____
ROOT
ATOM      4  O   UNL     1      11.287   3.808   2.923  0.00  0.00    -0.273 OA
ATOM      9  N   UNL     1      10.613   5.738   4.038  0.00  0.00    -0.288 N 
ATOM     12  C   UNL     1      10.670   7.200   4.197  0.00  0.00    +0.164 C 
ATOM     13  C   UNL     1       8.790   7.020   5.938  0.00  0.00    +0.122 C 
ATOM     14  C   UNL     1       9.383   7.806   4.770  0.00  0.00    +0.063 C 
ATOM     15  C   UNL     1       8.686   5.538   5.592  0.00  0.00    +0.050 C 
ATOM     16  C   UNL     1      10.030   4.973   5.146  0.00  0.00    +0.111 C 
ATOM     18  C   UNL     1      11.214   5.038   2.985  0.00  0.00    +0.242 C 
ENDROOT
BRANCH  12  17
ATOM      3  O   UNL     1      12.756   6.710   5.255  0.00  0.00    -0.274 OA
ATOM     10  N   UNL     1      11.819   8.823   5.536  0.00  0.00    -0.302 N 
ATOM     17  C   UNL     1      11.867   7.531   5.040  0.00  0.00    +0.234 C 
ATOM     32  H   UNL     1      11.011   9.404   5.329  0.00  0.00    +0.150 HD
BRANCH  10  19
ATOM     19  C   UNL     1      12.840   9.380   6.393  0.00  0.00    +0.163 C 
BRANCH  19  23
ATOM      6  O   UNL     1      12.573  11.258   7.912  0.00  0.00    -0.274 OA
ATOM     11  N   UNL     1      10.911   9.673   7.822  0.00  0.00    -0.328 N 
ATOM     23  C   UNL     1      12.130  10.205   7.457  0.00  0.00    +0.231 C 
ATOM     33  H   UNL     1      10.557   8.805   7.435  0.00  0.00    +0.145 HD
ATOM     34  H   UNL     1      10.329  10.136   8.511  0.00  0.00    +0.145 HD
ENDBRANCH  19  23
BRANCH  19  22
ATOM     22  C   UNL     1      13.836  10.251   5.618  0.00  0.00    +0.074 C 
BRANCH  22  25
ATOM      1  S   UNL     1      15.305   8.830   3.727  0.00  0.00    -0.102 S 
ATOM     25  C   UNL     1      15.113   9.519   5.282  0.00  0.00    -0.008 A 
ATOM     27  C   UNL     1      16.214   9.306   6.082  0.00  0.00    +0.011 A 
ATOM     29  C   UNL     1      17.229   8.566   5.408  0.00  0.00    +0.008 A 
ATOM     30  C   UNL     1      16.865   8.243   4.120  0.00  0.00    +0.045 A 
ENDBRANCH  22  25
ENDBRANCH  19  22
ENDBRANCH  10  19
ENDBRANCH  12  17
BRANCH  13   2
ATOM      2  O   UNL     1       9.600   7.201   7.094  0.00  0.00    -0.372 OA
BRANCH   2  21
ATOM     21  C   UNL     1       8.961   6.703   8.261  0.00  0.00    +0.187 C 
BRANCH  21  24
ATOM     24  C   UNL     1       9.840   5.674   8.888  0.00  0.00    -0.007 C 
ATOM     28  C   UNL     1       9.499   4.389   9.038  0.00  0.00    +0.006 C 
ENDBRANCH  21  24
ENDBRANCH   2  21
ENDBRANCH  13   2
BRANCH  18  20
ATOM     20  C   UNL     1      11.792   5.864   1.862  0.00  0.00    +0.256 C 
BRANCH  20   5
ATOM      5  O   UNL     1      13.159   5.537   1.787  0.00  0.00    -0.359 OA
BRANCH   5  26
ATOM     26  C   UNL     1      13.543   5.141   0.471  0.00  0.00    +0.280 C 
BRANCH  26  31
ATOM      8  O   UNL     1      13.152   3.011  -0.632  0.00  0.00    -0.248 OA
ATOM     31  C   UNL     1      13.494   3.642   0.357  0.00  0.00    +0.331 C 
BRANCH  31   7
ATOM      7  O   UNL     1      13.889   3.071   1.522  0.00  0.00    -0.479 OA
ATOM     35  H   UNL     1      14.505   3.648   2.023  0.00  0.00    +0.295 HD
ENDBRANCH  31   7
ENDBRANCH  26  31
ENDBRANCH   5  26
ENDBRANCH  20   5
ENDBRANCH  18  20
TORSDOF 13
ENDMDL
MODEL 8
REMARK VINA RESULT:      -5.2     15.270     19.131
REMARK  Name = 26763478
REMARK  13 active torsions:
REMARK  status: ('A' for Active; 'I' for Inactive)
REMARK    1  A    between atoms: O_2  and  C_13
REMARK    2  A    between atoms: O_2  and  C_21
REMARK    3  A    between atoms: O_5  and  C_20
REMARK    4  A    between atoms: O_5  and  C_26
REMARK    5  A    between atoms: O_7  and  C_31
REMARK    6  A    between atoms: N_10  and  C_19
REMARK    7  A    between atoms: C_12  and  C_17
REMARK    8  A    between atoms: C_18  and  C_20
REMARK    9  A    between atoms: C_19  and  C_22
REMARK   10  A    between atoms: C_19  and  C_23
REMARK   11  A    between atoms: C_21  and  C_24
REMARK   12  A    between atoms: C_22  and  C_25
REMARK   13  A    between atoms: C_26  and  C_31
REMARK                            x       y       z     vdW  Elec       q    Type
REMARK                         _______ _______ _______ _____ _____    ______ ____
ROOT
ATOM      4  O   UNL     1       8.338   7.663   3.629  0.00  0.00    -0.273 OA
ATOM      9  N   UNL     1      10.190   6.393   3.013  0.00  0.00    -0.288 N 
ATOM     12  C   UNL     1      11.501   5.813   3.345  0.00  0.00    +0.164 C 
ATOM     13  C   UNL     1      11.431   4.539   1.114  0.00  0.00    +0.122 C 
ATOM     14  C   UNL     1      11.803   4.509   2.596  0.00  0.00    +0.063 C 
ATOM     15  C   UNL     1      10.007   5.057   0.928  0.00  0.00    +0.050 C 
ATOM     16  C   UNL     1       9.814   6.413   1.595  0.00  0.00    +0.111 C 
ATOM     18  C   UNL     1       9.369   7.057   3.932  0.00  0.00    +0.242 C 
ENDROOT
BRANCH  12  17
ATOM      3  O   UNL     1      12.279   8.055   3.065  0.00  0.00    -0.274 OA
ATOM     10  N   UNL     1      13.802   6.303   2.884  0.00  0.00    -0.302 N 
ATOM     17  C   UNL     1      12.550   6.857   3.093  0.00  0.00    +0.234 C 
ATOM     32  H   UNL     1      13.904   5.292   2.887  0.00  0.00    +0.150 HD
BRANCH  10  19
ATOM     19  C   UNL     1      14.978   7.092   2.599  0.00  0.00    +0.163 C 
BRANCH  19  23
ATOM      6  O   UNL     1      16.545   6.984   0.744  0.00  0.00    -0.274 OA
ATOM     11  N   UNL     1      15.323   5.108   1.261  0.00  0.00    -0.328 N 
ATOM     23  C   UNL     1      15.694   6.425   1.433  0.00  0.00    +0.231 C 
ATOM     33  H   UNL     1      14.621   4.658   1.840  0.00  0.00    +0.145 HD
ATOM     34  H   UNL     1      15.738   4.544   0.528  0.00  0.00    +0.145 HD
ENDBRANCH  19  23
BRANCH  19  22
ATOM     22  C   UNL     1      15.914   7.196   3.809  0.00  0.00    +0.074 C 
BRANCH  22  25
ATOM      1  S   UNL     1      16.182   9.951   4.110  0.00  0.00    -0.102 S 
ATOM     25  C   UNL     1      15.644   8.420   4.652  0.00  0.00    -0.008 A 
ATOM     27  C   UNL     1      14.992   8.498   5.864  0.00  0.00    +0.011 A 
ATOM     29  C   UNL     1      14.935   9.835   6.354  0.00  0.00    +0.008 A 
ATOM     30  C   UNL     1      15.544  10.726   5.498  0.00  0.00    +0.045 A 
ENDBRANCH  22  25
ENDBRANCH  19  22
ENDBRANCH  10  19
ENDBRANCH  12  17
BRANCH  13   2
ATOM      2  O   UNL     1      12.351   5.365   0.409  0.00  0.00    -0.372 OA
BRANCH   2  21
ATOM     21  C   UNL     1      12.404   5.026  -0.969  0.00  0.00    +0.187 C 
BRANCH  21  24
ATOM     24  C   UNL     1      12.829   3.602  -1.097  0.00  0.00    -0.007 C 
ATOM     28  C   UNL     1      12.242   2.715  -1.908  0.00  0.00    +0.006 C 
ENDBRANCH  21  24
ENDBRANCH   2  21
ENDBRANCH  13   2
BRANCH  18  20
ATOM     20  C   UNL     1       9.788   7.003   5.381  0.00  0.00    +0.256 C 
BRANCH  20   5
ATOM      5  O   UNL     1       8.968   6.041   6.001  0.00  0.00    -0.359 OA
BRANCH   5  26
ATOM     26  C   UNL     1       9.713   4.908   6.444  0.00  0.00    +0.280 C 
BRANCH  26  31
ATOM      8  O   UNL     1       9.328   5.762   8.687  0.00  0.00    -0.248 OA
ATOM     31  C   UNL     1       9.804   4.915   7.945  0.00  0.00    +0.331 C 
BRANCH  31   7
ATOM      7  O   UNL     1      10.498   3.832   8.376  0.00  0.00    -0.479 OA
ATOM     35  H   UNL     1      11.434   4.052   8.577  0.00  0.00    +0.295 HD
ENDBRANCH  31   7
ENDBRANCH  26  31
ENDBRANCH   5  26
ENDBRANCH  20   5
ENDBRANCH  18  20
TORSDOF 13
ENDMDL
MODEL 9
REMARK VINA RESULT:      -5.2     26.722     29.661
REMARK  Name = 26763478
REMARK  13 active torsions:
REMARK  status: ('A' for Active; 'I' for Inactive)
REMARK    1  A    between atoms: O_2  and  C_13
REMARK    2  A    between atoms: O_2  and  C_21
REMARK    3  A    between atoms: O_5  and  C_20
REMARK    4  A    between atoms: O_5  and  C_26
REMARK    5  A    between atoms: O_7  and  C_31
REMARK    6  A    between atoms: N_10  and  C_19
REMARK    7  A    between atoms: C_12  and  C_17
REMARK    8  A    between atoms: C_18  and  C_20
REMARK    9  A    between atoms: C_19  and  C_22
REMARK   10  A    between atoms: C_19  and  C_23
REMARK   11  A    between atoms: C_21  and  C_24
REMARK   12  A    between atoms: C_22  and  C_25
REMARK   13  A    between atoms: C_26  and  C_31
REMARK                            x       y       z     vdW  Elec       q    Type
REMARK                         _______ _______ _______ _____ _____    ______ ____
ROOT
ATOM      4  O   UNL     1      -4.073  -8.774   9.001  0.00  0.00    -0.273 OA
ATOM      9  N   UNL     1      -4.599 -10.194  10.770  0.00  0.00    -0.288 N 
ATOM     12  C   UNL     1      -5.600 -10.954  11.536  0.00  0.00    +0.164 C 
ATOM     13  C   UNL     1      -3.679 -12.005  12.881  0.00  0.00    +0.122 C 
ATOM     14  C   UNL     1      -5.034 -12.211  12.207  0.00  0.00    +0.063 C 
ATOM     15  C   UNL     1      -2.708 -11.308  11.932  0.00  0.00    +0.050 C 
ATOM     16  C   UNL     1      -3.287 -10.003  11.399  0.00  0.00    +0.111 C 
ATOM     18  C   UNL     1      -4.870  -9.523   9.572  0.00  0.00    +0.242 C 
ENDROOT
BRANCH  12  17
ATOM      3  O   UNL     1      -6.199  -8.803  12.389  0.00  0.00    -0.274 OA
ATOM     10  N   UNL     1      -6.794 -10.701  13.600  0.00  0.00    -0.302 N 
ATOM     17  C   UNL     1      -6.227 -10.022  12.534  0.00  0.00    +0.234 C 
ATOM     32  H   UNL     1      -6.720 -11.713  13.639  0.00  0.00    +0.150 HD
BRANCH  10  19
ATOM     19  C   UNL     1      -7.441 -10.034  14.706  0.00  0.00    +0.163 C 
BRANCH  19  23
ATOM      6  O   UNL     1      -6.668 -11.224  16.679  0.00  0.00    -0.274 OA
ATOM     11  N   UNL     1      -5.616  -9.267  16.094  0.00  0.00    -0.328 N 
ATOM     23  C   UNL     1      -6.568 -10.252  15.934  0.00  0.00    +0.231 C 
ATOM     33  H   UNL     1      -5.542  -8.472  15.468  0.00  0.00    +0.145 HD
ATOM     34  H   UNL     1      -4.958  -9.302  16.865  0.00  0.00    +0.145 HD
ENDBRANCH  19  23
BRANCH  19  22
ATOM     22  C   UNL     1      -8.856 -10.569  14.957  0.00  0.00    +0.074 C 
BRANCH  22  25
ATOM      1  S   UNL     1     -10.010  -8.104  15.545  0.00  0.00    -0.102 S 
ATOM     25  C   UNL     1      -9.633  -9.726  15.940  0.00  0.00    -0.008 A 
ATOM     27  C   UNL     1     -10.114 -10.083  17.181  0.00  0.00    +0.011 A 
ATOM     29  C   UNL     1     -10.801  -9.008  17.816  0.00  0.00    +0.008 A 
ATOM     30  C   UNL     1     -10.819  -7.873  17.037  0.00  0.00    +0.045 A 
ENDBRANCH  22  25
ENDBRANCH  19  22
ENDBRANCH  10  19
ENDBRANCH  12  17
BRANCH  13   2
ATOM      2  O   UNL     1      -3.849 -11.234  14.066  0.00  0.00    -0.372 OA
BRANCH   2  21
ATOM     21  C   UNL     1      -3.149 -11.804  15.162  0.00  0.00    +0.187 C 
BRANCH  21  24
ATOM     24  C   UNL     1      -2.387 -10.726  15.858  0.00  0.00    -0.007 C 
ATOM     28  C   UNL     1      -1.107 -10.430  15.603  0.00  0.00    +0.006 C 
ENDBRANCH  21  24
ENDBRANCH   2  21
ENDBRANCH  13   2
BRANCH  18  20
ATOM     20  C   UNL     1      -6.227  -9.756   8.954  0.00  0.00    +0.256 C 
BRANCH  20   5
ATOM      5  O   UNL     1      -6.960  -8.569   9.137  0.00  0.00    -0.359 OA
BRANCH   5  26
ATOM     26  C   UNL     1      -8.013  -8.437   8.183  0.00  0.00    +0.280 C 
BRANCH  26  31
ATOM      8  O   UNL     1      -8.193  -6.014   8.095  0.00  0.00    -0.248 OA
ATOM     31  C   UNL     1      -7.950  -7.077   7.542  0.00  0.00    +0.331 C 
BRANCH  31   7
ATOM      7  O   UNL     1      -7.579  -7.189   6.243  0.00  0.00    -0.479 OA
ATOM     35  H   UNL     1      -8.351  -7.169   5.637  0.00  0.00    +0.295 HD
ENDBRANCH  31   7
ENDBRANCH  26  31
ENDBRANCH   5  26
ENDBRANCH  20   5
ENDBRANCH  18  20
TORSDOF 13
ENDMDL
MODEL 10
REMARK VINA RESULT:      -5.2     12.094     15.266
REMARK  Name = 26763478
REMARK  13 active torsions:
REMARK  status: ('A' for Active; 'I' for Inactive)
REMARK    1  A    between atoms: O_2  and  C_13
REMARK    2  A    between atoms: O_2  and  C_21
REMARK    3  A    between atoms: O_5  and  C_20
REMARK    4  A    between atoms: O_5  and  C_26
REMARK    5  A    between atoms: O_7  and  C_31
REMARK    6  A    between atoms: N_10  and  C_19
REMARK    7  A    between atoms: C_12  and  C_17
REMARK    8  A    between atoms: C_18  and  C_20
REMARK    9  A    between atoms: C_19  and  C_22
REMARK   10  A    between atoms: C_19  and  C_23
REMARK   11  A    between atoms: C_21  and  C_24
REMARK   12  A    between atoms: C_22  and  C_25
REMARK   13  A    between atoms: C_26  and  C_31
REMARK                            x       y       z     vdW  Elec       q    Type
REMARK                         _______ _______ _______ _____ _____    ______ ____
ROOT
ATOM      4  O   UNL     1      10.317   5.542   5.500  0.00  0.00    -0.273 OA
ATOM      9  N   UNL     1      12.068   7.018   5.919  0.00  0.00    -0.288 N 
ATOM     12  C   UNL     1      12.840   7.839   6.865  0.00  0.00    +0.164 C 
ATOM     13  C   UNL     1      14.514   8.327   4.978  0.00  0.00    +0.122 C 
ATOM     14  C   UNL     1      14.307   8.026   6.461  0.00  0.00    +0.063 C 
ATOM     15  C   UNL     1      13.746   7.331   4.115  0.00  0.00    +0.050 C 
ATOM     16  C   UNL     1      12.269   7.287   4.491  0.00  0.00    +0.111 C 
ATOM     18  C   UNL     1      11.057   6.126   6.295  0.00  0.00    +0.242 C 
ENDROOT
BRANCH  12  17
ATOM      3  O   UNL     1      10.988   9.329   6.617  0.00  0.00    -0.274 OA
ATOM     10  N   UNL     1      12.927  10.104   7.647  0.00  0.00    -0.302 N 
ATOM     17  C   UNL     1      12.133   9.155   7.025  0.00  0.00    +0.234 C 
ATOM     32  H   UNL     1      13.879   9.863   7.905  0.00  0.00    +0.150 HD
BRANCH  10  19
ATOM     19  C   UNL     1      12.489  11.457   7.899  0.00  0.00    +0.163 C 
BRANCH  19  23
ATOM      6  O   UNL     1      14.370  12.982   7.685  0.00  0.00    -0.274 OA
ATOM     11  N   UNL     1      13.176  12.439   5.799  0.00  0.00    -0.328 N 
ATOM     23  C   UNL     1      13.439  12.383   7.151  0.00  0.00    +0.231 C 
ATOM     33  H   UNL     1      12.406  11.935   5.371  0.00  0.00    +0.145 HD
ATOM     34  H   UNL     1      13.747  13.007   5.182  0.00  0.00    +0.145 HD
ENDBRANCH  19  23
BRANCH  19  22
ATOM     22  C   UNL     1      12.483  11.796   9.395  0.00  0.00    +0.074 C 
BRANCH  22  25
ATOM      1  S   UNL     1      10.860  12.280  11.604  0.00  0.00    -0.102 S 
ATOM     25  C   UNL     1      11.102  11.731  10.002  0.00  0.00    -0.008 A 
ATOM     27  C   UNL     1       9.936  11.269   9.431  0.00  0.00    +0.011 A 
ATOM     29  C   UNL     1       8.829  11.368  10.323  0.00  0.00    +0.008 A 
ATOM     30  C   UNL     1       9.191  11.901  11.540  0.00  0.00    +0.045 A 
ENDBRANCH  22  25
ENDBRANCH  19  22
ENDBRANCH  10  19
ENDBRANCH  12  17
BRANCH  13   2
ATOM      2  O   UNL     1      14.084   9.655   4.698  0.00  0.00    -0.372 OA
BRANCH   2  21
ATOM     21  C   UNL     1      14.805  10.217   3.612  0.00  0.00    +0.187 C 
BRANCH  21  24
ATOM     24  C   UNL     1      16.260  10.197   3.939  0.00  0.00    -0.007 C 
ATOM     28  C   UNL     1      16.909  11.206   4.531  0.00  0.00    +0.006 C 
ENDBRANCH  21  24
ENDBRANCH   2  21
ENDBRANCH  13   2
BRANCH  18  20
ATOM     20  C   UNL     1      10.891   5.871   7.773  0.00  0.00    +0.256 C 
BRANCH  20   5
ATOM      5  O   UNL     1       9.543   5.517   7.971  0.00  0.00    -0.359 OA
BRANCH   5  26
ATOM     26  C   UNL     1       9.411   4.311   8.722  0.00  0.00    +0.280 C 
BRANCH  26  31
ATOM      8  O   UNL     1      10.480   4.710  10.868  0.00  0.00    -0.248 OA
ATOM     31  C   UNL     1       9.465   4.620  10.193  0.00  0.00    +0.331 C 
BRANCH  31   7
ATOM      7  O   UNL     1       8.212   4.793  10.681  0.00  0.00    -0.479 OA
ATOM     35  H   UNL     1       8.193   5.431  11.427  0.00  0.00    +0.295 HD
ENDBRANCH  31   7
ENDBRANCH  26  31
ENDBRANCH   5  26
ENDBRANCH  20   5
ENDBRANCH  18  20
TORSDOF 13
ENDMDL
