MODEL 1
REMARK VINA RESULT:      -5.7      0.000      0.000
REMARK  Name = 75536935
REMARK  6 active torsions:
REMARK  status: ('A' for Active; 'I' for Inactive)
REMARK    1  A    between atoms: O_2  and  C_6
REMARK    2  A    between atoms: O_2  and  C_14
REMARK    3  A    between atoms: O_3  and  C_17
REMARK    4  A    between atoms: O_3  and  C_18
REMARK    5  A    between atoms: N_4  and  C_8
REMARK    6  A    between atoms: C_8  and  C_11
REMARK                            x       y       z     vdW  Elec       q    Type
REMARK                         _______ _______ _______ _____ _____    ______ ____
ROOT
ATOM      1  O   UNL     1      12.448  10.610  19.934  0.00  0.00    -0.376 OA
ATOM      4  N   UNL     1      13.944   7.964  19.236  0.00  0.00    -0.293 NA
ATOM      5  C   UNL     1      12.638   7.400  19.595  0.00  0.00    +0.118 C 
ATOM      6  C   UNL     1      11.514   8.377  19.970  0.00  0.00    +0.157 C 
ATOM      7  C   UNL     1      13.873   9.214  18.476  0.00  0.00    +0.113 C 
ATOM      9  C   UNL     1      11.971   9.577  20.789  0.00  0.00    +0.192 C 
ATOM     10  C   UNL     1      13.761  10.401  19.434  0.00  0.00    +0.175 C 
ENDROOT
BRANCH   6   2
ATOM      2  O   UNL     1      10.542   7.663  20.737  0.00  0.00    -0.376 OA
ATOM     14  C   UNL     1      11.158   6.723  21.602  0.00  0.00    +0.194 C 
ENDBRANCH   6   2
BRANCH   4   8
ATOM      8  C   UNL     1      14.752   6.961  18.542  0.00  0.00    +0.119 C 
BRANCH   8  11
ATOM     11  C   UNL     1      16.055   6.704  19.250  0.00  0.00    -0.033 A 
ATOM     12  C   UNL     1      16.329   7.340  20.461  0.00  0.00    +0.008 A 
ATOM     13  C   UNL     1      16.989   5.829  18.696  0.00  0.00    +0.008 A 
ATOM     15  C   UNL     1      17.536   7.101  21.118  0.00  0.00    +0.046 A 
ATOM     16  C   UNL     1      18.197   5.590  19.352  0.00  0.00    +0.046 A 
ATOM     17  C   UNL     1      18.470   6.226  20.563  0.00  0.00    +0.120 A 
BRANCH  17   3
ATOM      3  O   UNL     1      19.648   5.993  21.203  0.00  0.00    -0.495 OA
ATOM     18  C   UNL     1      20.742   6.849  20.882  0.00  0.00    +0.277 C 
ENDBRANCH  17   3
ENDBRANCH   8  11
ENDBRANCH   4   8
TORSDOF 4
ENDMDL
MODEL 2
REMARK VINA RESULT:      -5.4      1.681      3.059
REMARK  Name = 75536935
REMARK  6 active torsions:
REMARK  status: ('A' for Active; 'I' for Inactive)
REMARK    1  A    between atoms: O_2  and  C_6
REMARK    2  A    between atoms: O_2  and  C_14
REMARK    3  A    between atoms: O_3  and  C_17
REMARK    4  A    between atoms: O_3  and  C_18
REMARK    5  A    between atoms: N_4  and  C_8
REMARK    6  A    between atoms: C_8  and  C_11
REMARK                            x       y       z     vdW  Elec       q    Type
REMARK                         _______ _______ _______ _____ _____    ______ ____
ROOT
ATOM      1  O   UNL     1      12.001   7.224  18.562  0.00  0.00    -0.376 OA
ATOM      4  N   UNL     1      14.650   8.340  19.772  0.00  0.00    -0.293 NA
ATOM      5  C   UNL     1      14.365   9.416  18.817  0.00  0.00    +0.118 C 
ATOM      6  C   UNL     1      13.068   9.322  17.997  0.00  0.00    +0.157 C 
ATOM      7  C   UNL     1      13.469   7.815  20.460  0.00  0.00    +0.113 C 
ATOM      9  C   UNL     1      12.714   7.913  17.542  0.00  0.00    +0.192 C 
ATOM     10  C   UNL     1      12.814   6.723  19.613  0.00  0.00    +0.175 C 
ENDROOT
BRANCH   6   2
ATOM      2  O   UNL     1      13.218  10.138  16.834  0.00  0.00    -0.376 OA
ATOM     14  C   UNL     1      14.556  10.583  16.686  0.00  0.00    +0.194 C 
ENDBRANCH   6   2
BRANCH   4   8
ATOM      8  C   UNL     1      15.676   8.770  20.722  0.00  0.00    +0.119 C 
BRANCH   8  11
ATOM     11  C   UNL     1      16.900   7.897  20.658  0.00  0.00    -0.033 A 
ATOM     12  C   UNL     1      18.004   8.181  21.463  0.00  0.00    +0.008 A 
ATOM     13  C   UNL     1      16.931   6.802  19.795  0.00  0.00    +0.008 A 
ATOM     15  C   UNL     1      19.138   7.371  21.404  0.00  0.00    +0.046 A 
ATOM     16  C   UNL     1      18.066   5.992  19.736  0.00  0.00    +0.046 A 
ATOM     17  C   UNL     1      19.169   6.277  20.541  0.00  0.00    +0.120 A 
BRANCH  17   3
ATOM      3  O   UNL     1      20.275   5.486  20.483  0.00  0.00    -0.495 OA
ATOM     18  C   UNL     1      21.542   6.135  20.576  0.00  0.00    +0.277 C 
ENDBRANCH  17   3
ENDBRANCH   8  11
ENDBRANCH   4   8
TORSDOF 4
ENDMDL
MODEL 3
REMARK VINA RESULT:      -5.0     25.858     27.254
REMARK  Name = 75536935
REMARK  6 active torsions:
REMARK  status: ('A' for Active; 'I' for Inactive)
REMARK    1  A    between atoms: O_2  and  C_6
REMARK    2  A    between atoms: O_2  and  C_14
REMARK    3  A    between atoms: O_3  and  C_17
REMARK    4  A    between atoms: O_3  and  C_18
REMARK    5  A    between atoms: N_4  and  C_8
REMARK    6  A    between atoms: C_8  and  C_11
REMARK                            x       y       z     vdW  Elec       q    Type
REMARK                         _______ _______ _______ _____ _____    ______ ____
ROOT
ATOM      1  O   UNL     1     -11.103  11.249  15.230  0.00  0.00    -0.376 OA
ATOM      4  N   UNL     1     -10.772   9.846  17.996  0.00  0.00    -0.293 NA
ATOM      5  C   UNL     1     -10.412   8.722  17.126  0.00  0.00    +0.118 C 
ATOM      6  C   UNL     1     -10.377   8.972  15.610  0.00  0.00    +0.157 C 
ATOM      7  C   UNL     1     -10.260  11.143  17.551  0.00  0.00    +0.113 C 
ATOM      9  C   UNL     1     -11.483   9.884  15.098  0.00  0.00    +0.192 C 
ATOM     10  C   UNL     1     -11.228  11.770  16.546  0.00  0.00    +0.175 C 
ENDROOT
BRANCH   6   2
ATOM      2  O   UNL     1     -10.503   7.711  14.950  0.00  0.00    -0.376 OA
ATOM     14  C   UNL     1     -10.515   7.866  13.540  0.00  0.00    +0.194 C 
ENDBRANCH   6   2
BRANCH   4   8
ATOM      8  C   UNL     1     -10.380   9.560  19.376  0.00  0.00    +0.119 C 
BRANCH   8  11
ATOM     11  C   UNL     1     -11.425   8.757  20.102  0.00  0.00    -0.033 A 
ATOM     12  C   UNL     1     -12.560   9.388  20.614  0.00  0.00    +0.008 A 
ATOM     13  C   UNL     1     -11.261   7.382  20.262  0.00  0.00    +0.008 A 
ATOM     15  C   UNL     1     -13.529   8.644  21.285  0.00  0.00    +0.046 A 
ATOM     16  C   UNL     1     -12.231   6.637  20.935  0.00  0.00    +0.046 A 
ATOM     17  C   UNL     1     -13.365   7.268  21.446  0.00  0.00    +0.120 A 
BRANCH  17   3
ATOM      3  O   UNL     1     -14.310   6.542  22.101  0.00  0.00    -0.495 OA
ATOM     18  C   UNL     1     -14.047   5.152  22.288  0.00  0.00    +0.277 C 
ENDBRANCH  17   3
ENDBRANCH   8  11
ENDBRANCH   4   8
TORSDOF 4
ENDMDL
MODEL 4
REMARK VINA RESULT:      -5.0     14.896     16.174
REMARK  Name = 75536935
REMARK  6 active torsions:
REMARK  status: ('A' for Active; 'I' for Inactive)
REMARK    1  A    between atoms: O_2  and  C_6
REMARK    2  A    between atoms: O_2  and  C_14
REMARK    3  A    between atoms: O_3  and  C_17
REMARK    4  A    between atoms: O_3  and  C_18
REMARK    5  A    between atoms: N_4  and  C_8
REMARK    6  A    between atoms: C_8  and  C_11
REMARK                            x       y       z     vdW  Elec       q    Type
REMARK                         _______ _______ _______ _____ _____    ______ ____
ROOT
ATOM      1  O   UNL     1       8.282   7.875   7.314  0.00  0.00    -0.376 OA
ATOM      4  N   UNL     1       9.599   5.564   5.686  0.00  0.00    -0.293 NA
ATOM      5  C   UNL     1       9.891   5.083   7.041  0.00  0.00    +0.118 C 
ATOM      6  C   UNL     1       9.359   5.908   8.224  0.00  0.00    +0.157 C 
ATOM      7  C   UNL     1       8.274   6.165   5.531  0.00  0.00    +0.113 C 
ATOM      9  C   UNL     1       9.428   7.415   8.021  0.00  0.00    +0.192 C 
ATOM     10  C   UNL     1       8.323   7.644   5.913  0.00  0.00    +0.175 C 
ENDROOT
BRANCH   6   2
ATOM      2  O   UNL     1      10.136   5.581   9.377  0.00  0.00    -0.376 OA
ATOM     14  C   UNL     1       9.554   4.512  10.105  0.00  0.00    +0.194 C 
ENDBRANCH   6   2
BRANCH   4   8
ATOM      8  C   UNL     1       9.820   4.493   4.714  0.00  0.00    +0.119 C 
BRANCH   8  11
ATOM     11  C   UNL     1      10.889   4.852   3.717  0.00  0.00    -0.033 A 
ATOM     12  C   UNL     1      11.484   6.113   3.755  0.00  0.00    +0.008 A 
ATOM     13  C   UNL     1      11.285   3.923   2.755  0.00  0.00    +0.008 A 
ATOM     15  C   UNL     1      12.476   6.445   2.832  0.00  0.00    +0.046 A 
ATOM     16  C   UNL     1      12.277   4.256   1.831  0.00  0.00    +0.046 A 
ATOM     17  C   UNL     1      12.872   5.517   1.870  0.00  0.00    +0.120 A 
BRANCH  17   3
ATOM      3  O   UNL     1      13.839   5.840   0.970  0.00  0.00    -0.495 OA
ATOM     18  C   UNL     1      13.606   5.479  -0.391  0.00  0.00    +0.277 C 
ENDBRANCH  17   3
ENDBRANCH   8  11
ENDBRANCH   4   8
TORSDOF 4
ENDMDL
MODEL 5
REMARK VINA RESULT:      -4.9      3.868      6.530
REMARK  Name = 75536935
REMARK  6 active torsions:
REMARK  status: ('A' for Active; 'I' for Inactive)
REMARK    1  A    between atoms: O_2  and  C_6
REMARK    2  A    between atoms: O_2  and  C_14
REMARK    3  A    between atoms: O_3  and  C_17
REMARK    4  A    between atoms: O_3  and  C_18
REMARK    5  A    between atoms: N_4  and  C_8
REMARK    6  A    between atoms: C_8  and  C_11
REMARK                            x       y       z     vdW  Elec       q    Type
REMARK                         _______ _______ _______ _____ _____    ______ ____
ROOT
ATOM      1  O   UNL     1      11.666   6.294  20.248  0.00  0.00    -0.376 OA
ATOM      4  N   UNL     1      12.200   9.355  20.515  0.00  0.00    -0.293 NA
ATOM      5  C   UNL     1      12.915   9.107  19.258  0.00  0.00    +0.118 C 
ATOM      6  C   UNL     1      12.875   7.685  18.679  0.00  0.00    +0.157 C 
ATOM      7  C   UNL     1      10.940   8.622  20.648  0.00  0.00    +0.113 C 
ATOM      9  C   UNL     1      12.957   6.579  19.722  0.00  0.00    +0.192 C 
ATOM     10  C   UNL     1      11.205   7.227  21.215  0.00  0.00    +0.175 C 
ENDROOT
BRANCH   6   2
ATOM      2  O   UNL     1      13.983   7.537  17.789  0.00  0.00    -0.376 OA
ATOM     14  C   UNL     1      13.914   8.467  16.721  0.00  0.00    +0.194 C 
ENDBRANCH   6   2
BRANCH   4   8
ATOM      8  C   UNL     1      12.008  10.792  20.710  0.00  0.00    +0.119 C 
BRANCH   8  11
ATOM     11  C   UNL     1      12.225  11.197  22.143  0.00  0.00    -0.033 A 
ATOM     12  C   UNL     1      11.135  11.526  22.949  0.00  0.00    +0.008 A 
ATOM     13  C   UNL     1      13.517  11.244  22.666  0.00  0.00    +0.008 A 
ATOM     15  C   UNL     1      11.336  11.901  24.277  0.00  0.00    +0.046 A 
ATOM     16  C   UNL     1      13.718  11.620  23.995  0.00  0.00    +0.046 A 
ATOM     17  C   UNL     1      12.628  11.948  24.800  0.00  0.00    +0.120 A 
BRANCH  17   3
ATOM      3  O   UNL     1      12.825  12.314  26.095  0.00  0.00    -0.495 OA
ATOM     18  C   UNL     1      14.070  12.932  26.413  0.00  0.00    +0.277 C 
ENDBRANCH  17   3
ENDBRANCH   8  11
ENDBRANCH   4   8
TORSDOF 4
ENDMDL
MODEL 6
REMARK VINA RESULT:      -4.9     26.223     28.023
REMARK  Name = 75536935
REMARK  6 active torsions:
REMARK  status: ('A' for Active; 'I' for Inactive)
REMARK    1  A    between atoms: O_2  and  C_6
REMARK    2  A    between atoms: O_2  and  C_14
REMARK    3  A    between atoms: O_3  and  C_17
REMARK    4  A    between atoms: O_3  and  C_18
REMARK    5  A    between atoms: N_4  and  C_8
REMARK    6  A    between atoms: C_8  and  C_11
REMARK                            x       y       z     vdW  Elec       q    Type
REMARK                         _______ _______ _______ _____ _____    ______ ____
ROOT
ATOM      1  O   UNL     1      -2.518 -11.536  11.524  0.00  0.00    -0.376 OA
ATOM      4  N   UNL     1      -2.783 -11.309  14.623  0.00  0.00    -0.293 NA
ATOM      5  C   UNL     1      -2.290 -12.688  14.537  0.00  0.00    +0.118 C 
ATOM      6  C   UNL     1      -1.949 -13.241  13.145  0.00  0.00    +0.157 C 
ATOM      7  C   UNL     1      -2.155 -10.383  13.679  0.00  0.00    +0.113 C 
ATOM      9  C   UNL     1      -2.904 -12.804  12.043  0.00  0.00    +0.192 C 
ATOM     10  C   UNL     1      -2.886 -10.431  12.337  0.00  0.00    +0.175 C 
ENDROOT
BRANCH   6   2
ATOM      2  O   UNL     1      -1.978 -14.668  13.215  0.00  0.00    -0.376 OA
ATOM     14  C   UNL     1      -2.588 -15.113  14.416  0.00  0.00    +0.194 C 
ENDBRANCH   6   2
BRANCH   4   8
ATOM      8  C   UNL     1      -2.681 -10.823  16.000  0.00  0.00    +0.119 C 
BRANCH   8  11
ATOM     11  C   UNL     1      -4.032 -10.687  16.648  0.00  0.00    -0.033 A 
ATOM     12  C   UNL     1      -4.283 -11.301  17.876  0.00  0.00    +0.008 A 
ATOM     13  C   UNL     1      -5.034  -9.946  16.022  0.00  0.00    +0.008 A 
ATOM     15  C   UNL     1      -5.535 -11.174  18.477  0.00  0.00    +0.046 A 
ATOM     16  C   UNL     1      -6.287  -9.819  16.624  0.00  0.00    +0.046 A 
ATOM     17  C   UNL     1      -6.537 -10.432  17.851  0.00  0.00    +0.120 A 
BRANCH  17   3
ATOM      3  O   UNL     1      -7.758 -10.308  18.437  0.00  0.00    -0.495 OA
ATOM     18  C   UNL     1      -8.130 -11.310  19.382  0.00  0.00    +0.277 C 
ENDBRANCH  17   3
ENDBRANCH   8  11
ENDBRANCH   4   8
TORSDOF 4
ENDMDL
MODEL 7
REMARK VINA RESULT:      -4.8     15.358     17.127
REMARK  Name = 75536935
REMARK  6 active torsions:
REMARK  status: ('A' for Active; 'I' for Inactive)
REMARK    1  A    between atoms: O_2  and  C_6
REMARK    2  A    between atoms: O_2  and  C_14
REMARK    3  A    between atoms: O_3  and  C_17
REMARK    4  A    between atoms: O_3  and  C_18
REMARK    5  A    between atoms: N_4  and  C_8
REMARK    6  A    between atoms: C_8  and  C_11
REMARK                            x       y       z     vdW  Elec       q    Type
REMARK                         _______ _______ _______ _____ _____    ______ ____
ROOT
ATOM      1  O   UNL     1      12.845   3.149   1.281  0.00  0.00    -0.376 OA
ATOM      4  N   UNL     1      11.854   5.535   3.027  0.00  0.00    -0.293 NA
ATOM      5  C   UNL     1      12.912   6.223   2.279  0.00  0.00    +0.118 C 
ATOM      6  C   UNL     1      13.672   5.422   1.211  0.00  0.00    +0.157 C 
ATOM      7  C   UNL     1      11.074   4.584   2.233  0.00  0.00    +0.113 C 
ATOM      9  C   UNL     1      13.959   3.977   1.595  0.00  0.00    +0.192 C 
ATOM     10  C   UNL     1      11.773   3.225   2.210  0.00  0.00    +0.175 C 
ENDROOT
BRANCH   6   2
ATOM      2  O   UNL     1      14.922   6.073   0.974  0.00  0.00    -0.376 OA
ATOM     14  C   UNL     1      15.284   6.905   2.064  0.00  0.00    +0.194 C 
ENDBRANCH   6   2
BRANCH   4   8
ATOM      8  C   UNL     1      10.992   6.511   3.694  0.00  0.00    +0.119 C 
BRANCH   8  11
ATOM     11  C   UNL     1      10.852   6.224   5.164  0.00  0.00    -0.033 A 
ATOM     12  C   UNL     1       9.764   5.486   5.632  0.00  0.00    +0.008 A 
ATOM     13  C   UNL     1      11.811   6.695   6.061  0.00  0.00    +0.008 A 
ATOM     15  C   UNL     1       9.635   5.219   6.994  0.00  0.00    +0.046 A 
ATOM     16  C   UNL     1      11.682   6.428   7.424  0.00  0.00    +0.046 A 
ATOM     17  C   UNL     1      10.594   5.690   7.891  0.00  0.00    +0.120 A 
BRANCH  17   3
ATOM      3  O   UNL     1      10.469   5.430   9.220  0.00  0.00    -0.495 OA
ATOM     18  C   UNL     1       9.406   4.564   9.615  0.00  0.00    +0.277 C 
ENDBRANCH  17   3
ENDBRANCH   8  11
ENDBRANCH   4   8
TORSDOF 4
ENDMDL
MODEL 8
REMARK VINA RESULT:      -4.7     25.740     28.069
REMARK  Name = 75536935
REMARK  6 active torsions:
REMARK  status: ('A' for Active; 'I' for Inactive)
REMARK    1  A    between atoms: O_2  and  C_6
REMARK    2  A    between atoms: O_2  and  C_14
REMARK    3  A    between atoms: O_3  and  C_17
REMARK    4  A    between atoms: O_3  and  C_18
REMARK    5  A    between atoms: N_4  and  C_8
REMARK    6  A    between atoms: C_8  and  C_11
REMARK                            x       y       z     vdW  Elec       q    Type
REMARK                         _______ _______ _______ _____ _____    ______ ____
ROOT
ATOM      1  O   UNL     1      -7.395 -13.852  17.804  0.00  0.00    -0.376 OA
ATOM      4  N   UNL     1      -5.403 -11.455  17.697  0.00  0.00    -0.293 NA
ATOM      5  C   UNL     1      -6.267 -10.985  18.784  0.00  0.00    +0.118 C 
ATOM      6  C   UNL     1      -7.407 -11.907  19.244  0.00  0.00    +0.157 C 
ATOM      7  C   UNL     1      -5.120 -12.891  17.728  0.00  0.00    +0.113 C 
ATOM      9  C   UNL     1      -8.102 -12.658  18.116  0.00  0.00    +0.192 C 
ATOM     10  C   UNL     1      -6.232 -13.659  17.012  0.00  0.00    +0.175 C 
ENDROOT
BRANCH   6   2
ATOM      2  O   UNL     1      -8.385 -11.106  19.910  0.00  0.00    -0.376 OA
ATOM     14  C   UNL     1      -9.376 -10.646  19.006  0.00  0.00    +0.194 C 
ENDBRANCH   6   2
BRANCH   4   8
ATOM      8  C   UNL     1      -4.171 -10.667  17.656  0.00  0.00    +0.119 C 
BRANCH   8  11
ATOM     11  C   UNL     1      -3.548 -10.670  16.286  0.00  0.00    -0.033 A 
ATOM     12  C   UNL     1      -4.358 -10.669  15.150  0.00  0.00    +0.008 A 
ATOM     13  C   UNL     1      -2.160 -10.674  16.151  0.00  0.00    +0.008 A 
ATOM     15  C   UNL     1      -3.781 -10.672  13.881  0.00  0.00    +0.046 A 
ATOM     16  C   UNL     1      -1.582 -10.677  14.881  0.00  0.00    +0.046 A 
ATOM     17  C   UNL     1      -2.393 -10.676  13.746  0.00  0.00    +0.120 A 
BRANCH  17   3
ATOM      3  O   UNL     1      -1.829 -10.678  12.508  0.00  0.00    -0.495 OA
ATOM     18  C   UNL     1      -2.536 -10.000  11.471  0.00  0.00    +0.277 C 
ENDBRANCH  17   3
ENDBRANCH   8  11
ENDBRANCH   4   8
TORSDOF 4
ENDMDL
MODEL 9
REMARK VINA RESULT:      -4.7     25.670     27.723
REMARK  Name = 75536935
REMARK  6 active torsions:
REMARK  status: ('A' for Active; 'I' for Inactive)
REMARK    1  A    between atoms: O_2  and  C_6
REMARK    2  A    between atoms: O_2  and  C_14
REMARK    3  A    between atoms: O_3  and  C_17
REMARK    4  A    between atoms: O_3  and  C_18
REMARK    5  A    between atoms: N_4  and  C_8
REMARK    6  A    between atoms: C_8  and  C_11
REMARK                            x       y       z     vdW  Elec       q    Type
REMARK                         _______ _______ _______ _____ _____    ______ ____
ROOT
ATOM      1  O   UNL     1     -11.370   9.380  15.993  0.00  0.00    -0.376 OA
ATOM      4  N   UNL     1     -11.554   9.644  19.095  0.00  0.00    -0.293 NA
ATOM      5  C   UNL     1     -10.750  10.838  18.812  0.00  0.00    +0.118 C 
ATOM      6  C   UNL     1     -10.443  11.164  17.342  0.00  0.00    +0.157 C 
ATOM      7  C   UNL     1     -12.620   9.389  18.124  0.00  0.00    +0.113 C 
ATOM      9  C   UNL     1     -10.156   9.945  16.476  0.00  0.00    +0.192 C 
ATOM     10  C   UNL     1     -12.070   8.590  16.943  0.00  0.00    +0.175 C 
ENDROOT
BRANCH   6   2
ATOM      2  O   UNL     1      -9.294  12.012  17.306  0.00  0.00    -0.376 OA
ATOM     14  C   UNL     1      -9.626  13.309  16.837  0.00  0.00    +0.194 C 
ENDBRANCH   6   2
BRANCH   4   8
ATOM      8  C   UNL     1     -12.075   9.700  20.461  0.00  0.00    +0.119 C 
BRANCH   8  11
ATOM     11  C   UNL     1     -12.628   8.373  20.906  0.00  0.00    -0.033 A 
ATOM     12  C   UNL     1     -11.806   7.246  20.927  0.00  0.00    +0.008 A 
ATOM     13  C   UNL     1     -13.963   8.270  21.297  0.00  0.00    +0.008 A 
ATOM     15  C   UNL     1     -12.319   6.016  21.339  0.00  0.00    +0.046 A 
ATOM     16  C   UNL     1     -14.475   7.039  21.709  0.00  0.00    +0.046 A 
ATOM     17  C   UNL     1     -13.653   5.913  21.731  0.00  0.00    +0.120 A 
BRANCH  17   3
ATOM      3  O   UNL     1     -14.153   4.714  22.133  0.00  0.00    -0.495 OA
ATOM     18  C   UNL     1     -14.641   4.629  23.471  0.00  0.00    +0.277 C 
ENDBRANCH  17   3
ENDBRANCH   8  11
ENDBRANCH   4   8
TORSDOF 4
ENDMDL
MODEL 10
REMARK VINA RESULT:      -4.7     26.684     28.230
REMARK  Name = 75536935
REMARK  6 active torsions:
REMARK  status: ('A' for Active; 'I' for Inactive)
REMARK    1  A    between atoms: O_2  and  C_6
REMARK    2  A    between atoms: O_2  and  C_14
REMARK    3  A    between atoms: O_3  and  C_17
REMARK    4  A    between atoms: O_3  and  C_18
REMARK    5  A    between atoms: N_4  and  C_8
REMARK    6  A    between atoms: C_8  and  C_11
REMARK                            x       y       z     vdW  Elec       q    Type
REMARK                         _______ _______ _______ _____ _____    ______ ____
ROOT
ATOM      1  O   UNL     1      -4.037 -13.800  15.495  0.00  0.00    -0.376 OA
ATOM      4  N   UNL     1      -2.964 -11.763  13.391  0.00  0.00    -0.293 NA
ATOM      5  C   UNL     1      -3.224 -10.834  14.496  0.00  0.00    +0.118 C 
ATOM      6  C   UNL     1      -3.730 -11.421  15.822  0.00  0.00    +0.157 C 
ATOM      7  C   UNL     1      -2.400 -13.049  13.803  0.00  0.00    +0.113 C 
ATOM      9  C   UNL     1      -4.723 -12.565  15.665  0.00  0.00    +0.192 C 
ATOM     10  C   UNL     1      -3.523 -14.013  14.188  0.00  0.00    +0.175 C 
ENDROOT
BRANCH   6   2
ATOM      2  O   UNL     1      -4.373 -10.376  16.554  0.00  0.00    -0.376 OA
ATOM     14  C   UNL     1      -5.444  -9.812  15.815  0.00  0.00    +0.194 C 
ENDBRANCH   6   2
BRANCH   4   8
ATOM      8  C   UNL     1      -2.136 -11.115  12.373  0.00  0.00    +0.119 C 
BRANCH   8  11
ATOM     11  C   UNL     1      -2.930 -10.766  11.143  0.00  0.00    -0.033 A 
ATOM     12  C   UNL     1      -3.670 -11.750  10.487  0.00  0.00    +0.008 A 
ATOM     13  C   UNL     1      -2.925  -9.459  10.659  0.00  0.00    +0.008 A 
ATOM     15  C   UNL     1      -4.406 -11.427   9.348  0.00  0.00    +0.046 A 
ATOM     16  C   UNL     1      -3.662  -9.135   9.518  0.00  0.00    +0.046 A 
ATOM     17  C   UNL     1      -4.402 -10.119   8.863  0.00  0.00    +0.120 A 
BRANCH  17   3
ATOM      3  O   UNL     1      -5.120  -9.803   7.752  0.00  0.00    -0.495 OA
ATOM     18  C   UNL     1      -5.177 -10.782   6.715  0.00  0.00    +0.277 C 
ENDBRANCH  17   3
ENDBRANCH   8  11
ENDBRANCH   4   8
TORSDOF 4
ENDMDL
