MODEL 1
REMARK VINA RESULT:      -8.3      0.000      0.000
REMARK  Name = 26743314
REMARK  11 active torsions:
REMARK  status: ('A' for Active; 'I' for Inactive)
REMARK    1  A    between atoms: N_6  and  C_19
REMARK    2  A    between atoms: C_8  and  C_14
REMARK    3  A    between atoms: C_9  and  C_13
REMARK    4  A    between atoms: C_13  and  C_15
REMARK    5  A    between atoms: C_14  and  C_16
REMARK    6  A    between atoms: C_18  and  C_20
REMARK    7  A    between atoms: C_19  and  C_23
REMARK    8  A    between atoms: C_21  and  C_22
REMARK    9  A    between atoms: C_21  and  C_28
REMARK   10  A    between atoms: C_21  and  C_29
REMARK   11  A    between atoms: C_21  and  C_30
REMARK                            x       y       z     vdW  Elec       q    Type
REMARK                         _______ _______ _______ _____ _____    ______ ____
ROOT
ATOM      5  N   UNL     1      11.679   9.031  22.973  0.00  0.00    -0.316 NA
ATOM      8  C   UNL     1      11.949   7.733  20.337  0.00  0.00    +0.004 C 
ATOM      9  C   UNL     1      13.136   8.411  21.060  0.00  0.00    +0.012 C 
ATOM     10  C   UNL     1      10.900   7.311  21.380  0.00  0.00    +0.019 C 
ATOM     11  C   UNL     1      12.663   9.526  22.008  0.00  0.00    +0.085 C 
ATOM     12  C   UNL     1      10.509   8.458  22.312  0.00  0.00    +0.081 C 
ATOM     37  H   UNL     1      11.384   9.798  23.577  0.00  0.00    +0.122 HD
ENDROOT
BRANCH   9  13
ATOM     13  C   UNL     1      14.200   8.942  20.098  0.00  0.00    +0.064 C 
BRANCH  13  15
ATOM      1  O   UNL     1      16.663   6.434  19.317  0.00  0.00    -0.354 OA
ATOM      7  N   UNL     1      15.462   7.092  19.084  0.00  0.00    -0.083 NA
ATOM     15  C   UNL     1      15.388   8.025  20.038  0.00  0.00    +0.085 A 
ATOM     17  C   UNL     1      16.505   8.005  20.891  0.00  0.00    +0.076 A 
ATOM     18  C   UNL     1      17.276   6.987  20.394  0.00  0.00    +0.167 A 
BRANCH  18  20
ATOM     20  C   UNL     1      18.536   6.409  20.757  0.00  0.00    +0.020 A 
ATOM     22  C   UNL     1      20.989   5.282  21.464  0.00  0.00    -0.042 A 
ATOM     24  C   UNL     1      19.204   6.850  21.901  0.00  0.00    +0.012 A 
ATOM     25  C   UNL     1      19.096   5.403  19.968  0.00  0.00    +0.012 A 
ATOM     26  C   UNL     1      20.429   6.286  22.254  0.00  0.00    +0.005 A 
ATOM     27  C   UNL     1      20.322   4.841  20.322  0.00  0.00    +0.005 A 
BRANCH  22  21
ATOM     21  C   UNL     1      22.300   4.680  21.843  0.00  0.00    -0.013 C 
ATOM     28  C   UNL     1      23.529   5.168  21.007  0.00  0.00    +0.015 C 
ATOM     29  C   UNL     1      22.278   3.129  21.682  0.00  0.00    +0.015 C 
ATOM     30  C   UNL     1      22.658   4.994  23.329  0.00  0.00    +0.015 C 
ENDBRANCH  22  21
ENDBRANCH  18  20
ENDBRANCH  13  15
ENDBRANCH   9  13
BRANCH   8  14
ATOM     14  C   UNL     1      11.310   8.595  19.241  0.00  0.00    +0.099 C 
BRANCH  14  16
ATOM      2  O   UNL     1      12.138   7.259  17.403  0.00  0.00    -0.276 OA
ATOM      6  N   UNL     1      12.293   9.574  17.290  0.00  0.00    -0.311 N 
ATOM     16  C   UNL     1      11.952   8.371  17.888  0.00  0.00    +0.214 C 
ATOM     38  H   UNL     1      12.054  10.445  17.759  0.00  0.00    +0.149 HD
BRANCH   6  19
ATOM     19  C   UNL     1      12.924   9.661  15.992  0.00  0.00    +0.139 C 
BRANCH  19  23
ATOM      3  O   UNL     1      16.842  11.826  13.892  0.00  0.00    -0.453 OA
ATOM      4  O   UNL     1      17.463  12.949  15.931  0.00  0.00    -0.453 OA
ATOM     23  C   UNL     1      14.135  10.547  16.013  0.00  0.00    -0.027 A 
ATOM     31  C   UNL     1      14.889  10.718  14.849  0.00  0.00    +0.054 A 
ATOM     32  C   UNL     1      14.497  11.203  17.203  0.00  0.00    +0.009 A 
ATOM     33  C   UNL     1      15.992  11.544  14.916  0.00  0.00    +0.167 A 
ATOM     34  C   UNL     1      15.619  12.034  17.244  0.00  0.00    +0.050 A 
ATOM     35  C   UNL     1      16.347  12.185  16.082  0.00  0.00    +0.166 A 
ATOM     36  C   UNL     1      17.771  12.718  14.541  0.00  0.00    +0.466 C 
ENDBRANCH  19  23
ENDBRANCH   6  19
ENDBRANCH  14  16
ENDBRANCH   8  14
TORSDOF 8
ENDMDL
MODEL 2
REMARK VINA RESULT:      -8.2      3.243      5.788
REMARK  Name = 26743314
REMARK  11 active torsions:
REMARK  status: ('A' for Active; 'I' for Inactive)
REMARK    1  A    between atoms: N_6  and  C_19
REMARK    2  A    between atoms: C_8  and  C_14
REMARK    3  A    between atoms: C_9  and  C_13
REMARK    4  A    between atoms: C_13  and  C_15
REMARK    5  A    between atoms: C_14  and  C_16
REMARK    6  A    between atoms: C_18  and  C_20
REMARK    7  A    between atoms: C_19  and  C_23
REMARK    8  A    between atoms: C_21  and  C_22
REMARK    9  A    between atoms: C_21  and  C_28
REMARK   10  A    between atoms: C_21  and  C_29
REMARK   11  A    between atoms: C_21  and  C_30
REMARK                            x       y       z     vdW  Elec       q    Type
REMARK                         _______ _______ _______ _____ _____    ______ ____
ROOT
ATOM      5  N   UNL     1      14.239   8.953  15.814  0.00  0.00    -0.316 NA
ATOM      8  C   UNL     1      13.199   9.210  18.564  0.00  0.00    +0.004 C 
ATOM      9  C   UNL     1      14.334   8.229  18.188  0.00  0.00    +0.012 C 
ATOM     10  C   UNL     1      13.169  10.359  17.541  0.00  0.00    +0.019 C 
ATOM     11  C   UNL     1      14.248   7.798  16.714  0.00  0.00    +0.085 C 
ATOM     12  C   UNL     1      13.126   9.855  16.099  0.00  0.00    +0.081 C 
ATOM     37  H   UNL     1      14.173   8.629  14.850  0.00  0.00    +0.122 HD
ENDROOT
BRANCH   9  13
ATOM     13  C   UNL     1      14.394   7.004  19.102  0.00  0.00    +0.064 C 
BRANCH  13  15
ATOM      1  O   UNL     1      17.720   5.625  19.040  0.00  0.00    -0.354 OA
ATOM      7  N   UNL     1      16.456   5.811  18.495  0.00  0.00    -0.083 NA
ATOM     15  C   UNL     1      15.813   6.591  19.369  0.00  0.00    +0.085 A 
ATOM     17  C   UNL     1      16.614   6.927  20.474  0.00  0.00    +0.076 A 
ATOM     18  C   UNL     1      17.803   6.295  20.218  0.00  0.00    +0.167 A 
BRANCH  18  20
ATOM     20  C   UNL     1      19.059   6.195  20.902  0.00  0.00    +0.020 A 
ATOM     22  C   UNL     1      21.503   6.001  22.234  0.00  0.00    -0.042 A 
ATOM     24  C   UNL     1      19.292   6.957  22.048  0.00  0.00    +0.012 A 
ATOM     25  C   UNL     1      20.049   5.336  20.423  0.00  0.00    +0.012 A 
ATOM     26  C   UNL     1      20.514   6.860  22.713  0.00  0.00    +0.005 A 
ATOM     27  C   UNL     1      21.270   5.240  21.089  0.00  0.00    +0.005 A 
BRANCH  22  21
ATOM     21  C   UNL     1      22.809   5.898  22.947  0.00  0.00    -0.013 C 
ATOM     28  C   UNL     1      24.065   5.743  22.027  0.00  0.00    +0.015 C 
ATOM     29  C   UNL     1      22.838   4.664  23.899  0.00  0.00    +0.015 C 
ATOM     30  C   UNL     1      23.083   7.167  23.811  0.00  0.00    +0.015 C 
ENDBRANCH  22  21
ENDBRANCH  18  20
ENDBRANCH  13  15
ENDBRANCH   9  13
BRANCH   8  14
ATOM     14  C   UNL     1      11.819   8.552  18.685  0.00  0.00    +0.099 C 
BRANCH  14  16
ATOM      2  O   UNL     1      10.488   7.659  20.495  0.00  0.00    -0.276 OA
ATOM      6  N   UNL     1      12.061   9.309  20.943  0.00  0.00    -0.311 N 
ATOM     16  C   UNL     1      11.364   8.434  20.123  0.00  0.00    +0.214 C 
ATOM     38  H   UNL     1      12.801   9.879  20.541  0.00  0.00    +0.149 HD
BRANCH   6  19
ATOM     19  C   UNL     1      11.831   9.411  22.366  0.00  0.00    +0.139 C 
BRANCH  19  23
ATOM      3  O   UNL     1      10.485  12.820  25.685  0.00  0.00    -0.453 OA
ATOM      4  O   UNL     1      10.438  14.577  24.037  0.00  0.00    -0.453 OA
ATOM     23  C   UNL     1      11.461  10.805  22.778  0.00  0.00    -0.027 A 
ATOM     31  C   UNL     1      11.149  11.075  24.113  0.00  0.00    +0.054 A 
ATOM     32  C   UNL     1      11.434  11.831  21.816  0.00  0.00    +0.009 A 
ATOM     33  C   UNL     1      10.817  12.373  24.444  0.00  0.00    +0.167 A 
ATOM     34  C   UNL     1      11.094  13.136  22.178  0.00  0.00    +0.050 A 
ATOM     35  C   UNL     1      10.790  13.376  23.502  0.00  0.00    +0.166 A 
ATOM     36  C   UNL     1      10.247  14.217  25.420  0.00  0.00    +0.466 C 
ENDBRANCH  19  23
ENDBRANCH   6  19
ENDBRANCH  14  16
ENDBRANCH   8  14
TORSDOF 8
ENDMDL
MODEL 3
REMARK VINA RESULT:      -8.1      4.986      8.254
REMARK  Name = 26743314
REMARK  11 active torsions:
REMARK  status: ('A' for Active; 'I' for Inactive)
REMARK    1  A    between atoms: N_6  and  C_19
REMARK    2  A    between atoms: C_8  and  C_14
REMARK    3  A    between atoms: C_9  and  C_13
REMARK    4  A    between atoms: C_13  and  C_15
REMARK    5  A    between atoms: C_14  and  C_16
REMARK    6  A    between atoms: C_18  and  C_20
REMARK    7  A    between atoms: C_19  and  C_23
REMARK    8  A    between atoms: C_21  and  C_22
REMARK    9  A    between atoms: C_21  and  C_28
REMARK   10  A    between atoms: C_21  and  C_29
REMARK   11  A    between atoms: C_21  and  C_30
REMARK                            x       y       z     vdW  Elec       q    Type
REMARK                         _______ _______ _______ _____ _____    ______ ____
ROOT
ATOM      5  N   UNL     1      12.763   8.839  15.575  0.00  0.00    -0.316 NA
ATOM      8  C   UNL     1      12.428   8.689  18.503  0.00  0.00    +0.004 C 
ATOM      9  C   UNL     1      13.784   9.014  17.832  0.00  0.00    +0.012 C 
ATOM     10  C   UNL     1      11.288   9.070  17.544  0.00  0.00    +0.019 C 
ATOM     11  C   UNL     1      13.878   8.411  16.421  0.00  0.00    +0.085 C 
ATOM     12  C   UNL     1      11.472   8.469  16.151  0.00  0.00    +0.081 C 
ATOM     37  H   UNL     1      12.856   8.414  14.653  0.00  0.00    +0.122 HD
ENDROOT
BRANCH   9  13
ATOM     13  C   UNL     1      14.987   8.594  18.677  0.00  0.00    +0.064 C 
BRANCH  13  15
ATOM      1  O   UNL     1      14.809   9.186  22.225  0.00  0.00    -0.354 OA
ATOM      7  N   UNL     1      14.887   8.346  21.121  0.00  0.00    -0.083 NA
ATOM     15  C   UNL     1      14.907   9.164  20.064  0.00  0.00    +0.085 A 
ATOM     17  C   UNL     1      14.847  10.518  20.437  0.00  0.00    +0.076 A 
ATOM     18  C   UNL     1      14.787  10.476  21.805  0.00  0.00    +0.167 A 
BRANCH  18  20
ATOM     20  C   UNL     1      14.708  11.465  22.840  0.00  0.00    +0.020 A 
ATOM     22  C   UNL     1      14.557  13.390  24.855  0.00  0.00    -0.042 A 
ATOM     24  C   UNL     1      14.500  11.076  24.164  0.00  0.00    +0.012 A 
ATOM     25  C   UNL     1      14.841  12.818  22.525  0.00  0.00    +0.012 A 
ATOM     26  C   UNL     1      14.425  12.038  25.171  0.00  0.00    +0.005 A 
ATOM     27  C   UNL     1      14.765  13.780  23.532  0.00  0.00    +0.005 A 
BRANCH  22  21
ATOM     21  C   UNL     1      14.477  14.418  25.932  0.00  0.00    -0.013 C 
ATOM     28  C   UNL     1      13.964  13.900  27.317  0.00  0.00    +0.015 C 
ATOM     29  C   UNL     1      13.510  15.576  25.539  0.00  0.00    +0.015 C 
ATOM     30  C   UNL     1      15.875  15.048  26.217  0.00  0.00    +0.015 C 
ENDBRANCH  22  21
ENDBRANCH  18  20
ENDBRANCH  13  15
ENDBRANCH   9  13
BRANCH   8  14
ATOM     14  C   UNL     1      12.291   7.230  18.958  0.00  0.00    +0.099 C 
BRANCH  14  16
ATOM      2  O   UNL     1      11.289   6.066  20.826  0.00  0.00    -0.276 OA
ATOM      6  N   UNL     1      11.729   8.341  21.003  0.00  0.00    -0.311 N 
ATOM     16  C   UNL     1      11.713   7.116  20.352  0.00  0.00    +0.214 C 
ATOM     38  H   UNL     1      12.145   9.143  20.536  0.00  0.00    +0.149 HD
BRANCH   6  19
ATOM     19  C   UNL     1      11.236   8.527  22.348  0.00  0.00    +0.139 C 
BRANCH  19  23
ATOM      3  O   UNL     1      10.570  12.239  25.548  0.00  0.00    -0.453 OA
ATOM      4  O   UNL     1      10.786  13.915  23.831  0.00  0.00    -0.453 OA
ATOM     23  C   UNL     1      11.119   9.979  22.709  0.00  0.00    -0.027 A 
ATOM     31  C   UNL     1      10.890  10.348  24.038  0.00  0.00    +0.054 A 
ATOM     32  C   UNL     1      11.245  10.958  21.707  0.00  0.00    +0.009 A 
ATOM     33  C   UNL     1      10.792  11.695  24.321  0.00  0.00    +0.167 A 
ATOM     34  C   UNL     1      11.142  12.315  22.021  0.00  0.00    +0.050 A 
ATOM     35  C   UNL     1      10.915  12.652  23.339  0.00  0.00    +0.166 A 
ATOM     36  C   UNL     1      10.568  13.645  25.230  0.00  0.00    +0.466 C 
ENDBRANCH  19  23
ENDBRANCH   6  19
ENDBRANCH  14  16
ENDBRANCH   8  14
TORSDOF 8
ENDMDL
MODEL 4
REMARK VINA RESULT:      -7.6      1.976      2.565
REMARK  Name = 26743314
REMARK  11 active torsions:
REMARK  status: ('A' for Active; 'I' for Inactive)
REMARK    1  A    between atoms: N_6  and  C_19
REMARK    2  A    between atoms: C_8  and  C_14
REMARK    3  A    between atoms: C_9  and  C_13
REMARK    4  A    between atoms: C_13  and  C_15
REMARK    5  A    between atoms: C_14  and  C_16
REMARK    6  A    between atoms: C_18  and  C_20
REMARK    7  A    between atoms: C_19  and  C_23
REMARK    8  A    between atoms: C_21  and  C_22
REMARK    9  A    between atoms: C_21  and  C_28
REMARK   10  A    between atoms: C_21  and  C_29
REMARK   11  A    between atoms: C_21  and  C_30
REMARK                            x       y       z     vdW  Elec       q    Type
REMARK                         _______ _______ _______ _____ _____    ______ ____
ROOT
ATOM      5  N   UNL     1      12.048   6.103  21.221  0.00  0.00    -0.316 NA
ATOM      8  C   UNL     1      11.890   8.929  20.386  0.00  0.00    +0.004 C 
ATOM      9  C   UNL     1      13.043   7.993  19.953  0.00  0.00    +0.012 C 
ATOM     10  C   UNL     1      10.653   8.080  20.722  0.00  0.00    +0.019 C 
ATOM     11  C   UNL     1      13.273   6.866  20.974  0.00  0.00    +0.085 C 
ATOM     12  C   UNL     1      10.967   6.956  21.709  0.00  0.00    +0.081 C 
ATOM     37  H   UNL     1      12.239   5.373  21.907  0.00  0.00    +0.122 HD
ENDROOT
BRANCH   9  13
ATOM     13  C   UNL     1      14.349   8.739  19.675  0.00  0.00    +0.064 C 
BRANCH  13  15
ATOM      1  O   UNL     1      16.809   6.148  19.227  0.00  0.00    -0.354 OA
ATOM      7  N   UNL     1      15.617   6.783  18.898  0.00  0.00    -0.083 NA
ATOM     15  C   UNL     1      15.531   7.816  19.741  0.00  0.00    +0.085 A 
ATOM     17  C   UNL     1      16.629   7.883  20.616  0.00  0.00    +0.076 A 
ATOM     18  C   UNL     1      17.402   6.813  20.251  0.00  0.00    +0.167 A 
BRANCH  18  20
ATOM     20  C   UNL     1      18.651   6.271  20.702  0.00  0.00    +0.020 A 
ATOM     22  C   UNL     1      21.079   5.216  21.582  0.00  0.00    -0.042 A 
ATOM     24  C   UNL     1      19.240   6.755  21.871  0.00  0.00    +0.012 A 
ATOM     25  C   UNL     1      19.276   5.259  19.974  0.00  0.00    +0.012 A 
ATOM     26  C   UNL     1      20.454   6.228  22.310  0.00  0.00    +0.005 A 
ATOM     27  C   UNL     1      20.491   4.732  20.414  0.00  0.00    +0.005 A 
BRANCH  22  21
ATOM     21  C   UNL     1      22.377   4.652  22.053  0.00  0.00    -0.013 C 
ATOM     28  C   UNL     1      22.301   3.215  22.666  0.00  0.00    +0.015 C 
ATOM     29  C   UNL     1      23.013   5.544  23.162  0.00  0.00    +0.015 C 
ATOM     30  C   UNL     1      23.405   4.549  20.884  0.00  0.00    +0.015 C 
ENDBRANCH  22  21
ENDBRANCH  18  20
ENDBRANCH  13  15
ENDBRANCH   9  13
BRANCH   8  14
ATOM     14  C   UNL     1      12.245   9.859  21.553  0.00  0.00    +0.099 C 
BRANCH  14  16
ATOM      2  O   UNL     1      11.145  12.009  21.687  0.00  0.00    -0.276 OA
ATOM      6  N   UNL     1      12.982  11.753  20.287  0.00  0.00    -0.311 N 
ATOM     16  C   UNL     1      12.039  11.318  21.206  0.00  0.00    +0.214 C 
ATOM     38  H   UNL     1      13.710  11.111  19.984  0.00  0.00    +0.149 HD
BRANCH   6  19
ATOM     19  C   UNL     1      13.022  13.104  19.776  0.00  0.00    +0.139 C 
BRANCH  19  23
ATOM      3  O   UNL     1      15.068  11.090  15.749  0.00  0.00    -0.453 OA
ATOM      4  O   UNL     1      15.006  13.169  14.533  0.00  0.00    -0.453 OA
ATOM     23  C   UNL     1      13.547  13.159  18.371  0.00  0.00    -0.027 A 
ATOM     31  C   UNL     1      14.063  12.003  17.777  0.00  0.00    +0.054 A 
ATOM     32  C   UNL     1      13.511  14.372  17.660  0.00  0.00    +0.009 A 
ATOM     33  C   UNL     1      14.531  12.102  16.483  0.00  0.00    +0.167 A 
ATOM     34  C   UNL     1      13.991  14.445  16.352  0.00  0.00    +0.050 A 
ATOM     35  C   UNL     1      14.496  13.290  15.789  0.00  0.00    +0.166 A 
ATOM     36  C   UNL     1      15.365  11.773  14.514  0.00  0.00    +0.466 C 
ENDBRANCH  19  23
ENDBRANCH   6  19
ENDBRANCH  14  16
ENDBRANCH   8  14
TORSDOF 8
ENDMDL
MODEL 5
REMARK VINA RESULT:      -7.3      2.951      4.232
REMARK  Name = 26743314
REMARK  11 active torsions:
REMARK  status: ('A' for Active; 'I' for Inactive)
REMARK    1  A    between atoms: N_6  and  C_19
REMARK    2  A    between atoms: C_8  and  C_14
REMARK    3  A    between atoms: C_9  and  C_13
REMARK    4  A    between atoms: C_13  and  C_15
REMARK    5  A    between atoms: C_14  and  C_16
REMARK    6  A    between atoms: C_18  and  C_20
REMARK    7  A    between atoms: C_19  and  C_23
REMARK    8  A    between atoms: C_21  and  C_22
REMARK    9  A    between atoms: C_21  and  C_28
REMARK   10  A    between atoms: C_21  and  C_29
REMARK   11  A    between atoms: C_21  and  C_30
REMARK                            x       y       z     vdW  Elec       q    Type
REMARK                         _______ _______ _______ _____ _____    ______ ____
ROOT
ATOM      5  N   UNL     1      11.641   5.908  20.555  0.00  0.00    -0.316 NA
ATOM      8  C   UNL     1      11.809   8.855  20.568  0.00  0.00    +0.004 C 
ATOM      9  C   UNL     1      12.560   7.979  19.538  0.00  0.00    +0.012 C 
ATOM     10  C   UNL     1      10.589   8.078  21.093  0.00  0.00    +0.019 C 
ATOM     11  C   UNL     1      12.859   6.576  20.094  0.00  0.00    +0.085 C 
ATOM     12  C   UNL     1      10.956   6.680  21.589  0.00  0.00    +0.081 C 
ATOM     37  H   UNL     1      11.880   4.988  20.923  0.00  0.00    +0.122 HD
ENDROOT
BRANCH   9  13
ATOM     13  C   UNL     1      13.840   8.633  19.015  0.00  0.00    +0.064 C 
BRANCH  13  15
ATOM      1  O   UNL     1      16.298   6.005  18.880  0.00  0.00    -0.354 OA
ATOM      7  N   UNL     1      15.099   6.589  18.489  0.00  0.00    -0.083 NA
ATOM     15  C   UNL     1      15.025   7.727  19.186  0.00  0.00    +0.085 A 
ATOM     17  C   UNL     1      16.138   7.913  20.023  0.00  0.00    +0.076 A 
ATOM     18  C   UNL     1      16.908   6.803  19.793  0.00  0.00    +0.167 A 
BRANCH  18  20
ATOM     20  C   UNL     1      18.165   6.327  20.292  0.00  0.00    +0.020 A 
ATOM     22  C   UNL     1      20.612   5.403  21.263  0.00  0.00    -0.042 A 
ATOM     24  C   UNL     1      18.769   5.210  19.714  0.00  0.00    +0.012 A 
ATOM     25  C   UNL     1      18.786   6.982  21.356  0.00  0.00    +0.012 A 
ATOM     26  C   UNL     1      19.992   4.749  20.199  0.00  0.00    +0.005 A 
ATOM     27  C   UNL     1      20.009   6.519  21.842  0.00  0.00    +0.005 A 
BRANCH  22  21
ATOM     21  C   UNL     1      21.921   4.909  21.781  0.00  0.00    -0.013 C 
ATOM     28  C   UNL     1      22.085   3.354  21.814  0.00  0.00    +0.015 C 
ATOM     29  C   UNL     1      22.166   5.384  23.245  0.00  0.00    +0.015 C 
ATOM     30  C   UNL     1      23.106   5.432  20.911  0.00  0.00    +0.015 C 
ENDBRANCH  22  21
ENDBRANCH  18  20
ENDBRANCH  13  15
ENDBRANCH   9  13
BRANCH   8  14
ATOM     14  C   UNL     1      12.684   9.342  21.730  0.00  0.00    +0.099 C 
BRANCH  14  16
ATOM      2  O   UNL     1      12.495  11.716  21.312  0.00  0.00    -0.276 OA
ATOM      6  N   UNL     1      14.602  10.761  21.531  0.00  0.00    -0.311 N 
ATOM     16  C   UNL     1      13.215  10.740  21.500  0.00  0.00    +0.214 C 
ATOM     38  H   UNL     1      15.105   9.903  21.740  0.00  0.00    +0.149 HD
BRANCH   6  19
ATOM     19  C   UNL     1      15.378  11.966  21.340  0.00  0.00    +0.139 C 
BRANCH  19  23
ATOM      3  O   UNL     1      19.688  10.059  22.834  0.00  0.00    -0.453 OA
ATOM      4  O   UNL     1      20.838  10.798  20.851  0.00  0.00    -0.453 OA
ATOM     23  C   UNL     1      16.840  11.673  21.176  0.00  0.00    -0.027 A 
ATOM     31  C   UNL     1      17.523  10.969  22.173  0.00  0.00    +0.054 A 
ATOM     32  C   UNL     1      17.512  12.104  20.019  0.00  0.00    +0.009 A 
ATOM     33  C   UNL     1      18.866  10.722  21.977  0.00  0.00    +0.167 A 
ATOM     34  C   UNL     1      18.872  11.840  19.845  0.00  0.00    +0.050 A 
ATOM     35  C   UNL     1      19.522  11.145  20.844  0.00  0.00    +0.166 A 
ATOM     36  C   UNL     1      20.937  10.110  22.114  0.00  0.00    +0.466 C 
ENDBRANCH  19  23
ENDBRANCH   6  19
ENDBRANCH  14  16
ENDBRANCH   8  14
TORSDOF 8
ENDMDL
MODEL 6
REMARK VINA RESULT:      -7.2      3.877      6.254
REMARK  Name = 26743314
REMARK  11 active torsions:
REMARK  status: ('A' for Active; 'I' for Inactive)
REMARK    1  A    between atoms: N_6  and  C_19
REMARK    2  A    between atoms: C_8  and  C_14
REMARK    3  A    between atoms: C_9  and  C_13
REMARK    4  A    between atoms: C_13  and  C_15
REMARK    5  A    between atoms: C_14  and  C_16
REMARK    6  A    between atoms: C_18  and  C_20
REMARK    7  A    between atoms: C_19  and  C_23
REMARK    8  A    between atoms: C_21  and  C_22
REMARK    9  A    between atoms: C_21  and  C_28
REMARK   10  A    between atoms: C_21  and  C_29
REMARK   11  A    between atoms: C_21  and  C_30
REMARK                            x       y       z     vdW  Elec       q    Type
REMARK                         _______ _______ _______ _____ _____    ______ ____
ROOT
ATOM      5  N   UNL     1      13.746  12.072  18.304  0.00  0.00    -0.316 NA
ATOM      8  C   UNL     1      13.267  10.257  20.582  0.00  0.00    +0.004 C 
ATOM      9  C   UNL     1      13.917   9.786  19.260  0.00  0.00    +0.012 C 
ATOM     10  C   UNL     1      13.498  11.770  20.744  0.00  0.00    +0.019 C 
ATOM     11  C   UNL     1      13.475  10.653  18.069  0.00  0.00    +0.085 C 
ATOM     12  C   UNL     1      13.074  12.560  19.507  0.00  0.00    +0.081 C 
ATOM     37  H   UNL     1      13.433  12.613  17.499  0.00  0.00    +0.122 HD
ENDROOT
BRANCH   9  13
ATOM     13  C   UNL     1      13.671   8.305  18.966  0.00  0.00    +0.064 C 
BRANCH  13  15
ATOM      1  O   UNL     1      16.397   5.968  18.694  0.00  0.00    -0.354 OA
ATOM      7  N   UNL     1      15.171   6.481  18.286  0.00  0.00    -0.083 NA
ATOM     15  C   UNL     1      14.931   7.502  19.114  0.00  0.00    +0.085 A 
ATOM     17  C   UNL     1      15.961   7.680  20.054  0.00  0.00    +0.076 A 
ATOM     18  C   UNL     1      16.857   6.690  19.746  0.00  0.00    +0.167 A 
BRANCH  18  20
ATOM     20  C   UNL     1      18.122   6.275  20.279  0.00  0.00    +0.020 A 
ATOM     22  C   UNL     1      20.584   5.469  21.315  0.00  0.00    -0.042 A 
ATOM     24  C   UNL     1      18.793   5.188  19.719  0.00  0.00    +0.012 A 
ATOM     25  C   UNL     1      18.683   6.960  21.358  0.00  0.00    +0.012 A 
ATOM     26  C   UNL     1      20.023   4.785  20.237  0.00  0.00    +0.005 A 
ATOM     27  C   UNL     1      19.914   6.556  21.876  0.00  0.00    +0.005 A 
BRANCH  22  21
ATOM     21  C   UNL     1      21.900   5.038  21.868  0.00  0.00    -0.013 C 
ATOM     28  C   UNL     1      22.148   5.401  23.370  0.00  0.00    +0.015 C 
ATOM     29  C   UNL     1      23.083   5.684  21.084  0.00  0.00    +0.015 C 
ATOM     30  C   UNL     1      22.069   3.489  21.783  0.00  0.00    +0.015 C 
ENDBRANCH  22  21
ENDBRANCH  18  20
ENDBRANCH  13  15
ENDBRANCH   9  13
BRANCH   8  14
ATOM     14  C   UNL     1      11.776   9.919  20.701  0.00  0.00    +0.099 C 
BRANCH  14  16
ATOM      2  O   UNL     1      11.297   8.660  22.709  0.00  0.00    -0.276 OA
ATOM      6  N   UNL     1      10.999  10.964  22.709  0.00  0.00    -0.311 N 
ATOM     16  C   UNL     1      11.339   9.746  22.139  0.00  0.00    +0.214 C 
ATOM     38  H   UNL     1      11.112  11.814  22.163  0.00  0.00    +0.149 HD
BRANCH   6  19
ATOM     19  C   UNL     1      10.545  11.098  24.075  0.00  0.00    +0.139 C 
BRANCH  19  23
ATOM      3  O   UNL     1      14.634  13.341  25.718  0.00  0.00    -0.453 OA
ATOM      4  O   UNL     1      13.383  15.114  26.765  0.00  0.00    -0.453 OA
ATOM     23  C   UNL     1      11.272  12.188  24.805  0.00  0.00    -0.027 A 
ATOM     31  C   UNL     1      12.668  12.170  24.869  0.00  0.00    +0.054 A 
ATOM     32  C   UNL     1      10.543  13.224  25.416  0.00  0.00    +0.009 A 
ATOM     33  C   UNL     1      13.292  13.195  25.550  0.00  0.00    +0.167 A 
ATOM     34  C   UNL     1      11.199  14.249  26.100  0.00  0.00    +0.050 A 
ATOM     35  C   UNL     1      12.577  14.208  26.148  0.00  0.00    +0.166 A 
ATOM     36  C   UNL     1      14.685  14.560  26.488  0.00  0.00    +0.466 C 
ENDBRANCH  19  23
ENDBRANCH   6  19
ENDBRANCH  14  16
ENDBRANCH   8  14
TORSDOF 8
ENDMDL
MODEL 7
REMARK VINA RESULT:      -7.2     26.992     30.376
REMARK  Name = 26743314
REMARK  11 active torsions:
REMARK  status: ('A' for Active; 'I' for Inactive)
REMARK    1  A    between atoms: N_6  and  C_19
REMARK    2  A    between atoms: C_8  and  C_14
REMARK    3  A    between atoms: C_9  and  C_13
REMARK    4  A    between atoms: C_13  and  C_15
REMARK    5  A    between atoms: C_14  and  C_16
REMARK    6  A    between atoms: C_18  and  C_20
REMARK    7  A    between atoms: C_19  and  C_23
REMARK    8  A    between atoms: C_21  and  C_22
REMARK    9  A    between atoms: C_21  and  C_28
REMARK   10  A    between atoms: C_21  and  C_29
REMARK   11  A    between atoms: C_21  and  C_30
REMARK                            x       y       z     vdW  Elec       q    Type
REMARK                         _______ _______ _______ _____ _____    ______ ____
ROOT
ATOM      5  N   UNL     1     -10.151 -10.572   7.585  0.00  0.00    -0.316 NA
ATOM      8  C   UNL     1      -7.605 -11.107   8.979  0.00  0.00    +0.004 C 
ATOM      9  C   UNL     1      -8.529  -9.924   9.351  0.00  0.00    +0.012 C 
ATOM     10  C   UNL     1      -8.444 -12.207   8.305  0.00  0.00    +0.019 C 
ATOM     11  C   UNL     1      -9.377  -9.466   8.152  0.00  0.00    +0.085 C 
ATOM     12  C   UNL     1      -9.291 -11.670   7.151  0.00  0.00    +0.081 C 
ATOM     37  H   UNL     1     -10.692 -10.232   6.790  0.00  0.00    +0.122 HD
ENDROOT
BRANCH   9  13
ATOM     13  C   UNL     1      -7.773  -8.740   9.956  0.00  0.00    +0.064 C 
BRANCH  13  15
ATOM      1  O   UNL     1      -5.486  -9.445  12.647  0.00  0.00    -0.354 OA
ATOM      7  N   UNL     1      -5.772  -9.018  11.356  0.00  0.00    -0.083 NA
ATOM     15  C   UNL     1      -7.099  -9.122  11.242  0.00  0.00    +0.085 A 
ATOM     17  C   UNL     1      -7.699  -9.604  12.419  0.00  0.00    +0.076 A 
ATOM     18  C   UNL     1      -6.641  -9.791  13.270  0.00  0.00    +0.167 A 
BRANCH  18  20
ATOM     20  C   UNL     1      -6.504 -10.254  14.620  0.00  0.00    +0.020 A 
ATOM     22  C   UNL     1      -6.239 -11.156  17.247  0.00  0.00    -0.042 A 
ATOM     24  C   UNL     1      -5.451  -9.796  15.412  0.00  0.00    +0.012 A 
ATOM     25  C   UNL     1      -7.425 -11.163  15.142  0.00  0.00    +0.012 A 
ATOM     26  C   UNL     1      -5.319 -10.247  16.725  0.00  0.00    +0.005 A 
ATOM     27  C   UNL     1      -7.292 -11.614  16.456  0.00  0.00    +0.005 A 
BRANCH  22  21
ATOM     21  C   UNL     1      -6.097 -11.637  18.652  0.00  0.00    -0.013 C 
ATOM     28  C   UNL     1      -4.734 -12.325  18.990  0.00  0.00    +0.015 C 
ATOM     29  C   UNL     1      -7.192 -12.689  19.003  0.00  0.00    +0.015 C 
ATOM     30  C   UNL     1      -6.231 -10.460  19.667  0.00  0.00    +0.015 C 
ENDBRANCH  22  21
ENDBRANCH  18  20
ENDBRANCH  13  15
ENDBRANCH   9  13
BRANCH   8  14
ATOM     14  C   UNL     1      -6.413 -10.716   8.098  0.00  0.00    +0.099 C 
BRANCH  14  16
ATOM      2  O   UNL     1      -4.414 -11.950   7.521  0.00  0.00    -0.276 OA
ATOM      6  N   UNL     1      -5.060 -11.799   9.748  0.00  0.00    -0.311 N 
ATOM     16  C   UNL     1      -5.185 -11.552   8.389  0.00  0.00    +0.214 C 
ATOM     38  H   UNL     1      -5.730 -11.385  10.391  0.00  0.00    +0.149 HD
BRANCH   6  19
ATOM     19  C   UNL     1      -3.979 -12.575  10.313  0.00  0.00    +0.139 C 
BRANCH  19  23
ATOM      3  O   UNL     1      -2.650 -11.961  15.036  0.00  0.00    -0.453 OA
ATOM      4  O   UNL     1      -1.417  -9.948  14.551  0.00  0.00    -0.453 OA
ATOM     23  C   UNL     1      -3.282 -11.845  11.424  0.00  0.00    -0.027 A 
ATOM     31  C   UNL     1      -3.350 -12.339  12.729  0.00  0.00    +0.054 A 
ATOM     32  C   UNL     1      -2.563 -10.670  11.141  0.00  0.00    +0.009 A 
ATOM     33  C   UNL     1      -2.692 -11.634  13.716  0.00  0.00    +0.167 A 
ATOM     34  C   UNL     1      -1.905  -9.976  12.159  0.00  0.00    +0.050 A 
ATOM     35  C   UNL     1      -1.989 -10.485  13.439  0.00  0.00    +0.166 A 
ATOM     36  C   UNL     1      -1.840 -10.888  15.560  0.00  0.00    +0.466 C 
ENDBRANCH  19  23
ENDBRANCH   6  19
ENDBRANCH  14  16
ENDBRANCH   8  14
TORSDOF 8
ENDMDL
MODEL 8
REMARK VINA RESULT:      -7.1     27.426     30.900
REMARK  Name = 26743314
REMARK  11 active torsions:
REMARK  status: ('A' for Active; 'I' for Inactive)
REMARK    1  A    between atoms: N_6  and  C_19
REMARK    2  A    between atoms: C_8  and  C_14
REMARK    3  A    between atoms: C_9  and  C_13
REMARK    4  A    between atoms: C_13  and  C_15
REMARK    5  A    between atoms: C_14  and  C_16
REMARK    6  A    between atoms: C_18  and  C_20
REMARK    7  A    between atoms: C_19  and  C_23
REMARK    8  A    between atoms: C_21  and  C_22
REMARK    9  A    between atoms: C_21  and  C_28
REMARK   10  A    between atoms: C_21  and  C_29
REMARK   11  A    between atoms: C_21  and  C_30
REMARK                            x       y       z     vdW  Elec       q    Type
REMARK                         _______ _______ _______ _____ _____    ______ ____
ROOT
ATOM      5  N   UNL     1      -6.314 -11.557  18.147  0.00  0.00    -0.316 NA
ATOM      8  C   UNL     1      -4.784 -10.795  15.740  0.00  0.00    +0.004 C 
ATOM      9  C   UNL     1      -6.047 -11.687  15.681  0.00  0.00    +0.012 C 
ATOM     10  C   UNL     1      -4.839  -9.931  17.012  0.00  0.00    +0.019 C 
ATOM     11  C   UNL     1      -6.260 -12.458  16.995  0.00  0.00    +0.085 C 
ATOM     12  C   UNL     1      -5.095 -10.761  18.270  0.00  0.00    +0.081 C 
ATOM     37  H   UNL     1      -6.448 -12.104  18.996  0.00  0.00    +0.122 HD
ENDROOT
BRANCH   9  13
ATOM     13  C   UNL     1      -6.048 -12.646  14.489  0.00  0.00    +0.064 C 
BRANCH  13  15
ATOM      1  O   UNL     1      -8.573 -11.711  12.099  0.00  0.00    -0.354 OA
ATOM      7  N   UNL     1      -8.152 -12.363  13.251  0.00  0.00    -0.083 NA
ATOM     15  C   UNL     1      -6.846 -12.093  13.344  0.00  0.00    +0.085 A 
ATOM     17  C   UNL     1      -6.392 -11.283  12.289  0.00  0.00    +0.076 A 
ATOM     18  C   UNL     1      -7.517 -11.071  11.535  0.00  0.00    +0.167 A 
BRANCH  18  20
ATOM     20  C   UNL     1      -7.799 -10.349  10.329  0.00  0.00    +0.020 A 
ATOM     22  C   UNL     1      -8.349  -8.944   7.982  0.00  0.00    -0.042 A 
ATOM     24  C   UNL     1      -7.527  -8.982  10.253  0.00  0.00    +0.012 A 
ATOM     25  C   UNL     1      -8.346 -11.012   9.230  0.00  0.00    +0.012 A 
ATOM     26  C   UNL     1      -7.801  -8.280   9.080  0.00  0.00    +0.005 A 
ATOM     27  C   UNL     1      -8.621 -10.309   8.057  0.00  0.00    +0.005 A 
BRANCH  22  21
ATOM     21  C   UNL     1      -8.642  -8.192   6.728  0.00  0.00    -0.013 C 
ATOM     28  C   UNL     1      -7.510  -8.223   5.648  0.00  0.00    +0.015 C 
ATOM     29  C   UNL     1      -8.897  -6.682   7.019  0.00  0.00    +0.015 C 
ATOM     30  C   UNL     1      -9.910  -8.755   6.015  0.00  0.00    +0.015 C 
ENDBRANCH  22  21
ENDBRANCH  18  20
ENDBRANCH  13  15
ENDBRANCH   9  13
BRANCH   8  14
ATOM     14  C   UNL     1      -3.465 -11.574  15.668  0.00  0.00    +0.099 C 
BRANCH  14  16
ATOM      2  O   UNL     1      -1.381 -10.500  15.076  0.00  0.00    -0.276 OA
ATOM      6  N   UNL     1      -2.963 -10.910  13.424  0.00  0.00    -0.311 N 
ATOM     16  C   UNL     1      -2.473 -10.935  14.721  0.00  0.00    +0.214 C 
ATOM     38  H   UNL     1      -3.864 -11.338  13.227  0.00  0.00    +0.149 HD
BRANCH   6  19
ATOM     19  C   UNL     1      -2.226 -10.354  12.312  0.00  0.00    +0.139 C 
BRANCH  19  23
ATOM      3  O   UNL     1      -4.611 -12.712   8.678  0.00  0.00    -0.453 OA
ATOM      4  O   UNL     1      -5.183 -10.656   7.559  0.00  0.00    -0.453 OA
ATOM     23  C   UNL     1      -3.015 -10.397  11.036  0.00  0.00    -0.027 A 
ATOM     31  C   UNL     1      -3.415 -11.629  10.509  0.00  0.00    +0.054 A 
ATOM     32  C   UNL     1      -3.349  -9.198  10.383  0.00  0.00    +0.009 A 
ATOM     33  C   UNL     1      -4.141 -11.618   9.336  0.00  0.00    +0.167 A 
ATOM     34  C   UNL     1      -4.084  -9.215   9.196  0.00  0.00    +0.050 A 
ATOM     35  C   UNL     1      -4.467 -10.443   8.697  0.00  0.00    +0.166 A 
ATOM     36  C   UNL     1      -5.271 -12.095   7.554  0.00  0.00    +0.466 C 
ENDBRANCH  19  23
ENDBRANCH   6  19
ENDBRANCH  14  16
ENDBRANCH   8  14
TORSDOF 8
ENDMDL
MODEL 9
REMARK VINA RESULT:      -7.1     16.473     20.697
REMARK  Name = 26743314
REMARK  11 active torsions:
REMARK  status: ('A' for Active; 'I' for Inactive)
REMARK    1  A    between atoms: N_6  and  C_19
REMARK    2  A    between atoms: C_8  and  C_14
REMARK    3  A    between atoms: C_9  and  C_13
REMARK    4  A    between atoms: C_13  and  C_15
REMARK    5  A    between atoms: C_14  and  C_16
REMARK    6  A    between atoms: C_18  and  C_20
REMARK    7  A    between atoms: C_19  and  C_23
REMARK    8  A    between atoms: C_21  and  C_22
REMARK    9  A    between atoms: C_21  and  C_28
REMARK   10  A    between atoms: C_21  and  C_29
REMARK   11  A    between atoms: C_21  and  C_30
REMARK                            x       y       z     vdW  Elec       q    Type
REMARK                         _______ _______ _______ _____ _____    ______ ____
ROOT
ATOM      5  N   UNL     1       8.033   6.640   5.210  0.00  0.00    -0.316 NA
ATOM      8  C   UNL     1      10.605   6.925   3.790  0.00  0.00    +0.004 C 
ATOM      9  C   UNL     1       9.840   5.583   3.874  0.00  0.00    +0.012 C 
ATOM     10  C   UNL     1       9.608   8.083   3.967  0.00  0.00    +0.019 C 
ATOM     11  C   UNL     1       8.958   5.508   5.132  0.00  0.00    +0.085 C 
ATOM     12  C   UNL     1       8.739   7.920   5.214  0.00  0.00    +0.081 C 
ATOM     37  H   UNL     1       7.474   6.560   6.058  0.00  0.00    +0.122 HD
ENDROOT
BRANCH   9  13
ATOM     13  C   UNL     1      10.760   4.363   3.790  0.00  0.00    +0.064 C 
BRANCH  13  15
ATOM      1  O   UNL     1      12.482   3.499   0.749  0.00  0.00    -0.354 OA
ATOM      7  N   UNL     1      12.415   3.622   2.131  0.00  0.00    -0.083 NA
ATOM     15  C   UNL     1      11.191   4.100   2.376  0.00  0.00    +0.085 A 
ATOM     17  C   UNL     1      10.449   4.295   1.199  0.00  0.00    +0.076 A 
ATOM     18  C   UNL     1      11.306   3.902   0.205  0.00  0.00    +0.167 A 
BRANCH  18  20
ATOM     20  C   UNL     1      11.226   3.831  -1.225  0.00  0.00    +0.020 A 
ATOM     22  C   UNL     1      11.071   3.692  -4.007  0.00  0.00    -0.042 A 
ATOM     24  C   UNL     1      10.277   4.590  -1.910  0.00  0.00    +0.012 A 
ATOM     25  C   UNL     1      12.098   3.002  -1.932  0.00  0.00    +0.012 A 
ATOM     26  C   UNL     1      10.200   4.521  -3.301  0.00  0.00    +0.005 A 
ATOM     27  C   UNL     1      12.020   2.933  -3.323  0.00  0.00    +0.005 A 
BRANCH  22  21
ATOM     21  C   UNL     1      10.988   3.620  -5.495  0.00  0.00    -0.013 C 
ATOM     28  C   UNL     1       9.742   2.862  -6.061  0.00  0.00    +0.015 C 
ATOM     29  C   UNL     1      12.227   2.888  -6.096  0.00  0.00    +0.015 C 
ATOM     30  C   UNL     1      10.930   5.044  -6.128  0.00  0.00    +0.015 C 
ENDBRANCH  22  21
ENDBRANCH  18  20
ENDBRANCH  13  15
ENDBRANCH   9  13
BRANCH   8  14
ATOM     14  C   UNL     1      11.764   7.047   4.788  0.00  0.00    +0.099 C 
BRANCH  14  16
ATOM      2  O   UNL     1      13.550   8.569   4.204  0.00  0.00    -0.276 OA
ATOM      6  N   UNL     1      13.600   6.390   3.400  0.00  0.00    -0.311 N 
ATOM     16  C   UNL     1      13.059   7.448   4.115  0.00  0.00    +0.214 C 
ATOM     38  H   UNL     1      13.136   5.486   3.427  0.00  0.00    +0.149 HD
BRANCH   6  19
ATOM     19  C   UNL     1      14.835   6.489   2.656  0.00  0.00    +0.139 C 
BRANCH  19  23
ATOM      3  O   UNL     1      12.638   7.519  -1.653  0.00  0.00    -0.453 OA
ATOM      4  O   UNL     1      13.946   5.884  -2.845  0.00  0.00    -0.453 OA
ATOM     23  C   UNL     1      14.622   6.299   1.183  0.00  0.00    -0.027 A 
ATOM     31  C   UNL     1      13.671   7.074   0.514  0.00  0.00    +0.054 A 
ATOM     32  C   UNL     1      15.386   5.346   0.486  0.00  0.00    +0.009 A 
ATOM     33  C   UNL     1      13.512   6.865  -0.841  0.00  0.00    +0.167 A 
ATOM     34  C   UNL     1      15.205   5.154  -0.885  0.00  0.00    +0.050 A 
ATOM     35  C   UNL     1      14.259   5.930  -1.522  0.00  0.00    +0.166 A 
ATOM     36  C   UNL     1      12.919   6.894  -2.922  0.00  0.00    +0.466 C 
ENDBRANCH  19  23
ENDBRANCH   6  19
ENDBRANCH  14  16
ENDBRANCH   8  14
TORSDOF 8
ENDMDL
MODEL 10
REMARK VINA RESULT:      -7.0      3.626      5.401
REMARK  Name = 26743314
REMARK  11 active torsions:
REMARK  status: ('A' for Active; 'I' for Inactive)
REMARK    1  A    between atoms: N_6  and  C_19
REMARK    2  A    between atoms: C_8  and  C_14
REMARK    3  A    between atoms: C_9  and  C_13
REMARK    4  A    between atoms: C_13  and  C_15
REMARK    5  A    between atoms: C_14  and  C_16
REMARK    6  A    between atoms: C_18  and  C_20
REMARK    7  A    between atoms: C_19  and  C_23
REMARK    8  A    between atoms: C_21  and  C_22
REMARK    9  A    between atoms: C_21  and  C_28
REMARK   10  A    between atoms: C_21  and  C_29
REMARK   11  A    between atoms: C_21  and  C_30
REMARK                            x       y       z     vdW  Elec       q    Type
REMARK                         _______ _______ _______ _____ _____    ______ ____
ROOT
ATOM      5  N   UNL     1      11.784  13.227  26.131  0.00  0.00    -0.316 NA
ATOM      8  C   UNL     1      12.167  12.800  23.236  0.00  0.00    +0.004 C 
ATOM      9  C   UNL     1      13.328  13.174  24.187  0.00  0.00    +0.012 C 
ATOM     10  C   UNL     1      11.053  12.117  24.048  0.00  0.00    +0.019 C 
ATOM     11  C   UNL     1      12.830  13.957  25.413  0.00  0.00    +0.085 C 
ATOM     12  C   UNL     1      10.639  12.933  25.272  0.00  0.00    +0.081 C 
ATOM     37  H   UNL     1      11.474  13.780  26.929  0.00  0.00    +0.122 HD
ENDROOT
BRANCH   9  13
ATOM     13  C   UNL     1      14.455  13.934  23.486  0.00  0.00    +0.064 C 
BRANCH  13  15
ATOM      1  O   UNL     1      16.522  12.214  21.091  0.00  0.00    -0.354 OA
ATOM      7  N   UNL     1      15.685  13.258  21.468  0.00  0.00    -0.083 NA
ATOM     15  C   UNL     1      15.363  13.000  22.740  0.00  0.00    +0.085 A 
ATOM     17  C   UNL     1      15.962  11.820  23.213  0.00  0.00    +0.076 A 
ATOM     18  C   UNL     1      16.679  11.365  22.138  0.00  0.00    +0.167 A 
BRANCH  18  20
ATOM     20  C   UNL     1      17.523  10.231  21.896  0.00  0.00    +0.020 A 
ATOM     22  C   UNL     1      19.165   8.025  21.427  0.00  0.00    -0.042 A 
ATOM     24  C   UNL     1      18.903  10.335  22.080  0.00  0.00    +0.012 A 
ATOM     25  C   UNL     1      16.966   9.022  21.478  0.00  0.00    +0.012 A 
ATOM     26  C   UNL     1      19.723   9.232  21.846  0.00  0.00    +0.005 A 
ATOM     27  C   UNL     1      17.787   7.920  21.244  0.00  0.00    +0.005 A 
BRANCH  22  21
ATOM     21  C   UNL     1      20.043   6.845  21.178  0.00  0.00    -0.013 C 
ATOM     28  C   UNL     1      20.540   6.096  22.458  0.00  0.00    +0.015 C 
ATOM     29  C   UNL     1      21.336   7.254  20.408  0.00  0.00    +0.015 C 
ATOM     30  C   UNL     1      19.309   5.765  20.324  0.00  0.00    +0.015 C 
ENDBRANCH  22  21
ENDBRANCH  18  20
ENDBRANCH  13  15
ENDBRANCH   9  13
BRANCH   8  14
ATOM     14  C   UNL     1      11.609  13.983  22.435  0.00  0.00    +0.099 C 
BRANCH  14  16
ATOM      2  O   UNL     1      11.199  14.481  20.104  0.00  0.00    -0.276 OA
ATOM      6  N   UNL     1      12.661  12.763  20.664  0.00  0.00    -0.311 N 
ATOM     16  C   UNL     1      11.779  13.797  20.943  0.00  0.00    +0.214 C 
ATOM     38  H   UNL     1      13.123  12.287  21.434  0.00  0.00    +0.149 HD
BRANCH   6  19
ATOM     19  C   UNL     1      13.009  12.363  19.320  0.00  0.00    +0.139 C 
BRANCH  19  23
ATOM      3  O   UNL     1      13.520   7.817  21.197  0.00  0.00    -0.453 OA
ATOM      4  O   UNL     1      14.600   6.989  19.209  0.00  0.00    -0.453 OA
ATOM     23  C   UNL     1      13.450  10.930  19.256  0.00  0.00    -0.027 A 
ATOM     31  C   UNL     1      13.228  10.086  20.348  0.00  0.00    +0.054 A 
ATOM     32  C   UNL     1      14.080  10.446  18.096  0.00  0.00    +0.009 A 
ATOM     33  C   UNL     1      13.649   8.776  20.241  0.00  0.00    +0.167 A 
ATOM     34  C   UNL     1      14.497   9.116  18.014  0.00  0.00    +0.050 A 
ATOM     35  C   UNL     1      14.266   8.304  19.105  0.00  0.00    +0.166 A 
ATOM     36  C   UNL     1      14.124   6.686  20.536  0.00  0.00    +0.466 C 
ENDBRANCH  19  23
ENDBRANCH   6  19
ENDBRANCH  14  16
ENDBRANCH   8  14
TORSDOF 8
ENDMDL
