MODEL 1
REMARK VINA RESULT:      -8.3      0.000      0.000
REMARK  Name = 7155440
REMARK  4 active torsions:
REMARK  status: ('A' for Active; 'I' for Inactive)
REMARK    1  A    between atoms: S_1  and  N_8
REMARK    2  A    between atoms: S_1  and  C_20
REMARK    3  A    between atoms: C_17  and  C_22
REMARK    4  A    between atoms: C_27  and  C_33
REMARK                            x       y       z     vdW  Elec       q    Type
REMARK                         _______ _______ _______ _____ _____    ______ ____
ROOT
ATOM      7  O   UNL     1      10.312   9.097  22.338  0.00  0.00    -0.268 OA
ATOM      8  N   UNL     1      14.148  11.708  20.607  0.00  0.00    -0.176 NA
ATOM      9  N   UNL     1      12.623   9.423  22.146  0.00  0.00    -0.311 N 
ATOM     10  C   UNL     1      13.763  11.529  23.060  0.00  0.00    +0.025 C 
ATOM     11  C   UNL     1      15.096   9.816  21.915  0.00  0.00    +0.053 C 
ATOM     12  C   UNL     1      14.983  10.633  23.199  0.00  0.00    +0.017 C 
ATOM     13  C   UNL     1      13.915  12.477  21.861  0.00  0.00    +0.114 C 
ATOM     14  C   UNL     1      15.300  10.767  20.719  0.00  0.00    +0.119 C 
ATOM     15  C   UNL     1      12.518  10.648  22.951  0.00  0.00    +0.130 C 
ATOM     16  C   UNL     1      13.866   8.930  21.701  0.00  0.00    +0.034 A 
ATOM     17  C   UNL     1      13.932   7.719  21.088  0.00  0.00    +0.002 A 
ATOM     18  C   UNL     1      11.421   8.720  21.956  0.00  0.00    +0.252 A 
ATOM     19  C   UNL     1      12.710   6.967  20.870  0.00  0.00    +0.015 A 
ATOM     21  C   UNL     1      11.518   7.420  21.255  0.00  0.00    +0.071 A 
ENDROOT
BRANCH  17  22
ATOM     22  C   UNL     1      15.216   7.150  20.621  0.00  0.00    -0.016 A 
ATOM     25  C   UNL     1      16.275   7.011  21.513  0.00  0.00    +0.008 A 
ATOM     26  C   UNL     1      15.354   6.758  19.293  0.00  0.00    +0.008 A 
ATOM     29  C   UNL     1      17.485   6.475  21.073  0.00  0.00    +0.001 A 
ATOM     30  C   UNL     1      16.565   6.222  18.853  0.00  0.00    +0.001 A 
ATOM     32  C   UNL     1      17.629   6.080  19.742  0.00  0.00    +0.000 A 
ENDBRANCH  17  22
BRANCH   8   1
ATOM      1  S   UNL     1      14.069  12.612  19.156  0.00  0.00    +0.061 S 
ATOM      5  O   UNL     1      15.360  13.217  18.904  0.00  0.00    -0.153 OA
ATOM      6  O   UNL     1      12.861  13.409  19.162  0.00  0.00    -0.153 OA
BRANCH   1  20
ATOM     20  C   UNL     1      13.850  11.304  17.989  0.00  0.00    +0.106 A 
ATOM     23  C   UNL     1      12.844  10.375  18.195  0.00  0.00    +0.041 A 
ATOM     24  C   UNL     1      14.688  11.232  16.889  0.00  0.00    +0.028 A 
ATOM     27  C   UNL     1      12.671   9.342  17.273  0.00  0.00    +0.057 A 
ATOM     28  C   UNL     1      14.516  10.198  15.968  0.00  0.00    +0.002 A 
ATOM     31  C   UNL     1      13.507   9.254  16.160  0.00  0.00    +0.012 A 
BRANCH  27  33
ATOM      2  F   UNL     1      10.782   8.607  18.543  0.00  0.00    -0.166 F 
ATOM      3  F   UNL     1      10.752   8.204  16.411  0.00  0.00    -0.166 F 
ATOM      4  F   UNL     1      12.086   7.080  17.708  0.00  0.00    -0.166 F 
ATOM     33  C   UNL     1      11.593   8.332  17.478  0.00  0.00    +0.417 C 
ENDBRANCH  27  33
ENDBRANCH   1  20
ENDBRANCH   8   1
TORSDOF 4
ENDMDL
MODEL 2
REMARK VINA RESULT:      -7.2      1.845      2.463
REMARK  Name = 7155440
REMARK  4 active torsions:
REMARK  status: ('A' for Active; 'I' for Inactive)
REMARK    1  A    between atoms: S_1  and  N_8
REMARK    2  A    between atoms: S_1  and  C_20
REMARK    3  A    between atoms: C_17  and  C_22
REMARK    4  A    between atoms: C_27  and  C_33
REMARK                            x       y       z     vdW  Elec       q    Type
REMARK                         _______ _______ _______ _____ _____    ______ ____
ROOT
ATOM      7  O   UNL     1      10.163   9.134  22.333  0.00  0.00    -0.268 OA
ATOM      8  N   UNL     1      14.027  11.771  20.707  0.00  0.00    -0.176 NA
ATOM      9  N   UNL     1      12.477   9.460  22.181  0.00  0.00    -0.311 N 
ATOM     10  C   UNL     1      13.607  11.546  23.151  0.00  0.00    +0.025 C 
ATOM     11  C   UNL     1      14.953   9.852  21.993  0.00  0.00    +0.053 C 
ATOM     12  C   UNL     1      14.822  10.645  23.291  0.00  0.00    +0.017 C 
ATOM     13  C   UNL     1      13.777  12.517  21.972  0.00  0.00    +0.114 C 
ATOM     14  C   UNL     1      15.176  10.826  20.818  0.00  0.00    +0.119 C 
ATOM     15  C   UNL     1      12.362  10.669  23.006  0.00  0.00    +0.130 C 
ATOM     16  C   UNL     1      13.725   8.973  21.744  0.00  0.00    +0.034 A 
ATOM     17  C   UNL     1      13.799   7.774  21.110  0.00  0.00    +0.002 A 
ATOM     18  C   UNL     1      11.277   8.762  21.960  0.00  0.00    +0.252 A 
ATOM     19  C   UNL     1      12.579   7.028  20.860  0.00  0.00    +0.015 A 
ATOM     21  C   UNL     1      11.382   7.476  21.235  0.00  0.00    +0.071 A 
ENDROOT
BRANCH  17  22
ATOM     22  C   UNL     1      15.089   7.212  20.650  0.00  0.00    -0.016 A 
ATOM     25  C   UNL     1      15.248   6.851  19.316  0.00  0.00    +0.008 A 
ATOM     26  C   UNL     1      16.132   7.048  21.556  0.00  0.00    +0.008 A 
ATOM     29  C   UNL     1      16.464   6.322  18.882  0.00  0.00    +0.001 A 
ATOM     30  C   UNL     1      17.348   6.519  21.123  0.00  0.00    +0.001 A 
ATOM     32  C   UNL     1      17.514   6.156  19.786  0.00  0.00    +0.000 A 
ENDBRANCH  17  22
BRANCH   8   1
ATOM      1  S   UNL     1      13.971  12.702  19.273  0.00  0.00    +0.061 S 
ATOM      5  O   UNL     1      15.236  13.387  19.103  0.00  0.00    -0.153 OA
ATOM      6  O   UNL     1      12.720  13.428  19.230  0.00  0.00    -0.153 OA
BRANCH   1  20
ATOM     20  C   UNL     1      13.891  11.411  18.069  0.00  0.00    +0.106 A 
ATOM     23  C   UNL     1      14.657  11.510  16.919  0.00  0.00    +0.041 A 
ATOM     24  C   UNL     1      13.065  10.324  18.297  0.00  0.00    +0.028 A 
ATOM     27  C   UNL     1      14.594  10.490  15.969  0.00  0.00    +0.057 A 
ATOM     28  C   UNL     1      13.001   9.305  17.347  0.00  0.00    +0.002 A 
ATOM     31  C   UNL     1      13.765   9.388  16.183  0.00  0.00    +0.012 A 
BRANCH  27  33
ATOM      2  F   UNL     1      16.660  11.093  14.926  0.00  0.00    -0.166 F 
ATOM      3  F   UNL     1      15.613   9.374  14.116  0.00  0.00    -0.166 F 
ATOM      4  F   UNL     1      14.835  11.376  13.777  0.00  0.00    -0.166 F 
ATOM     33  C   UNL     1      15.410  10.579  14.725  0.00  0.00    +0.417 C 
ENDBRANCH  27  33
ENDBRANCH   1  20
ENDBRANCH   8   1
TORSDOF 4
ENDMDL
MODEL 3
REMARK VINA RESULT:      -7.2     13.947     17.392
REMARK  Name = 7155440
REMARK  4 active torsions:
REMARK  status: ('A' for Active; 'I' for Inactive)
REMARK    1  A    between atoms: S_1  and  N_8
REMARK    2  A    between atoms: S_1  and  C_20
REMARK    3  A    between atoms: C_17  and  C_22
REMARK    4  A    between atoms: C_27  and  C_33
REMARK                            x       y       z     vdW  Elec       q    Type
REMARK                         _______ _______ _______ _____ _____    ______ ____
ROOT
ATOM      7  O   UNL     1      13.612   3.449   1.874  0.00  0.00    -0.268 OA
ATOM      8  N   UNL     1      13.842   7.862   4.113  0.00  0.00    -0.176 NA
ATOM      9  N   UNL     1      13.086   5.731   1.920  0.00  0.00    -0.311 N 
ATOM     10  C   UNL     1      14.910   7.532   1.888  0.00  0.00    +0.025 C 
ATOM     11  C   UNL     1      12.547   8.185   2.012  0.00  0.00    +0.053 C 
ATOM     12  C   UNL     1      13.843   8.394   1.233  0.00  0.00    +0.017 C 
ATOM     13  C   UNL     1      15.121   7.941   3.354  0.00  0.00    +0.114 C 
ATOM     14  C   UNL     1      12.746   8.645   3.470  0.00  0.00    +0.119 C 
ATOM     15  C   UNL     1      14.506   6.064   1.746  0.00  0.00    +0.130 C 
ATOM     16  C   UNL     1      12.088   6.726   1.961  0.00  0.00    +0.034 A 
ATOM     17  C   UNL     1      10.778   6.368   1.974  0.00  0.00    +0.002 A 
ATOM     18  C   UNL     1      12.783   4.358   1.923  0.00  0.00    +0.252 A 
ATOM     19  C   UNL     1      10.427   4.960   1.983  0.00  0.00    +0.015 A 
ATOM     21  C   UNL     1      11.347   3.998   1.974  0.00  0.00    +0.071 A 
ENDROOT
BRANCH  17  22
ATOM     22  C   UNL     1       9.694   7.376   1.996  0.00  0.00    -0.016 A 
ATOM     25  C   UNL     1       9.019   7.638   3.185  0.00  0.00    +0.008 A 
ATOM     26  C   UNL     1       9.359   8.055   0.829  0.00  0.00    +0.008 A 
ATOM     29  C   UNL     1       7.999   8.588   3.207  0.00  0.00    +0.001 A 
ATOM     30  C   UNL     1       8.338   9.006   0.850  0.00  0.00    +0.001 A 
ATOM     32  C   UNL     1       7.658   9.272   2.039  0.00  0.00    +0.000 A 
ENDBRANCH  17  22
BRANCH   8   1
ATOM      1  S   UNL     1      13.974   8.029   5.810  0.00  0.00    +0.061 S 
ATOM      5  O   UNL     1      14.274   9.410   6.128  0.00  0.00    -0.153 OA
ATOM      6  O   UNL     1      14.790   6.952   6.329  0.00  0.00    -0.153 OA
BRANCH   1  20
ATOM     20  C   UNL     1      12.301   7.718   6.283  0.00  0.00    +0.106 A 
ATOM     23  C   UNL     1      11.714   6.510   5.942  0.00  0.00    +0.041 A 
ATOM     24  C   UNL     1      11.605   8.687   6.986  0.00  0.00    +0.028 A 
ATOM     27  C   UNL     1      10.393   6.265   6.315  0.00  0.00    +0.057 A 
ATOM     28  C   UNL     1      10.283   8.442   7.359  0.00  0.00    +0.002 A 
ATOM     31  C   UNL     1       9.677   7.231   7.023  0.00  0.00    +0.012 A 
BRANCH  27  33
ATOM      2  F   UNL     1      10.461   4.231   5.058  0.00  0.00    -0.166 F 
ATOM      3  F   UNL     1       9.547   4.143   7.023  0.00  0.00    -0.166 F 
ATOM      4  F   UNL     1       8.514   5.140   5.391  0.00  0.00    -0.166 F 
ATOM     33  C   UNL     1       9.745   4.971   5.956  0.00  0.00    +0.417 C 
ENDBRANCH  27  33
ENDBRANCH   1  20
ENDBRANCH   8   1
TORSDOF 4
ENDMDL
MODEL 4
REMARK VINA RESULT:      -7.2     13.896     16.123
REMARK  Name = 7155440
REMARK  4 active torsions:
REMARK  status: ('A' for Active; 'I' for Inactive)
REMARK    1  A    between atoms: S_1  and  N_8
REMARK    2  A    between atoms: S_1  and  C_20
REMARK    3  A    between atoms: C_17  and  C_22
REMARK    4  A    between atoms: C_27  and  C_33
REMARK                            x       y       z     vdW  Elec       q    Type
REMARK                         _______ _______ _______ _____ _____    ______ ____
ROOT
ATOM      7  O   UNL     1       8.544  10.282   3.228  0.00  0.00    -0.268 OA
ATOM      8  N   UNL     1      12.865   8.705   5.063  0.00  0.00    -0.176 NA
ATOM      9  N   UNL     1       9.808   9.459   5.019  0.00  0.00    -0.311 N 
ATOM     10  C   UNL     1      11.799  10.764   5.970  0.00  0.00    +0.025 C 
ATOM     11  C   UNL     1      11.206   8.577   6.913  0.00  0.00    +0.053 C 
ATOM     12  C   UNL     1      11.470  10.039   7.265  0.00  0.00    +0.017 C 
ATOM     13  C   UNL     1      13.048  10.162   5.308  0.00  0.00    +0.114 C 
ATOM     14  C   UNL     1      12.479   7.961   6.297  0.00  0.00    +0.119 C 
ATOM     15  C   UNL     1      10.575  10.711   5.055  0.00  0.00    +0.130 C 
ATOM     16  C   UNL     1      10.016   8.431   5.961  0.00  0.00    +0.034 A 
ATOM     17  C   UNL     1       9.187   7.356   5.982  0.00  0.00    +0.002 A 
ATOM     18  C   UNL     1       8.780   9.407   4.062  0.00  0.00    +0.252 A 
ATOM     19  C   UNL     1       8.118   7.266   5.006  0.00  0.00    +0.015 A 
ATOM     21  C   UNL     1       7.913   8.207   4.086  0.00  0.00    +0.071 A 
ENDROOT
BRANCH  17  22
ATOM     22  C   UNL     1       9.354   6.262   6.965  0.00  0.00    -0.016 A 
ATOM     25  C   UNL     1       9.795   5.012   6.539  0.00  0.00    +0.008 A 
ATOM     26  C   UNL     1       9.069   6.490   8.308  0.00  0.00    +0.008 A 
ATOM     29  C   UNL     1       9.953   3.981   7.465  0.00  0.00    +0.001 A 
ATOM     30  C   UNL     1       9.226   5.458   9.234  0.00  0.00    +0.001 A 
ATOM     32  C   UNL     1       9.668   4.205   8.812  0.00  0.00    +0.000 A 
ENDBRANCH  17  22
BRANCH   8   1
ATOM      1  S   UNL     1      14.062   7.959   4.094  0.00  0.00    +0.061 S 
ATOM      5  O   UNL     1      14.945   7.186   4.942  0.00  0.00    -0.153 OA
ATOM      6  O   UNL     1      14.589   8.933   3.162  0.00  0.00    -0.153 OA
BRANCH   1  20
ATOM     20  C   UNL     1      13.060   6.825   3.183  0.00  0.00    +0.106 A 
ATOM     23  C   UNL     1      13.636   5.677   2.665  0.00  0.00    +0.041 A 
ATOM     24  C   UNL     1      11.715   7.104   3.003  0.00  0.00    +0.028 A 
ATOM     27  C   UNL     1      12.844   4.781   1.946  0.00  0.00    +0.057 A 
ATOM     28  C   UNL     1      10.924   6.209   2.283  0.00  0.00    +0.002 A 
ATOM     31  C   UNL     1      11.488   5.048   1.754  0.00  0.00    +0.012 A 
BRANCH  27  33
ATOM      2  F   UNL     1      12.682   2.425   1.568  0.00  0.00    -0.166 F 
ATOM      3  F   UNL     1      13.665   3.603   0.034  0.00  0.00    -0.166 F 
ATOM      4  F   UNL     1      14.661   3.249   1.934  0.00  0.00    -0.166 F 
ATOM     33  C   UNL     1      13.448   3.541   1.380  0.00  0.00    +0.417 C 
ENDBRANCH  27  33
ENDBRANCH   1  20
ENDBRANCH   8   1
TORSDOF 4
ENDMDL
MODEL 5
REMARK VINA RESULT:      -6.9     26.805     29.228
REMARK  Name = 7155440
REMARK  4 active torsions:
REMARK  status: ('A' for Active; 'I' for Inactive)
REMARK    1  A    between atoms: S_1  and  N_8
REMARK    2  A    between atoms: S_1  and  C_20
REMARK    3  A    between atoms: C_17  and  C_22
REMARK    4  A    between atoms: C_27  and  C_33
REMARK                            x       y       z     vdW  Elec       q    Type
REMARK                         _______ _______ _______ _____ _____    ______ ____
ROOT
ATOM      7  O   UNL     1      -1.361 -12.335  13.349  0.00  0.00    -0.268 OA
ATOM      8  N   UNL     1      -6.159 -13.522  13.676  0.00  0.00    -0.176 NA
ATOM      9  N   UNL     1      -3.205 -12.996  14.633  0.00  0.00    -0.311 N 
ATOM     10  C   UNL     1      -4.413 -15.216  14.206  0.00  0.00    +0.025 C 
ATOM     11  C   UNL     1      -5.212 -13.708  15.970  0.00  0.00    +0.053 C 
ATOM     12  C   UNL     1      -4.768 -15.140  15.682  0.00  0.00    +0.017 C 
ATOM     13  C   UNL     1      -5.628 -14.871  13.332  0.00  0.00    +0.114 C 
ATOM     14  C   UNL     1      -6.463 -13.381  15.130  0.00  0.00    +0.119 C 
ATOM     15  C   UNL     1      -3.224 -14.291  13.941  0.00  0.00    +0.130 C 
ATOM     16  C   UNL     1      -4.091 -12.703  15.689  0.00  0.00    +0.034 A 
ATOM     17  C   UNL     1      -3.943 -11.554  16.398  0.00  0.00    +0.002 A 
ATOM     18  C   UNL     1      -2.172 -12.122  14.252  0.00  0.00    +0.252 A 
ATOM     19  C   UNL     1      -2.890 -10.626  16.030  0.00  0.00    +0.015 A 
ATOM     21  C   UNL     1      -2.055 -10.861  15.019  0.00  0.00    +0.071 A 
ENDROOT
BRANCH  17  22
ATOM     22  C   UNL     1      -4.836 -11.213  17.527  0.00  0.00    -0.016 A 
ATOM     25  C   UNL     1      -4.558 -11.703  18.800  0.00  0.00    +0.008 A 
ATOM     26  C   UNL     1      -5.947 -10.404  17.308  0.00  0.00    +0.008 A 
ATOM     29  C   UNL     1      -5.399 -11.381  19.865  0.00  0.00    +0.001 A 
ATOM     30  C   UNL     1      -6.789 -10.082  18.374  0.00  0.00    +0.001 A 
ATOM     32  C   UNL     1      -6.515 -10.570  19.651  0.00  0.00    +0.000 A 
ENDBRANCH  17  22
BRANCH   8   1
ATOM      1  S   UNL     1      -7.339 -12.894  12.608  0.00  0.00    +0.061 S 
ATOM      5  O   UNL     1      -8.534 -12.572  13.360  0.00  0.00    -0.153 OA
ATOM      6  O   UNL     1      -7.404 -13.733  11.430  0.00  0.00    -0.153 OA
BRANCH   1  20
ATOM     20  C   UNL     1      -6.565 -11.375  12.150  0.00  0.00    +0.106 A 
ATOM     23  C   UNL     1      -5.235 -11.383  11.759  0.00  0.00    +0.041 A 
ATOM     24  C   UNL     1      -7.299 -10.202  12.189  0.00  0.00    +0.028 A 
ATOM     27  C   UNL     1      -4.624 -10.182  11.397  0.00  0.00    +0.057 A 
ATOM     28  C   UNL     1      -6.688  -9.001  11.828  0.00  0.00    +0.002 A 
ATOM     31  C   UNL     1      -5.350  -8.992  11.432  0.00  0.00    +0.012 A 
BRANCH  27  33
ATOM      2  F   UNL     1      -2.710 -11.409  10.651  0.00  0.00    -0.166 F 
ATOM      3  F   UNL     1      -2.953  -9.396   9.878  0.00  0.00    -0.166 F 
ATOM      4  F   UNL     1      -2.363  -9.698  11.949  0.00  0.00    -0.166 F 
ATOM     33  C   UNL     1      -3.194 -10.172  10.975  0.00  0.00    +0.417 C 
ENDBRANCH  27  33
ENDBRANCH   1  20
ENDBRANCH   8   1
TORSDOF 4
ENDMDL
MODEL 6
REMARK VINA RESULT:      -6.6     13.476     16.497
REMARK  Name = 7155440
REMARK  4 active torsions:
REMARK  status: ('A' for Active; 'I' for Inactive)
REMARK    1  A    between atoms: S_1  and  N_8
REMARK    2  A    between atoms: S_1  and  C_20
REMARK    3  A    between atoms: C_17  and  C_22
REMARK    4  A    between atoms: C_27  and  C_33
REMARK                            x       y       z     vdW  Elec       q    Type
REMARK                         _______ _______ _______ _____ _____    ______ ____
ROOT
ATOM      7  O   UNL     1      22.264  -0.839  28.677  0.00  0.00    -0.268 OA
ATOM      8  N   UNL     1      19.405  -4.820  27.960  0.00  0.00    -0.176 NA
ATOM      9  N   UNL     1      20.250  -1.787  27.947  0.00  0.00    -0.311 N 
ATOM     10  C   UNL     1      18.696  -3.043  29.553  0.00  0.00    +0.025 C 
ATOM     11  C   UNL     1      18.104  -2.848  27.179  0.00  0.00    +0.053 C 
ATOM     12  C   UNL     1      17.596  -2.608  28.599  0.00  0.00    +0.017 C 
ATOM     13  C   UNL     1      19.022  -4.533  29.370  0.00  0.00    +0.114 C 
ATOM     14  C   UNL     1      18.380  -4.352  26.982  0.00  0.00    +0.119 C 
ATOM     15  C   UNL     1      19.918  -2.150  29.331  0.00  0.00    +0.130 C 
ATOM     16  C   UNL     1      19.358  -2.022  26.882  0.00  0.00    +0.034 A 
ATOM     17  C   UNL     1      19.640  -1.538  25.644  0.00  0.00    +0.002 A 
ATOM     18  C   UNL     1      21.457  -1.086  27.779  0.00  0.00    +0.252 A 
ATOM     19  C   UNL     1      20.880  -0.814  25.432  0.00  0.00    +0.015 A 
ATOM     21  C   UNL     1      21.756  -0.601  26.413  0.00  0.00    +0.071 A 
ENDROOT
BRANCH  17  22
ATOM     22  C   UNL     1      18.725  -1.742  24.499  0.00  0.00    -0.016 A 
ATOM     25  C   UNL     1      17.702  -0.829  24.262  0.00  0.00    +0.008 A 
ATOM     26  C   UNL     1      18.895  -2.845  23.668  0.00  0.00    +0.008 A 
ATOM     29  C   UNL     1      16.840  -1.020  23.182  0.00  0.00    +0.001 A 
ATOM     30  C   UNL     1      18.032  -3.037  22.588  0.00  0.00    +0.001 A 
ATOM     32  C   UNL     1      17.005  -2.125  22.346  0.00  0.00    +0.000 A 
ENDBRANCH  17  22
BRANCH   8   1
ATOM      1  S   UNL     1      20.049  -6.378  27.668  0.00  0.00    +0.061 S 
ATOM      5  O   UNL     1      18.961  -7.304  27.433  0.00  0.00    -0.153 OA
ATOM      6  O   UNL     1      21.067  -6.661  28.657  0.00  0.00    -0.153 OA
BRANCH   1  20
ATOM     20  C   UNL     1      20.858  -6.094  26.123  0.00  0.00    +0.106 A 
ATOM     23  C   UNL     1      20.195  -6.397  24.946  0.00  0.00    +0.041 A 
ATOM     24  C   UNL     1      22.141  -5.572  26.117  0.00  0.00    +0.028 A 
ATOM     27  C   UNL     1      20.834  -6.171  23.726  0.00  0.00    +0.057 A 
ATOM     28  C   UNL     1      22.780  -5.348  24.898  0.00  0.00    +0.002 A 
ATOM     31  C   UNL     1      22.127  -5.648  23.703  0.00  0.00    +0.012 A 
BRANCH  27  33
ATOM      2  F   UNL     1      20.537  -7.671  21.886  0.00  0.00    -0.166 F 
ATOM      3  F   UNL     1      18.781  -6.602  22.578  0.00  0.00    -0.166 F 
ATOM      4  F   UNL     1      20.336  -5.542  21.489  0.00  0.00    -0.166 F 
ATOM     33  C   UNL     1      20.135  -6.492  22.448  0.00  0.00    +0.417 C 
ENDBRANCH  27  33
ENDBRANCH   1  20
ENDBRANCH   8   1
TORSDOF 4
ENDMDL
MODEL 7
REMARK VINA RESULT:      -6.5     14.094     17.088
REMARK  Name = 7155440
REMARK  4 active torsions:
REMARK  status: ('A' for Active; 'I' for Inactive)
REMARK    1  A    between atoms: S_1  and  N_8
REMARK    2  A    between atoms: S_1  and  C_20
REMARK    3  A    between atoms: C_17  and  C_22
REMARK    4  A    between atoms: C_27  and  C_33
REMARK                            x       y       z     vdW  Elec       q    Type
REMARK                         _______ _______ _______ _____ _____    ______ ____
ROOT
ATOM      7  O   UNL     1      22.980  -6.100  24.407  0.00  0.00    -0.268 OA
ATOM      8  N   UNL     1      20.055  -4.125  27.882  0.00  0.00    -0.176 NA
ATOM      9  N   UNL     1      21.522  -4.407  25.110  0.00  0.00    -0.311 N 
ATOM     10  C   UNL     1      22.077  -2.898  27.105  0.00  0.00    +0.025 C 
ATOM     11  C   UNL     1      19.953  -2.612  25.909  0.00  0.00    +0.053 C 
ATOM     12  C   UNL     1      21.202  -1.880  26.393  0.00  0.00    +0.017 C 
ATOM     13  C   UNL     1      21.340  -3.506  28.309  0.00  0.00    +0.114 C 
ATOM     14  C   UNL     1      19.188  -3.178  27.122  0.00  0.00    +0.119 C 
ATOM     15  C   UNL     1      22.515  -3.958  26.095  0.00  0.00    +0.130 C 
ATOM     16  C   UNL     1      20.302  -3.727  24.919  0.00  0.00    +0.034 A 
ATOM     17  C   UNL     1      19.480  -4.086  23.899  0.00  0.00    +0.002 A 
ATOM     18  C   UNL     1      21.921  -5.481  24.295  0.00  0.00    +0.252 A 
ATOM     19  C   UNL     1      19.857  -5.194  23.041  0.00  0.00    +0.015 A 
ATOM     21  C   UNL     1      20.989  -5.874  23.214  0.00  0.00    +0.071 A 
ENDROOT
BRANCH  17  22
ATOM     22  C   UNL     1      18.199  -3.389  23.648  0.00  0.00    -0.016 A 
ATOM     25  C   UNL     1      18.171  -2.276  22.812  0.00  0.00    +0.008 A 
ATOM     26  C   UNL     1      17.032  -3.852  24.247  0.00  0.00    +0.008 A 
ATOM     29  C   UNL     1      16.964  -1.619  22.574  0.00  0.00    +0.001 A 
ATOM     30  C   UNL     1      15.824  -3.194  24.009  0.00  0.00    +0.001 A 
ATOM     32  C   UNL     1      15.790  -2.079  23.173  0.00  0.00    +0.000 A 
ENDBRANCH  17  22
BRANCH   8   1
ATOM      1  S   UNL     1      19.258  -5.071  29.064  0.00  0.00    +0.061 S 
ATOM      5  O   UNL     1      18.609  -4.194  30.015  0.00  0.00    -0.153 OA
ATOM      6  O   UNL     1      20.150  -6.121  29.508  0.00  0.00    -0.153 OA
BRANCH   1  20
ATOM     20  C   UNL     1      18.001  -5.814  28.070  0.00  0.00    +0.106 A 
ATOM     23  C   UNL     1      18.356  -6.448  26.891  0.00  0.00    +0.041 A 
ATOM     24  C   UNL     1      16.682  -5.748  28.486  0.00  0.00    +0.028 A 
ATOM     27  C   UNL     1      17.363  -7.035  26.106  0.00  0.00    +0.057 A 
ATOM     28  C   UNL     1      15.688  -6.333  27.700  0.00  0.00    +0.002 A 
ATOM     31  C   UNL     1      16.029  -6.976  26.510  0.00  0.00    +0.012 A 
BRANCH  27  33
ATOM      2  F   UNL     1      17.429  -6.996  23.715  0.00  0.00    -0.166 F 
ATOM      3  F   UNL     1      19.057  -8.010  24.729  0.00  0.00    -0.166 F 
ATOM      4  F   UNL     1      17.081  -8.914  24.678  0.00  0.00    -0.166 F 
ATOM     33  C   UNL     1      17.727  -7.722  24.834  0.00  0.00    +0.417 C 
ENDBRANCH  27  33
ENDBRANCH   1  20
ENDBRANCH   8   1
TORSDOF 4
ENDMDL
MODEL 8
REMARK VINA RESULT:      -6.5     26.930     29.205
REMARK  Name = 7155440
REMARK  4 active torsions:
REMARK  status: ('A' for Active; 'I' for Inactive)
REMARK    1  A    between atoms: S_1  and  N_8
REMARK    2  A    between atoms: S_1  and  C_20
REMARK    3  A    between atoms: C_17  and  C_22
REMARK    4  A    between atoms: C_27  and  C_33
REMARK                            x       y       z     vdW  Elec       q    Type
REMARK                         _______ _______ _______ _____ _____    ______ ____
ROOT
ATOM      7  O   UNL     1      -2.950 -14.250  11.522  0.00  0.00    -0.268 OA
ATOM      8  N   UNL     1      -6.984 -11.509  12.385  0.00  0.00    -0.176 NA
ATOM      9  N   UNL     1      -4.749 -13.667  12.903  0.00  0.00    -0.311 N 
ATOM     10  C   UNL     1      -7.179 -13.980  12.148  0.00  0.00    +0.025 C 
ATOM     11  C   UNL     1      -6.697 -13.010  14.350  0.00  0.00    +0.053 C 
ATOM     12  C   UNL     1      -7.471 -14.113  13.633  0.00  0.00    +0.017 C 
ATOM     13  C   UNL     1      -7.634 -12.610  11.621  0.00  0.00    +0.114 C 
ATOM     14  C   UNL     1      -7.192 -11.635  13.858  0.00  0.00    +0.119 C 
ATOM     15  C   UNL     1      -5.687 -14.224  11.919  0.00  0.00    +0.130 C 
ATOM     16  C   UNL     1      -5.188 -13.151  14.139  0.00  0.00    +0.034 A 
ATOM     17  C   UNL     1      -4.278 -12.782  15.078  0.00  0.00    +0.002 A 
ATOM     18  C   UNL     1      -3.387 -13.792  12.578  0.00  0.00    +0.252 A 
ATOM     19  C   UNL     1      -2.863 -12.893  14.777  0.00  0.00    +0.015 A 
ATOM     21  C   UNL     1      -2.419 -13.350  13.607  0.00  0.00    +0.071 A 
ENDROOT
BRANCH  17  22
ATOM     22  C   UNL     1      -4.690 -12.254  16.398  0.00  0.00    -0.016 A 
ATOM     25  C   UNL     1      -4.995 -13.136  17.430  0.00  0.00    +0.008 A 
ATOM     26  C   UNL     1      -4.769 -10.879  16.597  0.00  0.00    +0.008 A 
ATOM     29  C   UNL     1      -5.383 -12.639  18.674  0.00  0.00    +0.001 A 
ATOM     30  C   UNL     1      -5.157 -10.382  17.841  0.00  0.00    +0.001 A 
ATOM     32  C   UNL     1      -5.464 -11.261  18.879  0.00  0.00    +0.000 A 
ENDBRANCH  17  22
BRANCH   8   1
ATOM      1  S   UNL     1      -7.187  -9.937  11.741  0.00  0.00    +0.061 S 
ATOM      5  O   UNL     1      -7.357  -8.997  12.829  0.00  0.00    -0.153 OA
ATOM      6  O   UNL     1      -8.138  -9.994  10.651  0.00  0.00    -0.153 OA
BRANCH   1  20
ATOM     20  C   UNL     1      -5.583  -9.677  11.049  0.00  0.00    +0.106 A 
ATOM     23  C   UNL     1      -4.462  -9.962  11.811  0.00  0.00    +0.041 A 
ATOM     24  C   UNL     1      -5.474  -9.194   9.756  0.00  0.00    +0.028 A 
ATOM     27  C   UNL     1      -3.195  -9.757  11.264  0.00  0.00    +0.057 A 
ATOM     28  C   UNL     1      -4.207  -8.988   9.209  0.00  0.00    +0.002 A 
ATOM     31  C   UNL     1      -3.068  -9.269   9.964  0.00  0.00    +0.012 A 
BRANCH  27  33
ATOM      2  F   UNL     1      -0.942  -9.197  11.840  0.00  0.00    -0.166 F 
ATOM      3  F   UNL     1      -2.189 -10.010  13.419  0.00  0.00    -0.166 F 
ATOM      4  F   UNL     1      -1.479 -11.304  11.822  0.00  0.00    -0.166 F 
ATOM     33  C   UNL     1      -1.978 -10.058  12.071  0.00  0.00    +0.417 C 
ENDBRANCH  27  33
ENDBRANCH   1  20
ENDBRANCH   8   1
TORSDOF 4
ENDMDL
MODEL 9
REMARK VINA RESULT:      -6.4     13.772     16.753
REMARK  Name = 7155440
REMARK  4 active torsions:
REMARK  status: ('A' for Active; 'I' for Inactive)
REMARK    1  A    between atoms: S_1  and  N_8
REMARK    2  A    between atoms: S_1  and  C_20
REMARK    3  A    between atoms: C_17  and  C_22
REMARK    4  A    between atoms: C_27  and  C_33
REMARK                            x       y       z     vdW  Elec       q    Type
REMARK                         _______ _______ _______ _____ _____    ______ ____
ROOT
ATOM      7  O   UNL     1      22.762  -2.473  28.507  0.00  0.00    -0.268 OA
ATOM      8  N   UNL     1      18.604  -5.130  28.067  0.00  0.00    -0.176 NA
ATOM      9  N   UNL     1      20.492  -2.612  27.944  0.00  0.00    -0.311 N 
ATOM     10  C   UNL     1      18.713  -3.236  29.680  0.00  0.00    +0.025 C 
ATOM     11  C   UNL     1      18.056  -2.809  27.354  0.00  0.00    +0.053 C 
ATOM     12  C   UNL     1      17.779  -2.418  28.804  0.00  0.00    +0.017 C 
ATOM     13  C   UNL     1      18.459  -4.740  29.497  0.00  0.00    +0.114 C 
ATOM     14  C   UNL     1      17.750  -4.308  27.161  0.00  0.00    +0.119 C 
ATOM     15  C   UNL     1      20.156  -2.847  29.354  0.00  0.00    +0.130 C 
ATOM     16  C   UNL     1      19.499  -2.493  26.951  0.00  0.00    +0.034 A 
ATOM     17  C   UNL     1      19.845  -2.130  25.689  0.00  0.00    +0.002 A 
ATOM     18  C   UNL     1      21.856  -2.397  27.676  0.00  0.00    +0.252 A 
ATOM     19  C   UNL     1      21.243  -1.905  25.374  0.00  0.00    +0.015 A 
ATOM     21  C   UNL     1      22.207  -2.037  26.283  0.00  0.00    +0.071 A 
ENDROOT
BRANCH  17  22
ATOM     22  C   UNL     1      18.835  -1.972  24.618  0.00  0.00    -0.016 A 
ATOM     25  C   UNL     1      18.700  -2.959  23.646  0.00  0.00    +0.008 A 
ATOM     26  C   UNL     1      18.028  -0.839  24.591  0.00  0.00    +0.008 A 
ATOM     29  C   UNL     1      17.749  -2.812  22.637  0.00  0.00    +0.001 A 
ATOM     30  C   UNL     1      17.076  -0.691  23.582  0.00  0.00    +0.001 A 
ATOM     32  C   UNL     1      16.937  -1.677  22.605  0.00  0.00    +0.000 A 
ENDBRANCH  17  22
BRANCH   8   1
ATOM      1  S   UNL     1      18.613  -6.811  27.753  0.00  0.00    +0.061 S 
ATOM      5  O   UNL     1      17.318  -7.363  28.093  0.00  0.00    -0.153 OA
ATOM      6  O   UNL     1      19.831  -7.385  28.285  0.00  0.00    -0.153 OA
BRANCH   1  20
ATOM     20  C   UNL     1      18.747  -6.796  25.991  0.00  0.00    +0.106 A 
ATOM     23  C   UNL     1      19.934  -6.387  25.406  0.00  0.00    +0.041 A 
ATOM     24  C   UNL     1      17.662  -7.192  25.227  0.00  0.00    +0.028 A 
ATOM     27  C   UNL     1      20.039  -6.375  24.015  0.00  0.00    +0.057 A 
ATOM     28  C   UNL     1      17.767  -7.179  23.836  0.00  0.00    +0.002 A 
ATOM     31  C   UNL     1      18.956  -6.770  23.230  0.00  0.00    +0.012 A 
BRANCH  27  33
ATOM      2  F   UNL     1      22.237  -6.935  23.254  0.00  0.00    -0.166 F 
ATOM      3  F   UNL     1      21.141  -5.461  22.100  0.00  0.00    -0.166 F 
ATOM      4  F   UNL     1      21.931  -4.937  24.056  0.00  0.00    -0.166 F 
ATOM     33  C   UNL     1      21.309  -5.938  23.367  0.00  0.00    +0.417 C 
ENDBRANCH  27  33
ENDBRANCH   1  20
ENDBRANCH   8   1
TORSDOF 4
ENDMDL
MODEL 10
REMARK VINA RESULT:      -6.4     26.757     29.047
REMARK  Name = 7155440
REMARK  4 active torsions:
REMARK  status: ('A' for Active; 'I' for Inactive)
REMARK    1  A    between atoms: S_1  and  N_8
REMARK    2  A    between atoms: S_1  and  C_20
REMARK    3  A    between atoms: C_17  and  C_22
REMARK    4  A    between atoms: C_27  and  C_33
REMARK                            x       y       z     vdW  Elec       q    Type
REMARK                         _______ _______ _______ _____ _____    ______ ____
ROOT
ATOM      7  O   UNL     1      -1.237 -11.841  13.176  0.00  0.00    -0.268 OA
ATOM      8  N   UNL     1      -6.190 -11.863  13.125  0.00  0.00    -0.176 NA
ATOM      9  N   UNL     1      -3.274 -12.377  14.199  0.00  0.00    -0.311 N 
ATOM     10  C   UNL     1      -4.930 -14.011  13.121  0.00  0.00    +0.025 C 
ATOM     11  C   UNL     1      -5.485 -12.937  15.257  0.00  0.00    +0.053 C 
ATOM     12  C   UNL     1      -5.366 -14.285  14.551  0.00  0.00    +0.017 C 
ATOM     13  C   UNL     1      -5.963 -13.139  12.391  0.00  0.00    +0.114 C 
ATOM     14  C   UNL     1      -6.560 -12.083  14.554  0.00  0.00    +0.119 C 
ATOM     15  C   UNL     1      -3.542 -13.368  13.149  0.00  0.00    +0.130 C 
ATOM     16  C   UNL     1      -4.144 -12.199  15.294  0.00  0.00    +0.034 A 
ATOM     17  C   UNL     1      -3.785 -11.380  16.316  0.00  0.00    +0.002 A 
ATOM     18  C   UNL     1      -2.041 -11.711  14.100  0.00  0.00    +0.252 A 
ATOM     19  C   UNL     1      -2.521 -10.671  16.246  0.00  0.00    +0.015 A 
ATOM     21  C   UNL     1      -1.691 -10.797  15.212  0.00  0.00    +0.071 A 
ENDROOT
BRANCH  17  22
ATOM     22  C   UNL     1      -4.656 -11.177  17.495  0.00  0.00    -0.016 A 
ATOM     25  C   UNL     1      -4.443 -11.926  18.648  0.00  0.00    +0.008 A 
ATOM     26  C   UNL     1      -5.681 -10.237  17.442  0.00  0.00    +0.008 A 
ATOM     29  C   UNL     1      -5.263 -11.734  19.760  0.00  0.00    +0.001 A 
ATOM     30  C   UNL     1      -6.501 -10.045  18.555  0.00  0.00    +0.001 A 
ATOM     32  C   UNL     1      -6.293 -10.793  19.713  0.00  0.00    +0.000 A 
ENDBRANCH  17  22
BRANCH   8   1
ATOM      1  S   UNL     1      -7.109 -10.683  12.296  0.00  0.00    +0.061 S 
ATOM      5  O   UNL     1      -7.334  -9.554  13.175  0.00  0.00    -0.153 OA
ATOM      6  O   UNL     1      -8.212 -11.332  11.621  0.00  0.00    -0.153 OA
BRANCH   1  20
ATOM     20  C   UNL     1      -5.940 -10.186  11.069  0.00  0.00    +0.106 A 
ATOM     23  C   UNL     1      -6.210 -10.438   9.734  0.00  0.00    +0.041 A 
ATOM     24  C   UNL     1      -4.773  -9.552  11.463  0.00  0.00    +0.028 A 
ATOM     27  C   UNL     1      -5.287 -10.045   8.765  0.00  0.00    +0.057 A 
ATOM     28  C   UNL     1      -3.849  -9.161  10.495  0.00  0.00    +0.002 A 
ATOM     31  C   UNL     1      -4.106  -9.408   9.146  0.00  0.00    +0.012 A 
BRANCH  27  33
ATOM      2  F   UNL     1      -6.620 -11.147   7.113  0.00  0.00    -0.166 F 
ATOM      3  F   UNL     1      -5.847  -9.184   6.606  0.00  0.00    -0.166 F 
ATOM      4  F   UNL     1      -4.503 -10.891   6.687  0.00  0.00    -0.166 F 
ATOM     33  C   UNL     1      -5.561 -10.309   7.324  0.00  0.00    +0.417 C 
ENDBRANCH  27  33
ENDBRANCH   1  20
ENDBRANCH   8   1
TORSDOF 4
ENDMDL
