MODEL 1
REMARK VINA RESULT:      -7.3      0.000      0.000
REMARK  Name = 51137065
REMARK  4 active torsions:
REMARK  status: ('A' for Active; 'I' for Inactive)
REMARK    1  A    between atoms: N_5  and  C_11
REMARK    2  A    between atoms: C_7  and  C_12
REMARK    3  A    between atoms: C_11  and  C_13
REMARK    4  A    between atoms: C_22  and  C_25
REMARK                            x       y       z     vdW  Elec       q    Type
REMARK                         _______ _______ _______ _____ _____    ______ ____
ROOT
ATOM      5  N   UNL     1      12.820   8.158  20.738  0.00  0.00    -0.297 NA
ATOM      7  C   UNL     1      11.798   9.401  22.445  0.00  0.00    +0.090 C 
ATOM      8  C   UNL     1      10.748   8.513  21.756  0.00  0.00    +0.029 C 
ATOM      9  C   UNL     1      12.993   9.408  21.482  0.00  0.00    +0.097 C 
ATOM     10  C   UNL     1      11.388   8.094  20.439  0.00  0.00    +0.085 C 
ENDROOT
BRANCH   7  12
ATOM      4  O   UNL     1      11.251  11.679  21.770  0.00  0.00    -0.439 OA
ATOM      6  N   UNL     1      10.964  11.254  23.978  0.00  0.00    -0.213 NA
ATOM     12  C   UNL     1      11.321  10.791  22.801  0.00  0.00    +0.201 A 
ATOM     14  C   UNL     1      10.802  12.823  22.364  0.00  0.00    +0.155 A 
ATOM     15  C   UNL     1      10.627  12.560  23.715  0.00  0.00    +0.110 A 
ATOM     20  C   UNL     1      10.554  14.049  21.758  0.00  0.00    +0.048 A 
ATOM     21  C   UNL     1      10.168  13.587  24.552  0.00  0.00    +0.031 A 
ATOM     23  C   UNL     1      10.095  15.062  22.606  0.00  0.00    +0.004 A 
ATOM     24  C   UNL     1       9.906  14.838  23.976  0.00  0.00    +0.002 A 
ENDBRANCH   7  12
BRANCH   5  11
ATOM     11  C   UNL     1      13.639   8.108  19.537  0.00  0.00    +0.119 C 
BRANCH  11  13
ATOM     13  C   UNL     1      15.030   7.612  19.827  0.00  0.00    -0.033 A 
ATOM     16  C   UNL     1      15.594   6.615  19.031  0.00  0.00    +0.005 A 
ATOM     17  C   UNL     1      15.755   8.149  20.891  0.00  0.00    +0.005 A 
ATOM     18  C   UNL     1      16.883   6.155  19.299  0.00  0.00    +0.012 A 
ATOM     19  C   UNL     1      17.044   7.690  21.158  0.00  0.00    +0.012 A 
ATOM     22  C   UNL     1      17.609   6.693  20.363  0.00  0.00    +0.055 A 
BRANCH  22  25
ATOM      1  F   UNL     1      19.264   6.089  21.981  0.00  0.00    -0.166 F 
ATOM      2  F   UNL     1      19.953   7.026  20.143  0.00  0.00    -0.166 F 
ATOM      3  F   UNL     1      19.250   4.969  20.123  0.00  0.00    -0.166 F 
ATOM     25  C   UNL     1      18.989   6.203  20.647  0.00  0.00    +0.417 C 
ENDBRANCH  22  25
ENDBRANCH  11  13
ENDBRANCH   5  11
TORSDOF 4
ENDMDL
MODEL 2
REMARK VINA RESULT:      -7.3     26.875     29.085
REMARK  Name = 51137065
REMARK  4 active torsions:
REMARK  status: ('A' for Active; 'I' for Inactive)
REMARK    1  A    between atoms: N_5  and  C_11
REMARK    2  A    between atoms: C_7  and  C_12
REMARK    3  A    between atoms: C_11  and  C_13
REMARK    4  A    between atoms: C_22  and  C_25
REMARK                            x       y       z     vdW  Elec       q    Type
REMARK                         _______ _______ _______ _____ _____    ______ ____
ROOT
ATOM      5  N   UNL     1     -15.041   5.935  22.031  0.00  0.00    -0.297 NA
ATOM      7  C   UNL     1     -15.770   3.925  22.995  0.00  0.00    +0.090 C 
ATOM      8  C   UNL     1     -16.972   4.673  22.395  0.00  0.00    +0.029 C 
ATOM      9  C   UNL     1     -14.655   4.978  23.070  0.00  0.00    +0.097 C 
ATOM     10  C   UNL     1     -16.486   6.103  22.192  0.00  0.00    +0.085 C 
ENDROOT
BRANCH   7  12
ATOM      4  O   UNL     1     -15.857   4.031  25.429  0.00  0.00    -0.439 OA
ATOM      6  N   UNL     1     -16.421   2.019  24.552  0.00  0.00    -0.213 NA
ATOM     12  C   UNL     1     -16.037   3.255  24.324  0.00  0.00    +0.201 A 
ATOM     14  C   UNL     1     -16.160   3.192  26.462  0.00  0.00    +0.155 A 
ATOM     15  C   UNL     1     -16.505   1.962  25.922  0.00  0.00    +0.110 A 
ATOM     20  C   UNL     1     -16.139   3.482  27.821  0.00  0.00    +0.048 A 
ATOM     21  C   UNL     1     -16.863   0.917  26.787  0.00  0.00    +0.031 A 
ATOM     23  C   UNL     1     -16.498   2.430  28.671  0.00  0.00    +0.004 A 
ATOM     24  C   UNL     1     -16.853   1.172  28.166  0.00  0.00    +0.002 A 
ENDBRANCH   7  12
BRANCH   5  11
ATOM     11  C   UNL     1     -14.322   7.195  22.142  0.00  0.00    +0.119 C 
BRANCH  11  13
ATOM     13  C   UNL     1     -13.423   7.434  20.959  0.00  0.00    -0.033 A 
ATOM     16  C   UNL     1     -13.955   7.923  19.767  0.00  0.00    +0.005 A 
ATOM     17  C   UNL     1     -12.057   7.168  21.056  0.00  0.00    +0.005 A 
ATOM     18  C   UNL     1     -13.123   8.146  18.670  0.00  0.00    +0.012 A 
ATOM     19  C   UNL     1     -11.224   7.391  19.960  0.00  0.00    +0.012 A 
ATOM     22  C   UNL     1     -11.756   7.880  18.768  0.00  0.00    +0.055 A 
BRANCH  22  25
ATOM      1  F   UNL     1     -11.515   8.647  16.515  0.00  0.00    -0.166 F 
ATOM      2  F   UNL     1     -10.271   6.978  17.144  0.00  0.00    -0.166 F 
ATOM      3  F   UNL     1      -9.844   8.988  17.854  0.00  0.00    -0.166 F 
ATOM     25  C   UNL     1     -10.865   8.120  17.595  0.00  0.00    +0.417 C 
ENDBRANCH  22  25
ENDBRANCH  11  13
ENDBRANCH   5  11
TORSDOF 4
ENDMDL
MODEL 3
REMARK VINA RESULT:      -7.3     18.922     21.867
REMARK  Name = 51137065
REMARK  4 active torsions:
REMARK  status: ('A' for Active; 'I' for Inactive)
REMARK    1  A    between atoms: N_5  and  C_11
REMARK    2  A    between atoms: C_7  and  C_12
REMARK    3  A    between atoms: C_11  and  C_13
REMARK    4  A    between atoms: C_22  and  C_25
REMARK                            x       y       z     vdW  Elec       q    Type
REMARK                         _______ _______ _______ _____ _____    ______ ____
ROOT
ATOM      5  N   UNL     1      12.022   4.809   2.394  0.00  0.00    -0.297 NA
ATOM      7  C   UNL     1      12.202   3.353   0.565  0.00  0.00    +0.090 C 
ATOM      8  C   UNL     1      13.607   3.715   1.074  0.00  0.00    +0.029 C 
ATOM      9  C   UNL     1      11.276   4.397   1.203  0.00  0.00    +0.097 C 
ATOM     10  C   UNL     1      13.406   4.951   1.941  0.00  0.00    +0.085 C 
ENDROOT
BRANCH   7  12
ATOM      4  O   UNL     1      10.796   3.224  -1.422  0.00  0.00    -0.439 OA
ATOM      6  N   UNL     1      13.022   3.286  -1.845  0.00  0.00    -0.213 NA
ATOM     12  C   UNL     1      12.068   3.288  -0.940  0.00  0.00    +0.201 A 
ATOM     14  C   UNL     1      10.969   3.176  -2.775  0.00  0.00    +0.155 A 
ATOM     15  C   UNL     1      12.332   3.214  -3.030  0.00  0.00    +0.110 A 
ATOM     20  C   UNL     1       9.983   3.101  -3.752  0.00  0.00    +0.048 A 
ATOM     21  C   UNL     1      12.774   3.176  -4.361  0.00  0.00    +0.031 A 
ATOM     23  C   UNL     1      10.440   3.065  -5.074  0.00  0.00    +0.004 A 
ATOM     24  C   UNL     1      11.807   3.101  -5.374  0.00  0.00    +0.002 A 
ENDBRANCH   7  12
BRANCH   5  11
ATOM     11  C   UNL     1      11.501   6.036   2.979  0.00  0.00    +0.119 C 
BRANCH  11  13
ATOM     13  C   UNL     1      11.051   5.833   4.400  0.00  0.00    -0.033 A 
ATOM     16  C   UNL     1      10.172   4.796   4.711  0.00  0.00    +0.005 A 
ATOM     17  C   UNL     1      11.512   6.681   5.407  0.00  0.00    +0.005 A 
ATOM     18  C   UNL     1       9.754   4.606   6.028  0.00  0.00    +0.012 A 
ATOM     19  C   UNL     1      11.095   6.492   6.724  0.00  0.00    +0.012 A 
ATOM     22  C   UNL     1      10.216   5.455   7.035  0.00  0.00    +0.055 A 
BRANCH  22  25
ATOM      1  F   UNL     1      10.732   5.550   9.369  0.00  0.00    -0.166 F 
ATOM      2  F   UNL     1       9.408   3.960   8.698  0.00  0.00    -0.166 F 
ATOM      3  F   UNL     1       8.693   6.011   8.793  0.00  0.00    -0.166 F 
ATOM     25  C   UNL     1       9.771   5.251   8.444  0.00  0.00    +0.417 C 
ENDBRANCH  22  25
ENDBRANCH  11  13
ENDBRANCH   5  11
TORSDOF 4
ENDMDL
MODEL 4
REMARK VINA RESULT:      -7.1      1.385      1.971
REMARK  Name = 51137065
REMARK  4 active torsions:
REMARK  status: ('A' for Active; 'I' for Inactive)
REMARK    1  A    between atoms: N_5  and  C_11
REMARK    2  A    between atoms: C_7  and  C_12
REMARK    3  A    between atoms: C_11  and  C_13
REMARK    4  A    between atoms: C_22  and  C_25
REMARK                            x       y       z     vdW  Elec       q    Type
REMARK                         _______ _______ _______ _____ _____    ______ ____
ROOT
ATOM      5  N   UNL     1      13.801   7.104  19.944  0.00  0.00    -0.297 NA
ATOM      7  C   UNL     1      12.618   8.058  21.731  0.00  0.00    +0.090 C 
ATOM      8  C   UNL     1      11.627   7.463  20.717  0.00  0.00    +0.029 C 
ATOM      9  C   UNL     1      13.950   8.137  20.972  0.00  0.00    +0.097 C 
ATOM     10  C   UNL     1      12.436   7.268  19.441  0.00  0.00    +0.085 C 
ENDROOT
BRANCH   7  12
ATOM      4  O   UNL     1      13.041  10.430  22.098  0.00  0.00    -0.439 OA
ATOM      6  N   UNL     1      11.129   9.656  23.038  0.00  0.00    -0.213 NA
ATOM     12  C   UNL     1      12.200   9.383  22.327  0.00  0.00    +0.201 A 
ATOM     14  C   UNL     1      12.432  11.473  22.734  0.00  0.00    +0.155 A 
ATOM     15  C   UNL     1      11.263  10.996  23.309  0.00  0.00    +0.110 A 
ATOM     20  C   UNL     1      12.874  12.789  22.815  0.00  0.00    +0.048 A 
ATOM     21  C   UNL     1      10.449  11.884  24.027  0.00  0.00    +0.031 A 
ATOM     23  C   UNL     1      12.051  13.662  23.534  0.00  0.00    +0.004 A 
ATOM     24  C   UNL     1      10.863  13.220  24.129  0.00  0.00    +0.002 A 
ENDBRANCH   7  12
BRANCH   5  11
ATOM     11  C   UNL     1      14.797   7.222  18.890  0.00  0.00    +0.119 C 
BRANCH  11  13
ATOM     13  C   UNL     1      16.170   6.830  19.369  0.00  0.00    -0.033 A 
ATOM     16  C   UNL     1      16.749   7.500  20.446  0.00  0.00    +0.005 A 
ATOM     17  C   UNL     1      16.860   5.795  18.737  0.00  0.00    +0.005 A 
ATOM     18  C   UNL     1      18.021   7.137  20.890  0.00  0.00    +0.012 A 
ATOM     19  C   UNL     1      18.131   5.432  19.182  0.00  0.00    +0.012 A 
ATOM     22  C   UNL     1      18.711   6.102  20.258  0.00  0.00    +0.055 A 
BRANCH  22  25
ATOM      1  F   UNL     1      20.221   5.811  22.090  0.00  0.00    -0.166 F 
ATOM      2  F   UNL     1      21.057   6.486  20.200  0.00  0.00    -0.166 F 
ATOM      3  F   UNL     1      20.407   4.425  20.433  0.00  0.00    -0.166 F 
ATOM     25  C   UNL     1      20.070   5.712  20.736  0.00  0.00    +0.417 C 
ENDBRANCH  22  25
ENDBRANCH  11  13
ENDBRANCH   5  11
TORSDOF 4
ENDMDL
MODEL 5
REMARK VINA RESULT:      -7.1     18.583     21.504
REMARK  Name = 51137065
REMARK  4 active torsions:
REMARK  status: ('A' for Active; 'I' for Inactive)
REMARK    1  A    between atoms: N_5  and  C_11
REMARK    2  A    between atoms: C_7  and  C_12
REMARK    3  A    between atoms: C_11  and  C_13
REMARK    4  A    between atoms: C_22  and  C_25
REMARK                            x       y       z     vdW  Elec       q    Type
REMARK                         _______ _______ _______ _____ _____    ______ ____
ROOT
ATOM      5  N   UNL     1      12.011   5.190   2.764  0.00  0.00    -0.297 NA
ATOM      7  C   UNL     1      12.093   3.731   0.929  0.00  0.00    +0.090 C 
ATOM      8  C   UNL     1      13.503   4.268   1.223  0.00  0.00    +0.029 C 
ATOM      9  C   UNL     1      11.152   4.670   1.698  0.00  0.00    +0.097 C 
ATOM     10  C   UNL     1      13.285   5.488   2.109  0.00  0.00    +0.085 C 
ENDROOT
BRANCH   7  12
ATOM      4  O   UNL     1      12.762   3.242  -1.363  0.00  0.00    -0.439 OA
ATOM      6  N   UNL     1      10.591   3.848  -1.123  0.00  0.00    -0.213 NA
ATOM     12  C   UNL     1      11.746   3.623  -0.539  0.00  0.00    +0.201 A 
ATOM     14  C   UNL     1      12.182   3.227  -2.599  0.00  0.00    +0.155 A 
ATOM     15  C   UNL     1      10.853   3.599  -2.448  0.00  0.00    +0.110 A 
ATOM     20  C   UNL     1      12.781   2.904  -3.811  0.00  0.00    +0.048 A 
ATOM     21  C   UNL     1      10.034   3.661  -3.585  0.00  0.00    +0.031 A 
ATOM     23  C   UNL     1      11.950   2.970  -4.934  0.00  0.00    +0.004 A 
ATOM     24  C   UNL     1      10.604   3.341  -4.826  0.00  0.00    +0.002 A 
ENDBRANCH   7  12
BRANCH   5  11
ATOM     11  C   UNL     1      11.439   6.357   3.418  0.00  0.00    +0.119 C 
BRANCH  11  13
ATOM     13  C   UNL     1      10.986   6.049   4.820  0.00  0.00    -0.033 A 
ATOM     16  C   UNL     1      11.631   6.639   5.906  0.00  0.00    +0.005 A 
ATOM     17  C   UNL     1       9.921   5.173   5.033  0.00  0.00    +0.005 A 
ATOM     18  C   UNL     1      11.212   6.354   7.206  0.00  0.00    +0.012 A 
ATOM     19  C   UNL     1       9.501   4.889   6.332  0.00  0.00    +0.012 A 
ATOM     22  C   UNL     1      10.146   5.479   7.418  0.00  0.00    +0.055 A 
BRANCH  22  25
ATOM      1  F   UNL     1       8.618   5.916   9.206  0.00  0.00    -0.166 F 
ATOM      2  F   UNL     1      10.666   5.415   9.738  0.00  0.00    -0.166 F 
ATOM      3  F   UNL     1       9.323   3.877   8.992  0.00  0.00    -0.166 F 
ATOM     25  C   UNL     1       9.696   5.177   8.808  0.00  0.00    +0.417 C 
ENDBRANCH  22  25
ENDBRANCH  11  13
ENDBRANCH   5  11
TORSDOF 4
ENDMDL
MODEL 6
REMARK VINA RESULT:      -6.9      5.656     10.458
REMARK  Name = 51137065
REMARK  4 active torsions:
REMARK  status: ('A' for Active; 'I' for Inactive)
REMARK    1  A    between atoms: N_5  and  C_11
REMARK    2  A    between atoms: C_7  and  C_12
REMARK    3  A    between atoms: C_11  and  C_13
REMARK    4  A    between atoms: C_22  and  C_25
REMARK                            x       y       z     vdW  Elec       q    Type
REMARK                         _______ _______ _______ _____ _____    ______ ____
ROOT
ATOM      5  N   UNL     1      17.592   7.462  21.167  0.00  0.00    -0.297 NA
ATOM      7  C   UNL     1      19.470   6.509  22.198  0.00  0.00    +0.090 C 
ATOM      8  C   UNL     1      19.555   8.041  22.291  0.00  0.00    +0.029 C 
ATOM      9  C   UNL     1      18.402   6.243  21.128  0.00  0.00    +0.097 C 
ATOM     10  C   UNL     1      18.561   8.555  21.258  0.00  0.00    +0.085 C 
ENDROOT
BRANCH   7  12
ATOM      4  O   UNL     1      21.312   5.088  22.927  0.00  0.00    -0.439 OA
ATOM      6  N   UNL     1      21.478   5.824  20.790  0.00  0.00    -0.213 NA
ATOM     12  C   UNL     1      20.782   5.816  21.905  0.00  0.00    +0.201 A 
ATOM     14  C   UNL     1      22.466   4.586  22.397  0.00  0.00    +0.155 A 
ATOM     15  C   UNL     1      22.564   5.038  21.090  0.00  0.00    +0.110 A 
ATOM     20  C   UNL     1      23.398   3.767  23.024  0.00  0.00    +0.048 A 
ATOM     21  C   UNL     1      23.674   4.657  20.322  0.00  0.00    +0.031 A 
ATOM     23  C   UNL     1      24.498   3.394  22.244  0.00  0.00    +0.004 A 
ATOM     24  C   UNL     1      24.635   3.830  20.920  0.00  0.00    +0.002 A 
ENDBRANCH   7  12
BRANCH   5  11
ATOM     11  C   UNL     1      16.721   7.588  20.008  0.00  0.00    +0.119 C 
BRANCH  11  13
ATOM     13  C   UNL     1      15.267   7.516  20.388  0.00  0.00    -0.033 A 
ATOM     16  C   UNL     1      14.854   7.942  21.650  0.00  0.00    +0.005 A 
ATOM     17  C   UNL     1      14.331   7.024  19.477  0.00  0.00    +0.005 A 
ATOM     18  C   UNL     1      13.506   7.875  22.002  0.00  0.00    +0.012 A 
ATOM     19  C   UNL     1      12.984   6.958  19.829  0.00  0.00    +0.012 A 
ATOM     22  C   UNL     1      12.571   7.384  21.091  0.00  0.00    +0.055 A 
BRANCH  22  25
ATOM      1  F   UNL     1      10.641   6.041  21.532  0.00  0.00    -0.166 F 
ATOM      2  F   UNL     1      10.323   7.972  20.583  0.00  0.00    -0.166 F 
ATOM      3  F   UNL     1      10.856   7.863  22.688  0.00  0.00    -0.166 F 
ATOM     25  C   UNL     1      11.129   7.316  21.467  0.00  0.00    +0.417 C 
ENDBRANCH  22  25
ENDBRANCH  11  13
ENDBRANCH   5  11
TORSDOF 4
ENDMDL
MODEL 7
REMARK VINA RESULT:      -6.9     27.442     28.778
REMARK  Name = 51137065
REMARK  4 active torsions:
REMARK  status: ('A' for Active; 'I' for Inactive)
REMARK    1  A    between atoms: N_5  and  C_11
REMARK    2  A    between atoms: C_7  and  C_12
REMARK    3  A    between atoms: C_11  and  C_13
REMARK    4  A    between atoms: C_22  and  C_25
REMARK                            x       y       z     vdW  Elec       q    Type
REMARK                         _______ _______ _______ _____ _____    ______ ____
ROOT
ATOM      5  N   UNL     1      -4.141 -11.647  16.492  0.00  0.00    -0.297 NA
ATOM      7  C   UNL     1      -5.698 -10.283  17.595  0.00  0.00    +0.090 C 
ATOM      8  C   UNL     1      -5.191 -11.368  18.559  0.00  0.00    +0.029 C 
ATOM      9  C   UNL     1      -5.282 -10.775  16.202  0.00  0.00    +0.097 C 
ATOM     10  C   UNL     1      -4.548 -12.421  17.666  0.00  0.00    +0.085 C 
ENDROOT
BRANCH   7  12
ATOM      4  O   UNL     1      -7.617  -8.913  16.975  0.00  0.00    -0.439 OA
ATOM      6  N   UNL     1      -8.093 -10.619  18.389  0.00  0.00    -0.213 NA
ATOM     12  C   UNL     1      -7.176  -9.982  17.696  0.00  0.00    +0.201 A 
ATOM     14  C   UNL     1      -8.954  -8.874  17.246  0.00  0.00    +0.155 A 
ATOM     15  C   UNL     1      -9.242  -9.920  18.112  0.00  0.00    +0.110 A 
ATOM     20  C   UNL     1      -9.889  -7.967  16.762  0.00  0.00    +0.048 A 
ATOM     21  C   UNL     1     -10.564 -10.097  18.545  0.00  0.00    +0.031 A 
ATOM     23  C   UNL     1     -11.203  -8.159  17.202  0.00  0.00    +0.004 A 
ATOM     24  C   UNL     1     -11.536  -9.201  18.076  0.00  0.00    +0.002 A 
ENDBRANCH   7  12
BRANCH   5  11
ATOM     11  C   UNL     1      -3.790 -12.496  15.364  0.00  0.00    +0.119 C 
BRANCH  11  13
ATOM     13  C   UNL     1      -3.633 -11.704  14.093  0.00  0.00    -0.033 A 
ATOM     16  C   UNL     1      -2.427 -11.061  13.818  0.00  0.00    +0.005 A 
ATOM     17  C   UNL     1      -4.693 -11.615  13.191  0.00  0.00    +0.005 A 
ATOM     18  C   UNL     1      -2.281 -10.327  12.641  0.00  0.00    +0.012 A 
ATOM     19  C   UNL     1      -4.547 -10.883  12.014  0.00  0.00    +0.012 A 
ATOM     22  C   UNL     1      -3.341 -10.239  11.738  0.00  0.00    +0.055 A 
BRANCH  22  25
ATOM      1  F   UNL     1      -3.971  -8.342  10.424  0.00  0.00    -0.166 F 
ATOM      2  F   UNL     1      -3.500 -10.182   9.366  0.00  0.00    -0.166 F 
ATOM      3  F   UNL     1      -1.912  -9.004  10.270  0.00  0.00    -0.166 F 
ATOM     25  C   UNL     1      -3.183  -9.457  10.477  0.00  0.00    +0.417 C 
ENDBRANCH  22  25
ENDBRANCH  11  13
ENDBRANCH   5  11
TORSDOF 4
ENDMDL
MODEL 8
REMARK VINA RESULT:      -6.8     19.995     21.780
REMARK  Name = 51137065
REMARK  4 active torsions:
REMARK  status: ('A' for Active; 'I' for Inactive)
REMARK    1  A    between atoms: N_5  and  C_11
REMARK    2  A    between atoms: C_7  and  C_12
REMARK    3  A    between atoms: C_11  and  C_13
REMARK    4  A    between atoms: C_22  and  C_25
REMARK                            x       y       z     vdW  Elec       q    Type
REMARK                         _______ _______ _______ _____ _____    ______ ____
ROOT
ATOM      5  N   UNL     1       7.629  -6.829  33.698  0.00  0.00    -0.297 NA
ATOM      7  C   UNL     1       9.945  -6.505  33.882  0.00  0.00    +0.090 C 
ATOM      8  C   UNL     1       9.206  -5.307  34.502  0.00  0.00    +0.029 C 
ATOM      9  C   UNL     1       8.879  -7.228  33.047  0.00  0.00    +0.097 C 
ATOM     10  C   UNL     1       7.783  -5.399  33.966  0.00  0.00    +0.085 C 
ENDROOT
BRANCH   7  12
ATOM      4  O   UNL     1      11.396  -6.891  31.962  0.00  0.00    -0.439 OA
ATOM      6  N   UNL     1      12.067  -5.212  33.329  0.00  0.00    -0.213 NA
ATOM     12  C   UNL     1      11.177  -6.148  33.083  0.00  0.00    +0.201 A 
ATOM     14  C   UNL     1      12.547  -6.365  31.449  0.00  0.00    +0.155 A 
ATOM     15  C   UNL     1      12.954  -5.338  32.288  0.00  0.00    +0.110 A 
ATOM     20  C   UNL     1      13.218  -6.761  30.298  0.00  0.00    +0.048 A 
ATOM     21  C   UNL     1      14.125  -4.631  31.975  0.00  0.00    +0.031 A 
ATOM     23  C   UNL     1      14.383  -6.046  30.000  0.00  0.00    +0.004 A 
ATOM     24  C   UNL     1      14.829  -5.003  30.821  0.00  0.00    +0.002 A 
ENDBRANCH   7  12
BRANCH   5  11
ATOM     11  C   UNL     1       6.461  -7.116  32.880  0.00  0.00    +0.119 C 
BRANCH  11  13
ATOM     13  C   UNL     1       6.561  -8.461  32.210  0.00  0.00    -0.033 A 
ATOM     16  C   UNL     1       6.507  -9.625  32.975  0.00  0.00    +0.005 A 
ATOM     17  C   UNL     1       6.707  -8.541  30.825  0.00  0.00    +0.005 A 
ATOM     18  C   UNL     1       6.600 -10.872  32.355  0.00  0.00    +0.012 A 
ATOM     19  C   UNL     1       6.798  -9.786  30.205  0.00  0.00    +0.012 A 
ATOM     22  C   UNL     1       6.745 -10.952  30.969  0.00  0.00    +0.055 A 
BRANCH  22  25
ATOM      1  F   UNL     1       7.732 -12.317  29.271  0.00  0.00    -0.166 F 
ATOM      2  F   UNL     1       5.652 -12.696  29.778  0.00  0.00    -0.166 F 
ATOM      3  F   UNL     1       7.235 -13.286  31.146  0.00  0.00    -0.166 F 
ATOM     25  C   UNL     1       6.841 -12.285  30.306  0.00  0.00    +0.417 C 
ENDBRANCH  22  25
ENDBRANCH  11  13
ENDBRANCH   5  11
TORSDOF 4
ENDMDL
MODEL 9
REMARK VINA RESULT:      -6.7     18.385     20.372
REMARK  Name = 51137065
REMARK  4 active torsions:
REMARK  status: ('A' for Active; 'I' for Inactive)
REMARK    1  A    between atoms: N_5  and  C_11
REMARK    2  A    between atoms: C_7  and  C_12
REMARK    3  A    between atoms: C_11  and  C_13
REMARK    4  A    between atoms: C_22  and  C_25
REMARK                            x       y       z     vdW  Elec       q    Type
REMARK                         _______ _______ _______ _____ _____    ______ ____
ROOT
ATOM      5  N   UNL     1      10.824   7.044   1.579  0.00  0.00    -0.297 NA
ATOM      7  C   UNL     1       9.387   6.806   3.417  0.00  0.00    +0.090 C 
ATOM      8  C   UNL     1       9.589   8.300   3.113  0.00  0.00    +0.029 C 
ATOM      9  C   UNL     1      10.513   6.098   2.652  0.00  0.00    +0.097 C 
ATOM     10  C   UNL     1      10.825   8.358   2.224  0.00  0.00    +0.085 C 
ENDROOT
BRANCH   7  12
ATOM      4  O   UNL     1       9.673   5.165   5.197  0.00  0.00    -0.439 OA
ATOM      6  N   UNL     1       9.079   7.233   5.908  0.00  0.00    -0.213 NA
ATOM     12  C   UNL     1       9.362   6.455   4.888  0.00  0.00    +0.201 A 
ATOM     14  C   UNL     1       9.574   5.130   6.558  0.00  0.00    +0.155 A 
ATOM     15  C   UNL     1       9.210   6.398   6.990  0.00  0.00    +0.110 A 
ATOM     20  C   UNL     1       9.790   4.041   7.394  0.00  0.00    +0.048 A 
ATOM     21  C   UNL     1       9.042   6.624   8.364  0.00  0.00    +0.031 A 
ATOM     23  C   UNL     1       9.620   4.283   8.761  0.00  0.00    +0.004 A 
ATOM     24  C   UNL     1       9.253   5.548   9.239  0.00  0.00    +0.002 A 
ENDBRANCH   7  12
BRANCH   5  11
ATOM     11  C   UNL     1      12.089   6.747   0.925  0.00  0.00    +0.119 C 
BRANCH  11  13
ATOM     13  C   UNL     1      11.980   5.561   0.004  0.00  0.00    -0.033 A 
ATOM     16  C   UNL     1      10.871   5.427  -0.829  0.00  0.00    +0.005 A 
ATOM     17  C   UNL     1      12.990   4.598  -0.016  0.00  0.00    +0.005 A 
ATOM     18  C   UNL     1      10.769   4.328  -1.683  0.00  0.00    +0.012 A 
ATOM     19  C   UNL     1      12.889   3.501  -0.870  0.00  0.00    +0.012 A 
ATOM     22  C   UNL     1      11.779   3.365  -1.704  0.00  0.00    +0.055 A 
BRANCH  22  25
ATOM      1  F   UNL     1      12.043   1.012  -2.040  0.00  0.00    -0.166 F 
ATOM      2  F   UNL     1      12.456   2.318  -3.729  0.00  0.00    -0.166 F 
ATOM      3  F   UNL     1      10.407   1.977  -3.086  0.00  0.00    -0.166 F 
ATOM     25  C   UNL     1      11.672   2.192  -2.619  0.00  0.00    +0.417 C 
ENDBRANCH  22  25
ENDBRANCH  11  13
ENDBRANCH   5  11
TORSDOF 4
ENDMDL
MODEL 10
REMARK VINA RESULT:      -6.6     15.060     16.508
REMARK  Name = 51137065
REMARK  4 active torsions:
REMARK  status: ('A' for Active; 'I' for Inactive)
REMARK    1  A    between atoms: N_5  and  C_11
REMARK    2  A    between atoms: C_7  and  C_12
REMARK    3  A    between atoms: C_11  and  C_13
REMARK    4  A    between atoms: C_22  and  C_25
REMARK                            x       y       z     vdW  Elec       q    Type
REMARK                         _______ _______ _______ _____ _____    ______ ____
ROOT
ATOM      5  N   UNL     1      16.114   8.685   5.329  0.00  0.00    -0.297 NA
ATOM      7  C   UNL     1      13.928   7.862   5.121  0.00  0.00    +0.090 C 
ATOM      8  C   UNL     1      14.052   9.190   4.357  0.00  0.00    +0.029 C 
ATOM      9  C   UNL     1      15.164   7.820   6.031  0.00  0.00    +0.097 C 
ATOM     10  C   UNL     1      15.324   9.837   4.892  0.00  0.00    +0.085 C 
ENDROOT
BRANCH   7  12
ATOM      4  O   UNL     1      12.530   6.546   6.624  0.00  0.00    -0.439 OA
ATOM      6  N   UNL     1      11.590   8.482   5.913  0.00  0.00    -0.213 NA
ATOM     12  C   UNL     1      12.632   7.683   5.879  0.00  0.00    +0.201 A 
ATOM     14  C   UNL     1      11.290   6.643   7.186  0.00  0.00    +0.155 A 
ATOM     15  C   UNL     1      10.717   7.829   6.749  0.00  0.00    +0.110 A 
ATOM     20  C   UNL     1      10.677   5.737   8.044  0.00  0.00    +0.048 A 
ATOM     21  C   UNL     1       9.428   8.162   7.190  0.00  0.00    +0.031 A 
ATOM     23  C   UNL     1       9.393   6.085   8.476  0.00  0.00    +0.004 A 
ATOM     24  C   UNL     1       8.779   7.272   8.058  0.00  0.00    +0.002 A 
ENDBRANCH   7  12
BRANCH   5  11
ATOM     11  C   UNL     1      17.238   9.072   6.169  0.00  0.00    +0.119 C 
BRANCH  11  13
ATOM     13  C   UNL     1      18.543   8.541   5.639  0.00  0.00    -0.033 A 
ATOM     16  C   UNL     1      18.647   8.155   4.304  0.00  0.00    +0.005 A 
ATOM     17  C   UNL     1      19.648   8.436   6.484  0.00  0.00    +0.005 A 
ATOM     18  C   UNL     1      19.856   7.663   3.812  0.00  0.00    +0.012 A 
ATOM     19  C   UNL     1      20.857   7.946   5.993  0.00  0.00    +0.012 A 
ATOM     22  C   UNL     1      20.962   7.559   4.657  0.00  0.00    +0.055 A 
BRANCH  22  25
ATOM      1  F   UNL     1      22.247   5.689   3.899  0.00  0.00    -0.166 F 
ATOM      2  F   UNL     1      23.297   7.254   4.984  0.00  0.00    -0.166 F 
ATOM      3  F   UNL     1      22.630   7.598   2.943  0.00  0.00    -0.166 F 
ATOM     25  C   UNL     1      22.256   7.036   4.130  0.00  0.00    +0.417 C 
ENDBRANCH  22  25
ENDBRANCH  11  13
ENDBRANCH   5  11
TORSDOF 4
ENDMDL
