MODEL 1
REMARK VINA RESULT:      -6.2      0.000      0.000
REMARK  Name = 38027267
REMARK  12 active torsions:
REMARK  status: ('A' for Active; 'I' for Inactive)
REMARK    1  A    between atoms: N_3  and  C_15
REMARK    2  A    between atoms: N_4  and  C_14
REMARK    3  A    between atoms: N_5  and  C_25
REMARK    4  A    between atoms: C_6  and  C_10
REMARK    5  A    between atoms: C_7  and  C_14
REMARK    6  A    between atoms: C_9  and  C_13
REMARK    7  A    between atoms: C_10  and  C_16
REMARK    8  A    between atoms: C_10  and  C_17
REMARK    9  A    between atoms: C_11  and  C_20
REMARK   10  A    between atoms: C_13  and  C_21
REMARK   11  A    between atoms: C_25  and  C_26
REMARK   12  A    between atoms: C_25  and  C_27
REMARK                            x       y       z     vdW  Elec       q    Type
REMARK                         _______ _______ _______ _____ _____    ______ ____
ROOT
ATOM      6  C   UNL     1     -15.305   1.381  30.071  0.00  0.00    +0.000 C 
ATOM      7  C   UNL     1     -16.582   1.621  29.226  0.00  0.00    +0.032 C 
ATOM      8  C   UNL     1     -15.498   1.919  31.497  0.00  0.00    +0.012 C 
ATOM      9  C   UNL     1     -15.818   3.425  31.514  0.00  0.00    +0.023 C 
ATOM     11  C   UNL     1     -16.890   3.784  30.505  0.00  0.00    -0.073 C 
ATOM     12  C   UNL     1     -17.227   2.959  29.497  0.00  0.00    -0.022 C 
ATOM     20  C   UNL     1     -17.598   5.095  30.708  0.00  0.00    +0.039 C 
ENDROOT
BRANCH   6  10
ATOM     10  C   UNL     1     -14.928  -0.103  30.122  0.00  0.00    -0.013 C 
ATOM     16  C   UNL     1     -13.464  -0.294  29.739  0.00  0.00    +0.007 C 
ATOM     17  C   UNL     1     -15.203  -0.674  31.510  0.00  0.00    +0.007 C 
ENDBRANCH   6  10
BRANCH   9  13
ATOM     13  C   UNL     1     -14.553   4.260  31.292  0.00  0.00    +0.103 C 
BRANCH  13  21
ATOM      1  O   UNL     1     -13.977   4.802  33.578  0.00  0.00    -0.276 OA
ATOM      3  N   UNL     1     -14.401   6.517  32.068  0.00  0.00    -0.312 N 
ATOM     21  C   UNL     1     -14.274   5.191  32.451  0.00  0.00    +0.214 C 
ATOM     28  H   UNL     1     -14.612   6.733  31.098  0.00  0.00    +0.149 HD
BRANCH   3  15
ATOM     15  C   UNL     1     -14.194   7.622  32.972  0.00  0.00    +0.073 C 
ATOM     18  C   UNL     1     -14.798   8.911  32.431  0.00  0.00    +0.022 C 
ATOM     19  C   UNL     1     -12.718   7.972  33.112  0.00  0.00    +0.022 C 
ATOM     22  C   UNL     1     -13.753   9.445  31.455  0.00  0.00    +0.002 C 
ATOM     23  C   UNL     1     -12.411   8.875  31.917  0.00  0.00    +0.002 C 
ENDBRANCH   3  15
ENDBRANCH  13  21
ENDBRANCH   9  13
BRANCH   7  14
ATOM     14  C   UNL     1     -16.284   1.491  27.727  0.00  0.00    +0.113 C 
BRANCH  14   4
ATOM      2  O   UNL     1     -16.097   2.072  24.906  0.00  0.00    -0.253 OA
ATOM      4  N   UNL     1     -16.174   2.780  27.118  0.00  0.00    -0.299 N 
ATOM      5  N   UNL     1     -15.989   4.333  25.415  0.00  0.00    -0.297 N 
ATOM     24  C   UNL     1     -16.087   2.981  25.735  0.00  0.00    +0.300 C 
ATOM     29  H   UNL     1     -16.228   3.603  27.711  0.00  0.00    +0.150 HD
ATOM     30  H   UNL     1     -15.909   5.004  26.173  0.00  0.00    +0.150 HD
BRANCH   5  25
ATOM     25  C   UNL     1     -15.886   4.810  24.055  0.00  0.00    +0.068 C 
ATOM     26  C   UNL     1     -14.424   4.907  23.637  0.00  0.00    +0.027 C 
ATOM     27  C   UNL     1     -16.593   6.150  23.904  0.00  0.00    +0.027 C 
ENDBRANCH   5  25
ENDBRANCH  14   4
ENDBRANCH   7  14
TORSDOF 7
ENDMDL
MODEL 2
REMARK VINA RESULT:      -6.2      5.837     11.102
REMARK  Name = 38027267
REMARK  12 active torsions:
REMARK  status: ('A' for Active; 'I' for Inactive)
REMARK    1  A    between atoms: N_3  and  C_15
REMARK    2  A    between atoms: N_4  and  C_14
REMARK    3  A    between atoms: N_5  and  C_25
REMARK    4  A    between atoms: C_6  and  C_10
REMARK    5  A    between atoms: C_7  and  C_14
REMARK    6  A    between atoms: C_9  and  C_13
REMARK    7  A    between atoms: C_10  and  C_16
REMARK    8  A    between atoms: C_10  and  C_17
REMARK    9  A    between atoms: C_11  and  C_20
REMARK   10  A    between atoms: C_13  and  C_21
REMARK   11  A    between atoms: C_25  and  C_26
REMARK   12  A    between atoms: C_25  and  C_27
REMARK                            x       y       z     vdW  Elec       q    Type
REMARK                         _______ _______ _______ _____ _____    ______ ____
ROOT
ATOM      6  C   UNL     1     -15.386   6.288  21.453  0.00  0.00    +0.000 C 
ATOM      7  C   UNL     1     -14.239   5.384  21.970  0.00  0.00    +0.032 C 
ATOM      8  C   UNL     1     -15.044   6.846  20.064  0.00  0.00    +0.012 C 
ATOM      9  C   UNL     1     -13.741   7.667  20.069  0.00  0.00    +0.023 C 
ATOM     11  C   UNL     1     -12.627   6.949  20.803  0.00  0.00    -0.073 C 
ATOM     12  C   UNL     1     -12.868   5.922  21.638  0.00  0.00    -0.022 C 
ATOM     20  C   UNL     1     -11.224   7.409  20.520  0.00  0.00    +0.039 C 
ENDROOT
BRANCH   6  10
ATOM     10  C   UNL     1     -16.721   5.538  21.397  0.00  0.00    -0.013 C 
ATOM     16  C   UNL     1     -17.759   6.232  22.274  0.00  0.00    +0.007 C 
ATOM     17  C   UNL     1     -17.212   5.433  19.957  0.00  0.00    +0.007 C 
ENDBRANCH   6  10
BRANCH   9  13
ATOM     13  C   UNL     1     -13.971   9.064  20.654  0.00  0.00    +0.103 C 
BRANCH  13  21
ATOM      1  O   UNL     1     -13.417  11.345  20.065  0.00  0.00    -0.276 OA
ATOM      3  N   UNL     1     -12.826   9.617  18.629  0.00  0.00    -0.312 N 
ATOM     21  C   UNL     1     -13.387  10.151  19.778  0.00  0.00    +0.214 C 
ATOM     28  H   UNL     1     -12.818   8.608  18.505  0.00  0.00    +0.149 HD
BRANCH   3  15
ATOM     15  C   UNL     1     -12.197  10.422  17.611  0.00  0.00    +0.073 C 
ATOM     18  C   UNL     1     -12.029   9.652  16.308  0.00  0.00    +0.022 C 
ATOM     19  C   UNL     1     -10.763  10.783  17.978  0.00  0.00    +0.022 C 
ATOM     22  C   UNL     1     -10.762   8.825  16.512  0.00  0.00    +0.002 C 
ATOM     23  C   UNL     1      -9.930   9.574  17.553  0.00  0.00    +0.002 C 
ENDBRANCH   3  15
ENDBRANCH  13  21
ENDBRANCH   9  13
BRANCH   7  14
ATOM     14  C   UNL     1     -14.349   5.163  23.483  0.00  0.00    +0.113 C 
BRANCH  14   4
ATOM      2  O   UNL     1     -16.594   4.344  25.102  0.00  0.00    -0.253 OA
ATOM      4  N   UNL     1     -14.760   3.825  23.772  0.00  0.00    -0.299 N 
ATOM      5  N   UNL     1     -16.039   2.129  24.687  0.00  0.00    -0.297 N 
ATOM     24  C   UNL     1     -15.866   3.506  24.571  0.00  0.00    +0.300 C 
ATOM     29  H   UNL     1     -14.267   3.058  23.324  0.00  0.00    +0.150 HD
ATOM     30  H   UNL     1     -15.340   1.518  24.277  0.00  0.00    +0.150 HD
BRANCH   5  25
ATOM     25  C   UNL     1     -17.108   1.537  25.457  0.00  0.00    +0.068 C 
ATOM     26  C   UNL     1     -16.586   1.055  26.805  0.00  0.00    +0.027 C 
ATOM     27  C   UNL     1     -17.762   0.402  24.681  0.00  0.00    +0.027 C 
ENDBRANCH   5  25
ENDBRANCH  14   4
ENDBRANCH   7  14
TORSDOF 7
ENDMDL
MODEL 3
REMARK VINA RESULT:      -6.1     20.432     24.362
REMARK  Name = 38027267
REMARK  12 active torsions:
REMARK  status: ('A' for Active; 'I' for Inactive)
REMARK    1  A    between atoms: N_3  and  C_15
REMARK    2  A    between atoms: N_4  and  C_14
REMARK    3  A    between atoms: N_5  and  C_25
REMARK    4  A    between atoms: C_6  and  C_10
REMARK    5  A    between atoms: C_7  and  C_14
REMARK    6  A    between atoms: C_9  and  C_13
REMARK    7  A    between atoms: C_10  and  C_16
REMARK    8  A    between atoms: C_10  and  C_17
REMARK    9  A    between atoms: C_11  and  C_20
REMARK   10  A    between atoms: C_13  and  C_21
REMARK   11  A    between atoms: C_25  and  C_26
REMARK   12  A    between atoms: C_25  and  C_27
REMARK                            x       y       z     vdW  Elec       q    Type
REMARK                         _______ _______ _______ _____ _____    ______ ____
ROOT
ATOM      6  C   UNL     1      -4.932 -12.173  16.047  0.00  0.00    +0.000 C 
ATOM      7  C   UNL     1      -4.193 -11.667  17.312  0.00  0.00    +0.032 C 
ATOM      8  C   UNL     1      -3.925 -12.655  14.994  0.00  0.00    +0.012 C 
ATOM      9  C   UNL     1      -2.944 -11.545  14.573  0.00  0.00    +0.023 C 
ATOM     11  C   UNL     1      -2.373 -10.815  15.772  0.00  0.00    -0.073 C 
ATOM     12  C   UNL     1      -2.937 -10.892  16.991  0.00  0.00    -0.022 C 
ATOM     20  C   UNL     1      -1.111 -10.029  15.547  0.00  0.00    +0.039 C 
ENDROOT
BRANCH   6  10
ATOM     10  C   UNL     1      -5.918 -13.299  16.377  0.00  0.00    -0.013 C 
ATOM     16  C   UNL     1      -7.133 -13.230  15.459  0.00  0.00    +0.007 C 
ATOM     17  C   UNL     1      -5.231 -14.657  16.264  0.00  0.00    +0.007 C 
ENDBRANCH   6  10
BRANCH   9  13
ATOM     13  C   UNL     1      -3.605 -10.565  13.598  0.00  0.00    +0.103 C 
BRANCH  13  21
ATOM      1  O   UNL     1      -1.905 -11.113  11.966  0.00  0.00    -0.276 OA
ATOM      3  N   UNL     1      -3.922 -10.203  11.256  0.00  0.00    -0.312 N 
ATOM     21  C   UNL     1      -3.026 -10.670  12.205  0.00  0.00    +0.214 C 
ATOM     28  H   UNL     1      -4.842  -9.894  11.555  0.00  0.00    +0.149 HD
BRANCH   3  15
ATOM     15  C   UNL     1      -3.634 -10.183   9.843  0.00  0.00    +0.073 C 
ATOM     18  C   UNL     1      -4.121  -8.896   9.188  0.00  0.00    +0.022 C 
ATOM     19  C   UNL     1      -4.407 -11.258   9.090  0.00  0.00    +0.022 C 
ATOM     22  C   UNL     1      -5.607  -9.133   8.935  0.00  0.00    +0.002 C 
ATOM     23  C   UNL     1      -5.784 -10.647   8.831  0.00  0.00    +0.002 C 
ENDBRANCH   3  15
ENDBRANCH  13  21
ENDBRANCH   9  13
BRANCH   7  14
ATOM     14  C   UNL     1      -5.115 -10.807  18.184  0.00  0.00    +0.113 C 
BRANCH  14   4
ATOM      2  O   UNL     1      -8.000 -10.770  18.144  0.00  0.00    -0.253 OA
ATOM      4  N   UNL     1      -5.954  -9.981  17.375  0.00  0.00    -0.299 N 
ATOM      5  N   UNL     1      -7.921  -9.111  16.523  0.00  0.00    -0.297 N 
ATOM     24  C   UNL     1      -7.354 -10.021  17.412  0.00  0.00    +0.300 C 
ATOM     29  H   UNL     1      -5.519  -9.276  16.786  0.00  0.00    +0.150 HD
ATOM     30  H   UNL     1      -7.304  -8.593  15.904  0.00  0.00    +0.150 HD
BRANCH   5  25
ATOM     25  C   UNL     1      -9.348  -8.955  16.367  0.00  0.00    +0.068 C 
ATOM     26  C   UNL     1      -9.702  -8.757  14.898  0.00  0.00    +0.027 C 
ATOM     27  C   UNL     1      -9.855  -7.798  17.218  0.00  0.00    +0.027 C 
ENDBRANCH   5  25
ENDBRANCH  14   4
ENDBRANCH   7  14
TORSDOF 7
ENDMDL
MODEL 4
REMARK VINA RESULT:      -6.1     19.247     23.181
REMARK  Name = 38027267
REMARK  12 active torsions:
REMARK  status: ('A' for Active; 'I' for Inactive)
REMARK    1  A    between atoms: N_3  and  C_15
REMARK    2  A    between atoms: N_4  and  C_14
REMARK    3  A    between atoms: N_5  and  C_25
REMARK    4  A    between atoms: C_6  and  C_10
REMARK    5  A    between atoms: C_7  and  C_14
REMARK    6  A    between atoms: C_9  and  C_13
REMARK    7  A    between atoms: C_10  and  C_16
REMARK    8  A    between atoms: C_10  and  C_17
REMARK    9  A    between atoms: C_11  and  C_20
REMARK   10  A    between atoms: C_13  and  C_21
REMARK   11  A    between atoms: C_25  and  C_26
REMARK   12  A    between atoms: C_25  and  C_27
REMARK                            x       y       z     vdW  Elec       q    Type
REMARK                         _______ _______ _______ _____ _____    ______ ____
ROOT
ATOM      6  C   UNL     1      -6.531 -11.005  16.256  0.00  0.00    +0.000 C 
ATOM      7  C   UNL     1      -6.935 -11.191  17.740  0.00  0.00    +0.032 C 
ATOM      8  C   UNL     1      -5.426 -12.000  15.872  0.00  0.00    +0.012 C 
ATOM      9  C   UNL     1      -4.167 -11.839  16.743  0.00  0.00    +0.023 C 
ATOM     11  C   UNL     1      -4.510 -11.744  18.216  0.00  0.00    -0.073 C 
ATOM     12  C   UNL     1      -5.756 -11.467  18.643  0.00  0.00    -0.022 C 
ATOM     20  C   UNL     1      -3.398 -12.021  19.190  0.00  0.00    +0.039 C 
ENDROOT
BRANCH   6  10
ATOM     10  C   UNL     1      -7.729 -11.170  15.315  0.00  0.00    -0.013 C 
ATOM     16  C   UNL     1      -7.300 -10.966  13.865  0.00  0.00    +0.007 C 
ATOM     17  C   UNL     1      -8.367 -12.543  15.503  0.00  0.00    +0.007 C 
ENDBRANCH   6  10
BRANCH   9  13
ATOM     13  C   UNL     1      -3.336 -10.632  16.295  0.00  0.00    +0.103 C 
BRANCH  13  21
ATOM      1  O   UNL     1      -1.117 -11.289  15.587  0.00  0.00    -0.276 OA
ATOM      3  N   UNL     1      -2.790 -11.008  13.998  0.00  0.00    -0.312 N 
ATOM     21  C   UNL     1      -2.276 -11.014  15.286  0.00  0.00    +0.214 C 
ATOM     28  H   UNL     1      -3.775 -10.805  13.860  0.00  0.00    +0.149 HD
BRANCH   3  15
ATOM     15  C   UNL     1      -2.002 -11.332  12.834  0.00  0.00    +0.073 C 
ATOM     18  C   UNL     1      -1.878 -10.143  11.891  0.00  0.00    +0.022 C 
ATOM     19  C   UNL     1      -2.678 -12.384  11.965  0.00  0.00    +0.022 C 
ATOM     22  C   UNL     1      -3.173 -10.157  11.083  0.00  0.00    +0.002 C 
ATOM     23  C   UNL     1      -3.664 -11.605  11.096  0.00  0.00    +0.002 C 
ENDBRANCH   3  15
ENDBRANCH  13  21
ENDBRANCH   9  13
BRANCH   7  14
ATOM     14  C   UNL     1      -7.703  -9.971  18.261  0.00  0.00    +0.113 C 
BRANCH  14   4
ATOM      2  O   UNL     1     -10.554 -10.301  17.962  0.00  0.00    -0.253 OA
ATOM      4  N   UNL     1      -8.636 -10.353  19.274  0.00  0.00    -0.299 N 
ATOM      5  N   UNL     1     -10.687 -10.874  20.207  0.00  0.00    -0.297 N 
ATOM     24  C   UNL     1     -10.012 -10.492  19.050  0.00  0.00    +0.300 C 
ATOM     29  H   UNL     1      -8.281 -10.603  20.192  0.00  0.00    +0.150 HD
ATOM     30  H   UNL     1     -10.164 -10.931  21.075  0.00  0.00    +0.150 HD
BRANCH   5  25
ATOM     25  C   UNL     1     -12.116 -11.086  20.245  0.00  0.00    +0.068 C 
ATOM     26  C   UNL     1     -12.821  -9.844  20.776  0.00  0.00    +0.027 C 
ATOM     27  C   UNL     1     -12.453 -12.312  21.083  0.00  0.00    +0.027 C 
ENDBRANCH   5  25
ENDBRANCH  14   4
ENDBRANCH   7  14
TORSDOF 7
ENDMDL
MODEL 5
REMARK VINA RESULT:      -6.0     28.925     30.945
REMARK  Name = 38027267
REMARK  12 active torsions:
REMARK  status: ('A' for Active; 'I' for Inactive)
REMARK    1  A    between atoms: N_3  and  C_15
REMARK    2  A    between atoms: N_4  and  C_14
REMARK    3  A    between atoms: N_5  and  C_25
REMARK    4  A    between atoms: C_6  and  C_10
REMARK    5  A    between atoms: C_7  and  C_14
REMARK    6  A    between atoms: C_9  and  C_13
REMARK    7  A    between atoms: C_10  and  C_16
REMARK    8  A    between atoms: C_10  and  C_17
REMARK    9  A    between atoms: C_11  and  C_20
REMARK   10  A    between atoms: C_13  and  C_21
REMARK   11  A    between atoms: C_25  and  C_26
REMARK   12  A    between atoms: C_25  and  C_27
REMARK                            x       y       z     vdW  Elec       q    Type
REMARK                         _______ _______ _______ _____ _____    ______ ____
ROOT
ATOM      6  C   UNL     1      14.886   8.094  20.047  0.00  0.00    +0.000 C 
ATOM      7  C   UNL     1      13.835   7.178  19.372  0.00  0.00    +0.032 C 
ATOM      8  C   UNL     1      14.631   8.180  21.559  0.00  0.00    +0.012 C 
ATOM      9  C   UNL     1      13.228   8.727  21.883  0.00  0.00    +0.023 C 
ATOM     11  C   UNL     1      12.155   8.051  21.053  0.00  0.00    -0.073 C 
ATOM     12  C   UNL     1      12.447   7.352  19.941  0.00  0.00    -0.022 C 
ATOM     20  C   UNL     1      10.742   8.160  21.556  0.00  0.00    +0.039 C 
ENDROOT
BRANCH   6  10
ATOM     10  C   UNL     1      16.316   7.607  19.788  0.00  0.00    -0.013 C 
ATOM     16  C   UNL     1      17.282   8.233  20.789  0.00  0.00    +0.007 C 
ATOM     17  C   UNL     1      16.378   6.084  19.857  0.00  0.00    +0.007 C 
ENDBRANCH   6  10
BRANCH   9  13
ATOM     13  C   UNL     1      13.175  10.248  21.715  0.00  0.00    +0.103 C 
BRANCH  13  21
ATOM      1  O   UNL     1      14.585  11.073  23.500  0.00  0.00    -0.276 OA
ATOM      3  N   UNL     1      12.301  11.502  23.553  0.00  0.00    -0.312 N 
ATOM     21  C   UNL     1      13.463  10.975  23.010  0.00  0.00    +0.214 C 
ATOM     28  H   UNL     1      11.427  11.399  23.046  0.00  0.00    +0.149 HD
BRANCH   3  15
ATOM     15  C   UNL     1      12.276  12.246  24.789  0.00  0.00    +0.073 C 
ATOM     18  C   UNL     1      10.866  12.354  25.352  0.00  0.00    +0.022 C 
ATOM     19  C   UNL     1      12.672  13.702  24.584  0.00  0.00    +0.022 C 
ATOM     22  C   UNL     1      10.233  13.511  24.583  0.00  0.00    +0.002 C 
ATOM     23  C   UNL     1      11.390  14.398  24.125  0.00  0.00    +0.002 C 
ENDBRANCH   3  15
ENDBRANCH  13  21
ENDBRANCH   9  13
BRANCH   7  14
ATOM     14  C   UNL     1      13.797   7.404  17.856  0.00  0.00    +0.113 C 
BRANCH  14   4
ATOM      2  O   UNL     1      13.762   8.631  15.244  0.00  0.00    -0.253 OA
ATOM      4  N   UNL     1      14.132   8.756  17.535  0.00  0.00    -0.299 N 
ATOM      5  N   UNL     1      14.464  10.621  16.209  0.00  0.00    -0.297 N 
ATOM     24  C   UNL     1      14.090   9.280  16.237  0.00  0.00    +0.300 C 
ATOM     29  H   UNL     1      14.349   9.395  18.294  0.00  0.00    +0.150 HD
ATOM     30  H   UNL     1      14.795  11.048  17.069  0.00  0.00    +0.150 HD
BRANCH   5  25
ATOM     25  C   UNL     1      14.506  11.397  14.992  0.00  0.00    +0.068 C 
ATOM     26  C   UNL     1      15.863  11.248  14.315  0.00  0.00    +0.027 C 
ATOM     27  C   UNL     1      14.190  12.859  15.278  0.00  0.00    +0.027 C 
ENDBRANCH   5  25
ENDBRANCH  14   4
ENDBRANCH   7  14
TORSDOF 7
ENDMDL
MODEL 6
REMARK VINA RESULT:      -6.0      8.146     12.986
REMARK  Name = 38027267
REMARK  12 active torsions:
REMARK  status: ('A' for Active; 'I' for Inactive)
REMARK    1  A    between atoms: N_3  and  C_15
REMARK    2  A    between atoms: N_4  and  C_14
REMARK    3  A    between atoms: N_5  and  C_25
REMARK    4  A    between atoms: C_6  and  C_10
REMARK    5  A    between atoms: C_7  and  C_14
REMARK    6  A    between atoms: C_9  and  C_13
REMARK    7  A    between atoms: C_10  and  C_16
REMARK    8  A    between atoms: C_10  and  C_17
REMARK    9  A    between atoms: C_11  and  C_20
REMARK   10  A    between atoms: C_13  and  C_21
REMARK   11  A    between atoms: C_25  and  C_26
REMARK   12  A    between atoms: C_25  and  C_27
REMARK                            x       y       z     vdW  Elec       q    Type
REMARK                         _______ _______ _______ _____ _____    ______ ____
ROOT
ATOM      6  C   UNL     1     -12.130  10.248  19.206  0.00  0.00    +0.000 C 
ATOM      7  C   UNL     1     -10.760   9.646  19.607  0.00  0.00    +0.032 C 
ATOM      8  C   UNL     1     -13.207   9.862  20.231  0.00  0.00    +0.012 C 
ATOM      9  C   UNL     1     -13.365   8.336  20.363  0.00  0.00    +0.023 C 
ATOM     11  C   UNL     1     -12.025   7.640  20.494  0.00  0.00    -0.073 C 
ATOM     12  C   UNL     1     -10.871   8.246  20.164  0.00  0.00    -0.022 C 
ATOM     20  C   UNL     1     -12.039   6.246  21.057  0.00  0.00    +0.039 C 
ENDROOT
BRANCH   6  10
ATOM     10  C   UNL     1     -12.063  11.773  19.072  0.00  0.00    -0.013 C 
ATOM     16  C   UNL     1     -12.515  12.207  17.681  0.00  0.00    +0.007 C 
ATOM     17  C   UNL     1     -12.914  12.439  20.150  0.00  0.00    +0.007 C 
ENDBRANCH   6  10
BRANCH   9  13
ATOM     13  C   UNL     1     -14.170   7.761  19.193  0.00  0.00    +0.103 C 
BRANCH  13  21
ATOM      1  O   UNL     1     -16.580   7.655  19.010  0.00  0.00    -0.276 OA
ATOM      3  N   UNL     1     -15.515   6.547  20.752  0.00  0.00    -0.312 N 
ATOM     21  C   UNL     1     -15.559   7.334  19.613  0.00  0.00    +0.214 C 
ATOM     28  H   UNL     1     -14.613   6.305  21.152  0.00  0.00    +0.149 HD
BRANCH   3  15
ATOM     15  C   UNL     1     -16.694   5.999  21.378  0.00  0.00    +0.073 C 
ATOM     18  C   UNL     1     -17.347   7.001  22.320  0.00  0.00    +0.022 C 
ATOM     19  C   UNL     1     -16.359   4.835  22.301  0.00  0.00    +0.022 C 
ATOM     22  C   UNL     1     -16.546   6.890  23.614  0.00  0.00    +0.002 C 
ATOM     23  C   UNL     1     -15.945   5.484  23.622  0.00  0.00    +0.002 C 
ENDBRANCH   3  15
ENDBRANCH  13  21
ENDBRANCH   9  13
BRANCH   7  14
ATOM     14  C   UNL     1      -9.786   9.649  18.423  0.00  0.00    +0.113 C 
BRANCH  14   4
ATOM      2  O   UNL     1     -10.372  10.244  15.660  0.00  0.00    -0.253 OA
ATOM      4  N   UNL     1     -10.211   8.729  17.415  0.00  0.00    -0.299 N 
ATOM      5  N   UNL     1     -10.873   8.004  15.320  0.00  0.00    -0.297 N 
ATOM     24  C   UNL     1     -10.477   9.096  16.089  0.00  0.00    +0.300 C 
ATOM     29  H   UNL     1     -10.260   7.742  17.648  0.00  0.00    +0.150 HD
ATOM     30  H   UNL     1     -11.005   7.111  15.783  0.00  0.00    +0.150 HD
BRANCH   5  25
ATOM     25  C   UNL     1     -11.206   8.114  13.919  0.00  0.00    +0.068 C 
ATOM     26  C   UNL     1     -12.573   7.497  13.651  0.00  0.00    +0.027 C 
ATOM     27  C   UNL     1     -10.129   7.463  13.061  0.00  0.00    +0.027 C 
ENDBRANCH   5  25
ENDBRANCH  14   4
ENDBRANCH   7  14
TORSDOF 7
ENDMDL
MODEL 7
REMARK VINA RESULT:      -6.0     29.469     32.145
REMARK  Name = 38027267
REMARK  12 active torsions:
REMARK  status: ('A' for Active; 'I' for Inactive)
REMARK    1  A    between atoms: N_3  and  C_15
REMARK    2  A    between atoms: N_4  and  C_14
REMARK    3  A    between atoms: N_5  and  C_25
REMARK    4  A    between atoms: C_6  and  C_10
REMARK    5  A    between atoms: C_7  and  C_14
REMARK    6  A    between atoms: C_9  and  C_13
REMARK    7  A    between atoms: C_10  and  C_16
REMARK    8  A    between atoms: C_10  and  C_17
REMARK    9  A    between atoms: C_11  and  C_20
REMARK   10  A    between atoms: C_13  and  C_21
REMARK   11  A    between atoms: C_25  and  C_26
REMARK   12  A    between atoms: C_25  and  C_27
REMARK                            x       y       z     vdW  Elec       q    Type
REMARK                         _______ _______ _______ _____ _____    ______ ____
ROOT
ATOM      6  C   UNL     1      13.983  11.568  20.693  0.00  0.00    +0.000 C 
ATOM      7  C   UNL     1      14.214  12.290  22.045  0.00  0.00    +0.032 C 
ATOM      8  C   UNL     1      12.481  11.404  20.422  0.00  0.00    +0.012 C 
ATOM      9  C   UNL     1      11.772  10.603  21.530  0.00  0.00    +0.023 C 
ATOM     11  C   UNL     1      12.161  11.088  22.912  0.00  0.00    -0.073 C 
ATOM     12  C   UNL     1      13.249  11.852  23.120  0.00  0.00    -0.022 C 
ATOM     20  C   UNL     1      11.246  10.712  24.044  0.00  0.00    +0.039 C 
ENDROOT
BRANCH   6  10
ATOM     10  C   UNL     1      14.643  12.315  19.529  0.00  0.00    -0.013 C 
ATOM     16  C   UNL     1      15.601  11.394  18.780  0.00  0.00    +0.007 C 
ATOM     17  C   UNL     1      13.581  12.874  18.587  0.00  0.00    +0.007 C 
ENDBRANCH   6  10
BRANCH   9  13
ATOM     13  C   UNL     1      12.036   9.101  21.381  0.00  0.00    +0.103 C 
BRANCH  13  21
ATOM      1  O   UNL     1      10.411   8.440  19.715  0.00  0.00    -0.276 OA
ATOM      3  N   UNL     1      12.678   8.272  19.233  0.00  0.00    -0.312 N 
ATOM     21  C   UNL     1      11.589   8.575  20.036  0.00  0.00    +0.214 C 
ATOM     28  H   UNL     1      13.615   8.459  19.578  0.00  0.00    +0.149 HD
BRANCH   3  15
ATOM     15  C   UNL     1      12.549   7.750  17.894  0.00  0.00    +0.073 C 
ATOM     18  C   UNL     1      13.902   7.625  17.207  0.00  0.00    +0.022 C 
ATOM     19  C   UNL     1      11.792   8.706  16.981  0.00  0.00    +0.022 C 
ATOM     22  C   UNL     1      14.199   9.029  16.686  0.00  0.00    +0.002 C 
ATOM     23  C   UNL     1      12.842   9.708  16.502  0.00  0.00    +0.002 C 
ENDBRANCH   3  15
ENDBRANCH  13  21
ENDBRANCH   9  13
BRANCH   7  14
ATOM     14  C   UNL     1      15.652  12.094  22.538  0.00  0.00    +0.113 C 
BRANCH  14   4
ATOM      2  O   UNL     1      17.980  10.954  21.269  0.00  0.00    -0.253 OA
ATOM      4  N   UNL     1      16.020  10.714  22.495  0.00  0.00    -0.299 N 
ATOM      5  N   UNL     1      17.287   8.852  21.967  0.00  0.00    -0.297 N 
ATOM     24  C   UNL     1      17.171  10.236  21.856  0.00  0.00    +0.300 C 
ATOM     29  H   UNL     1      15.455  10.045  23.010  0.00  0.00    +0.150 HD
ATOM     30  H   UNL     1      16.528   8.338  22.403  0.00  0.00    +0.150 HD
BRANCH   5  25
ATOM     25  C   UNL     1      18.386   8.110  21.394  0.00  0.00    +0.068 C 
ATOM     26  C   UNL     1      17.868   6.876  20.665  0.00  0.00    +0.027 C 
ATOM     27  C   UNL     1      19.395   7.733  22.470  0.00  0.00    +0.027 C 
ENDBRANCH   5  25
ENDBRANCH  14   4
ENDBRANCH   7  14
TORSDOF 7
ENDMDL
MODEL 8
REMARK VINA RESULT:      -6.0      8.828     14.630
REMARK  Name = 38027267
REMARK  12 active torsions:
REMARK  status: ('A' for Active; 'I' for Inactive)
REMARK    1  A    between atoms: N_3  and  C_15
REMARK    2  A    between atoms: N_4  and  C_14
REMARK    3  A    between atoms: N_5  and  C_25
REMARK    4  A    between atoms: C_6  and  C_10
REMARK    5  A    between atoms: C_7  and  C_14
REMARK    6  A    between atoms: C_9  and  C_13
REMARK    7  A    between atoms: C_10  and  C_16
REMARK    8  A    between atoms: C_10  and  C_17
REMARK    9  A    between atoms: C_11  and  C_20
REMARK   10  A    between atoms: C_13  and  C_21
REMARK   11  A    between atoms: C_25  and  C_26
REMARK   12  A    between atoms: C_25  and  C_27
REMARK                            x       y       z     vdW  Elec       q    Type
REMARK                         _______ _______ _______ _____ _____    ______ ____
ROOT
ATOM      6  C   UNL     1     -12.329   8.673  20.021  0.00  0.00    +0.000 C 
ATOM      7  C   UNL     1     -11.568   9.943  20.480  0.00  0.00    +0.032 C 
ATOM      8  C   UNL     1     -11.497   7.892  18.993  0.00  0.00    +0.012 C 
ATOM      9  C   UNL     1     -11.163   8.737  17.750  0.00  0.00    +0.023 C 
ATOM     11  C   UNL     1     -10.655  10.115  18.125  0.00  0.00    -0.073 C 
ATOM     12  C   UNL     1     -10.834  10.631  19.354  0.00  0.00    -0.022 C 
ATOM     20  C   UNL     1      -9.896  10.867  17.068  0.00  0.00    +0.039 C 
ENDROOT
BRANCH   6  10
ATOM     10  C   UNL     1     -12.682   7.764  21.202  0.00  0.00    -0.013 C 
ATOM     16  C   UNL     1     -14.194   7.590  21.307  0.00  0.00    +0.007 C 
ATOM     17  C   UNL     1     -11.991   6.412  21.058  0.00  0.00    +0.007 C 
ENDBRANCH   6  10
BRANCH   9  13
ATOM     13  C   UNL     1     -12.368   8.834  16.809  0.00  0.00    +0.103 C 
BRANCH  13  21
ATOM      1  O   UNL     1     -10.889   8.420  14.939  0.00  0.00    -0.276 OA
ATOM      3  N   UNL     1     -13.160   7.979  14.721  0.00  0.00    -0.312 N 
ATOM     21  C   UNL     1     -12.027   8.398  15.401  0.00  0.00    +0.214 C 
ATOM     28  H   UNL     1     -14.051   7.961  15.209  0.00  0.00    +0.149 HD
BRANCH   3  15
ATOM     15  C   UNL     1     -13.133   7.510  13.358  0.00  0.00    +0.073 C 
ATOM     18  C   UNL     1     -13.247   8.659  12.365  0.00  0.00    +0.022 C 
ATOM     19  C   UNL     1     -14.349   6.655  13.026  0.00  0.00    +0.022 C 
ATOM     22  C   UNL     1     -14.742   8.953  12.288  0.00  0.00    +0.002 C 
ATOM     23  C   UNL     1     -15.450   7.654  12.673  0.00  0.00    +0.002 C 
ENDBRANCH   3  15
ENDBRANCH  13  21
ENDBRANCH   9  13
BRANCH   7  14
ATOM     14  C   UNL     1     -12.515  10.940  21.158  0.00  0.00    +0.113 C 
BRANCH  14   4
ATOM      2  O   UNL     1     -13.331  10.043  23.777  0.00  0.00    -0.253 OA
ATOM      4  N   UNL     1     -11.989  11.366  22.416  0.00  0.00    -0.299 N 
ATOM      5  N   UNL     1     -11.754  11.464  24.715  0.00  0.00    -0.297 N 
ATOM     24  C   UNL     1     -12.439  10.882  23.651  0.00  0.00    +0.300 C 
ATOM     29  H   UNL     1     -11.199  12.005  22.421  0.00  0.00    +0.150 HD
ATOM     30  H   UNL     1     -11.090  12.205  24.514  0.00  0.00    +0.150 HD
BRANCH   5  25
ATOM     25  C   UNL     1     -12.029  11.137  26.095  0.00  0.00    +0.068 C 
ATOM     26  C   UNL     1     -12.223  12.409  26.912  0.00  0.00    +0.027 C 
ATOM     27  C   UNL     1     -10.914  10.275  26.672  0.00  0.00    +0.027 C 
ENDBRANCH   5  25
ENDBRANCH  14   4
ENDBRANCH   7  14
TORSDOF 7
ENDMDL
MODEL 9
REMARK VINA RESULT:      -6.0     28.488     31.238
REMARK  Name = 38027267
REMARK  12 active torsions:
REMARK  status: ('A' for Active; 'I' for Inactive)
REMARK    1  A    between atoms: N_3  and  C_15
REMARK    2  A    between atoms: N_4  and  C_14
REMARK    3  A    between atoms: N_5  and  C_25
REMARK    4  A    between atoms: C_6  and  C_10
REMARK    5  A    between atoms: C_7  and  C_14
REMARK    6  A    between atoms: C_9  and  C_13
REMARK    7  A    between atoms: C_10  and  C_16
REMARK    8  A    between atoms: C_10  and  C_17
REMARK    9  A    between atoms: C_11  and  C_20
REMARK   10  A    between atoms: C_13  and  C_21
REMARK   11  A    between atoms: C_25  and  C_26
REMARK   12  A    between atoms: C_25  and  C_27
REMARK                            x       y       z     vdW  Elec       q    Type
REMARK                         _______ _______ _______ _____ _____    ______ ____
ROOT
ATOM      6  C   UNL     1      12.727   8.720  20.508  0.00  0.00    +0.000 C 
ATOM      7  C   UNL     1      12.710  10.012  21.364  0.00  0.00    +0.032 C 
ATOM      8  C   UNL     1      13.834   8.795  19.446  0.00  0.00    +0.012 C 
ATOM      9  C   UNL     1      13.657  10.001  18.504  0.00  0.00    +0.023 C 
ATOM     11  C   UNL     1      13.367  11.276  19.270  0.00  0.00    -0.073 C 
ATOM     12  C   UNL     1      12.957  11.261  20.552  0.00  0.00    -0.022 C 
ATOM     20  C   UNL     1      13.602  12.570  18.543  0.00  0.00    +0.039 C 
ENDROOT
BRANCH   6  10
ATOM     10  C   UNL     1      12.921   7.469  21.371  0.00  0.00    -0.013 C 
ATOM     16  C   UNL     1      11.729   6.528  21.220  0.00  0.00    +0.007 C 
ATOM     17  C   UNL     1      14.220   6.761  20.999  0.00  0.00    +0.007 C 
ENDBRANCH   6  10
BRANCH   9  13
ATOM     13  C   UNL     1      12.571   9.730  17.458  0.00  0.00    +0.103 C 
BRANCH  13  21
ATOM      1  O   UNL     1      13.110   8.807  15.288  0.00  0.00    -0.276 OA
ATOM      3  N   UNL     1      13.613  11.029  15.743  0.00  0.00    -0.312 N 
ATOM     21  C   UNL     1      13.116   9.772  16.048  0.00  0.00    +0.214 C 
ATOM     28  H   UNL     1      13.533  11.773  16.430  0.00  0.00    +0.149 HD
BRANCH   3  15
ATOM     15  C   UNL     1      14.196  11.358  14.465  0.00  0.00    +0.073 C 
ATOM     18  C   UNL     1      15.671  10.985  14.408  0.00  0.00    +0.022 C 
ATOM     19  C   UNL     1      14.218  12.861  14.219  0.00  0.00    +0.022 C 
ATOM     22  C   UNL     1      16.388  12.146  15.092  0.00  0.00    +0.002 C 
ATOM     23  C   UNL     1      15.473  13.360  14.935  0.00  0.00    +0.002 C 
ENDBRANCH   3  15
ENDBRANCH  13  21
ENDBRANCH   9  13
BRANCH   7  14
ATOM     14  C   UNL     1      11.387  10.152  22.126  0.00  0.00    +0.113 C 
BRANCH  14   4
ATOM      2  O   UNL     1      10.498  11.668  24.415  0.00  0.00    -0.253 OA
ATOM      4  N   UNL     1      10.951  11.513  22.141  0.00  0.00    -0.299 N 
ATOM      5  N   UNL     1      10.162  13.498  23.027  0.00  0.00    -0.297 N 
ATOM     24  C   UNL     1      10.532  12.182  23.297  0.00  0.00    +0.300 C 
ATOM     29  H   UNL     1      11.008  12.050  21.280  0.00  0.00    +0.150 HD
ATOM     30  H   UNL     1      10.150  13.807  22.060  0.00  0.00    +0.150 HD
BRANCH   5  25
ATOM     25  C   UNL     1       9.691  14.404  24.049  0.00  0.00    +0.068 C 
ATOM     26  C   UNL     1       8.811  15.485  23.433  0.00  0.00    +0.027 C 
ATOM     27  C   UNL     1      10.865  15.012  24.806  0.00  0.00    +0.027 C 
ENDBRANCH   5  25
ENDBRANCH  14   4
ENDBRANCH   7  14
TORSDOF 7
ENDMDL
MODEL 10
REMARK VINA RESULT:      -5.9     10.407     13.916
REMARK  Name = 38027267
REMARK  12 active torsions:
REMARK  status: ('A' for Active; 'I' for Inactive)
REMARK    1  A    between atoms: N_3  and  C_15
REMARK    2  A    between atoms: N_4  and  C_14
REMARK    3  A    between atoms: N_5  and  C_25
REMARK    4  A    between atoms: C_6  and  C_10
REMARK    5  A    between atoms: C_7  and  C_14
REMARK    6  A    between atoms: C_9  and  C_13
REMARK    7  A    between atoms: C_10  and  C_16
REMARK    8  A    between atoms: C_10  and  C_17
REMARK    9  A    between atoms: C_11  and  C_20
REMARK   10  A    between atoms: C_13  and  C_21
REMARK   11  A    between atoms: C_25  and  C_26
REMARK   12  A    between atoms: C_25  and  C_27
REMARK                            x       y       z     vdW  Elec       q    Type
REMARK                         _______ _______ _______ _____ _____    ______ ____
ROOT
ATOM      6  C   UNL     1     -12.110  10.274  19.203  0.00  0.00    +0.000 C 
ATOM      7  C   UNL     1     -10.752   9.652  19.617  0.00  0.00    +0.032 C 
ATOM      8  C   UNL     1     -13.199   9.912  20.224  0.00  0.00    +0.012 C 
ATOM      9  C   UNL     1     -13.384   8.390  20.365  0.00  0.00    +0.023 C 
ATOM     11  C   UNL     1     -12.056   7.673  20.509  0.00  0.00    -0.073 C 
ATOM     12  C   UNL     1     -10.890   8.258  20.183  0.00  0.00    -0.022 C 
ATOM     20  C   UNL     1     -12.096   6.283  21.081  0.00  0.00    +0.039 C 
ENDROOT
BRANCH   6  10
ATOM     10  C   UNL     1     -12.018  11.797  19.060  0.00  0.00    -0.013 C 
ATOM     16  C   UNL     1     -12.458  12.228  17.665  0.00  0.00    +0.007 C 
ATOM     17  C   UNL     1     -12.860  12.483  20.130  0.00  0.00    +0.007 C 
ENDBRANCH   6  10
BRANCH   9  13
ATOM     13  C   UNL     1     -14.190   7.820  19.194  0.00  0.00    +0.103 C 
BRANCH  13  21
ATOM      1  O   UNL     1     -15.662   6.788  20.813  0.00  0.00    -0.276 OA
ATOM      3  N   UNL     1     -16.349   6.980  18.602  0.00  0.00    -0.312 N 
ATOM     21  C   UNL     1     -15.461   7.142  19.654  0.00  0.00    +0.214 C 
ATOM     28  H   UNL     1     -16.103   7.346  17.686  0.00  0.00    +0.149 HD
BRANCH   3  15
ATOM     15  C   UNL     1     -17.643   6.361  18.750  0.00  0.00    +0.073 C 
ATOM     18  C   UNL     1     -17.672   4.965  18.141  0.00  0.00    +0.022 C 
ATOM     19  C   UNL     1     -18.719   7.096  17.962  0.00  0.00    +0.022 C 
ATOM     22  C   UNL     1     -17.898   5.202  16.650  0.00  0.00    +0.002 C 
ATOM     23  C   UNL     1     -18.608   6.551  16.538  0.00  0.00    +0.002 C 
ENDBRANCH   3  15
ENDBRANCH  13  21
ENDBRANCH   9  13
BRANCH   7  14
ATOM     14  C   UNL     1      -9.772   9.631  18.439  0.00  0.00    +0.113 C 
BRANCH  14   4
ATOM      2  O   UNL     1     -10.388  10.235  15.685  0.00  0.00    -0.253 OA
ATOM      4  N   UNL     1     -10.206   8.714  17.433  0.00  0.00    -0.299 N 
ATOM      5  N   UNL     1     -10.890   7.995  15.344  0.00  0.00    -0.297 N 
ATOM     24  C   UNL     1     -10.487   9.085  16.112  0.00  0.00    +0.300 C 
ATOM     29  H   UNL     1     -10.253   7.726  17.664  0.00  0.00    +0.150 HD
ATOM     30  H   UNL     1     -11.018   7.100  15.805  0.00  0.00    +0.150 HD
BRANCH   5  25
ATOM     25  C   UNL     1     -11.239   8.109  13.946  0.00  0.00    +0.068 C 
ATOM     26  C   UNL     1     -12.625   7.525  13.698  0.00  0.00    +0.027 C 
ATOM     27  C   UNL     1     -10.190   7.429  13.076  0.00  0.00    +0.027 C 
ENDBRANCH   5  25
ENDBRANCH  14   4
ENDBRANCH   7  14
TORSDOF 7
ENDMDL
