MODEL 1
REMARK VINA RESULT:      -7.0      0.000      0.000
REMARK  Name = 38031028
REMARK  12 active torsions:
REMARK  status: ('A' for Active; 'I' for Inactive)
REMARK    1  A    between atoms: N_3  and  C_13
REMARK    2  A    between atoms: N_3  and  C_19
REMARK    3  A    between atoms: C_6  and  C_10
REMARK    4  A    between atoms: C_7  and  C_13
REMARK    5  A    between atoms: C_9  and  C_14
REMARK    6  A    between atoms: C_10  and  C_15
REMARK    7  A    between atoms: C_10  and  C_16
REMARK    8  A    between atoms: C_11  and  C_17
REMARK    9  A    between atoms: C_14  and  C_18
REMARK   10  A    between atoms: C_19  and  C_20
REMARK   11  A    between atoms: C_19  and  C_21
REMARK   12  A    between atoms: C_22  and  C_23
REMARK                            x       y       z     vdW  Elec       q    Type
REMARK                         _______ _______ _______ _____ _____    ______ ____
ROOT
ATOM      6  C   UNL     1      12.714  10.306  21.839  0.00  0.00    +0.000 C 
ATOM      7  C   UNL     1      11.272  10.026  22.329  0.00  0.00    +0.029 C 
ATOM      8  C   UNL     1      13.039   9.446  20.609  0.00  0.00    +0.012 C 
ATOM      9  C   UNL     1      12.908   7.939  20.901  0.00  0.00    +0.024 C 
ATOM     11  C   UNL     1      11.620   7.617  21.630  0.00  0.00    -0.073 C 
ATOM     12  C   UNL     1      10.896   8.565  22.252  0.00  0.00    -0.023 C 
ATOM     17  C   UNL     1      11.159   6.187  21.591  0.00  0.00    +0.039 C 
ENDROOT
BRANCH   6  10
ATOM     10  C   UNL     1      12.924  11.787  21.506  0.00  0.00    -0.013 C 
ATOM     15  C   UNL     1      13.049  11.980  19.998  0.00  0.00    +0.007 C 
ATOM     16  C   UNL     1      14.157  12.325  22.224  0.00  0.00    +0.007 C 
ENDBRANCH   6  10
BRANCH   7  13
ATOM     13  C   UNL     1      11.066  10.530  23.763  0.00  0.00    +0.089 C 
BRANCH  13   3
ATOM      3  N   UNL     1      10.119  11.631  23.788  0.00  0.00    -0.313 NA
ATOM     29  H   UNL     1       9.951  11.956  22.836  0.00  0.00    +0.122 HD
BRANCH   3  19
ATOM     19  C   UNL     1      10.622  12.737  24.594  0.00  0.00    +0.047 C 
ATOM     20  C   UNL     1      10.828  13.974  23.725  0.00  0.00    +0.023 C 
ATOM     21  C   UNL     1      11.922  12.321  25.274  0.00  0.00    +0.023 C 
ENDBRANCH   3  19
ENDBRANCH  13   3
ENDBRANCH   7  13
BRANCH   9  14
ATOM     14  C   UNL     1      14.123   7.419  21.677  0.00  0.00    +0.105 C 
BRANCH  14  18
ATOM      2  O   UNL     1      16.475   6.920  21.260  0.00  0.00    -0.420 OA
ATOM      4  N   UNL     1      15.142   6.595  19.493  0.00  0.00    -0.112 NA
ATOM      5  N   UNL     1      16.434   6.276  19.117  0.00  0.00    -0.107 NA
ATOM     18  C   UNL     1      15.213   6.965  20.750  0.00  0.00    +0.218 A 
ATOM     22  C   UNL     1      17.177   6.481  20.180  0.00  0.00    +0.251 A 
BRANCH  22  23
ATOM      1  F   UNL     1      18.809   8.581  21.063  0.00  0.00    -0.205 F 
ATOM     23  C   UNL     1      18.588   6.316  20.374  0.00  0.00    +0.074 A 
ATOM     24  C   UNL     1      19.366   7.387  20.815  0.00  0.00    +0.136 A 
ATOM     25  C   UNL     1      19.184   5.080  20.120  0.00  0.00    +0.016 A 
ATOM     26  C   UNL     1      20.739   7.221  21.002  0.00  0.00    +0.039 A 
ATOM     27  C   UNL     1      20.556   4.915  20.307  0.00  0.00    +0.001 A 
ATOM     28  C   UNL     1      21.333   5.986  20.748  0.00  0.00    +0.003 A 
ENDBRANCH  22  23
ENDBRANCH  14  18
ENDBRANCH   9  14
TORSDOF 7
ENDMDL
MODEL 2
REMARK VINA RESULT:      -7.0      2.194      3.377
REMARK  Name = 38031028
REMARK  12 active torsions:
REMARK  status: ('A' for Active; 'I' for Inactive)
REMARK    1  A    between atoms: N_3  and  C_13
REMARK    2  A    between atoms: N_3  and  C_19
REMARK    3  A    between atoms: C_6  and  C_10
REMARK    4  A    between atoms: C_7  and  C_13
REMARK    5  A    between atoms: C_9  and  C_14
REMARK    6  A    between atoms: C_10  and  C_15
REMARK    7  A    between atoms: C_10  and  C_16
REMARK    8  A    between atoms: C_11  and  C_17
REMARK    9  A    between atoms: C_14  and  C_18
REMARK   10  A    between atoms: C_19  and  C_20
REMARK   11  A    between atoms: C_19  and  C_21
REMARK   12  A    between atoms: C_22  and  C_23
REMARK                            x       y       z     vdW  Elec       q    Type
REMARK                         _______ _______ _______ _____ _____    ______ ____
ROOT
ATOM      6  C   UNL     1      13.583   9.744  21.095  0.00  0.00    +0.000 C 
ATOM      7  C   UNL     1      12.455   9.958  20.055  0.00  0.00    +0.029 C 
ATOM      8  C   UNL     1      14.945   9.631  20.394  0.00  0.00    +0.012 C 
ATOM      9  C   UNL     1      14.985   8.468  19.384  0.00  0.00    +0.024 C 
ATOM     11  C   UNL     1      13.761   8.456  18.492  0.00  0.00    -0.073 C 
ATOM     12  C   UNL     1      12.644   9.137  18.801  0.00  0.00    -0.023 C 
ATOM     17  C   UNL     1      13.866   7.675  17.210  0.00  0.00    +0.039 C 
ENDROOT
BRANCH   6  10
ATOM     10  C   UNL     1      13.624  10.873  22.130  0.00  0.00    -0.013 C 
ATOM     15  C   UNL     1      13.718  12.228  21.434  0.00  0.00    +0.007 C 
ATOM     16  C   UNL     1      14.793  10.675  23.088  0.00  0.00    +0.007 C 
ENDBRANCH   6  10
BRANCH   7  13
ATOM     13  C   UNL     1      11.079   9.656  20.660  0.00  0.00    +0.089 C 
BRANCH  13   3
ATOM      3  N   UNL     1      10.628   8.331  20.270  0.00  0.00    -0.313 NA
ATOM     29  H   UNL     1       9.694   8.396  19.865  0.00  0.00    +0.122 HD
BRANCH   3  19
ATOM     19  C   UNL     1      10.597   7.429  21.415  0.00  0.00    +0.047 C 
ATOM     20  C   UNL     1      10.677   8.223  22.716  0.00  0.00    +0.023 C 
ATOM     21  C   UNL     1      11.747   6.433  21.309  0.00  0.00    +0.023 C 
ENDBRANCH   3  19
ENDBRANCH  13   3
ENDBRANCH   7  13
BRANCH   9  14
ATOM     14  C   UNL     1      15.158   7.123  20.098  0.00  0.00    +0.105 C 
BRANCH  14  18
ATOM      2  O   UNL     1      17.532   6.832  20.584  0.00  0.00    -0.420 OA
ATOM      4  N   UNL     1      16.807   5.662  18.820  0.00  0.00    -0.112 NA
ATOM      5  N   UNL     1      18.157   5.405  18.978  0.00  0.00    -0.107 NA
ATOM     18  C   UNL     1      16.486   6.499  19.779  0.00  0.00    +0.218 A 
ATOM     22  C   UNL     1      18.536   6.109  20.019  0.00  0.00    +0.251 A 
BRANCH  22  23
ATOM      1  F   UNL     1      20.278   3.926  20.270  0.00  0.00    -0.205 F 
ATOM     23  C   UNL     1      19.823   6.231  20.641  0.00  0.00    +0.074 A 
ATOM     24  C   UNL     1      20.660   5.120  20.747  0.00  0.00    +0.136 A 
ATOM     25  C   UNL     1      20.236   7.465  21.142  0.00  0.00    +0.016 A 
ATOM     26  C   UNL     1      21.910   5.244  21.353  0.00  0.00    +0.039 A 
ATOM     27  C   UNL     1      21.486   7.589  21.748  0.00  0.00    +0.001 A 
ATOM     28  C   UNL     1      22.324   6.478  21.853  0.00  0.00    +0.003 A 
ENDBRANCH  22  23
ENDBRANCH  14  18
ENDBRANCH   9  14
TORSDOF 7
ENDMDL
MODEL 3
REMARK VINA RESULT:      -6.6     27.505     29.048
REMARK  Name = 38031028
REMARK  12 active torsions:
REMARK  status: ('A' for Active; 'I' for Inactive)
REMARK    1  A    between atoms: N_3  and  C_13
REMARK    2  A    between atoms: N_3  and  C_19
REMARK    3  A    between atoms: C_6  and  C_10
REMARK    4  A    between atoms: C_7  and  C_13
REMARK    5  A    between atoms: C_9  and  C_14
REMARK    6  A    between atoms: C_10  and  C_15
REMARK    7  A    between atoms: C_10  and  C_16
REMARK    8  A    between atoms: C_11  and  C_17
REMARK    9  A    between atoms: C_14  and  C_18
REMARK   10  A    between atoms: C_19  and  C_20
REMARK   11  A    between atoms: C_19  and  C_21
REMARK   12  A    between atoms: C_22  and  C_23
REMARK                            x       y       z     vdW  Elec       q    Type
REMARK                         _______ _______ _______ _____ _____    ______ ____
ROOT
ATOM      6  C   UNL     1      -6.462 -11.042  16.067  0.00  0.00    +0.000 C 
ATOM      7  C   UNL     1      -7.004 -11.044  17.518  0.00  0.00    +0.029 C 
ATOM      8  C   UNL     1      -5.427 -12.161  15.880  0.00  0.00    +0.012 C 
ATOM      9  C   UNL     1      -4.235 -12.020  16.846  0.00  0.00    +0.024 C 
ATOM     11  C   UNL     1      -4.691 -11.750  18.265  0.00  0.00    -0.073 C 
ATOM     12  C   UNL     1      -5.935 -11.327  18.548  0.00  0.00    -0.023 C 
ATOM     17  C   UNL     1      -3.695 -12.021  19.359  0.00  0.00    +0.039 C 
ENDROOT
BRANCH   6  10
ATOM     10  C   UNL     1      -7.587 -11.198  15.039  0.00  0.00    -0.013 C 
ATOM     15  C   UNL     1      -7.314 -12.394  14.131  0.00  0.00    +0.007 C 
ATOM     16  C   UNL     1      -7.742  -9.921  14.220  0.00  0.00    +0.007 C 
ENDBRANCH   6  10
BRANCH   7  13
ATOM     13  C   UNL     1      -7.696  -9.717  17.853  0.00  0.00    +0.089 C 
BRANCH  13   3
ATOM      3  N   UNL     1      -8.924  -9.952  18.593  0.00  0.00    -0.313 NA
ATOM     29  H   UNL     1      -9.066 -10.955  18.706  0.00  0.00    +0.122 HD
BRANCH   3  19
ATOM     19  C   UNL     1     -10.071  -9.375  17.903  0.00  0.00    +0.047 C 
ATOM     20  C   UNL     1     -10.690 -10.401  16.958  0.00  0.00    +0.023 C 
ATOM     21  C   UNL     1      -9.633  -8.126  17.145  0.00  0.00    +0.023 C 
ENDBRANCH   3  19
ENDBRANCH  13   3
ENDBRANCH   7  13
BRANCH   9  14
ATOM     14  C   UNL     1      -3.261 -10.939  16.366  0.00  0.00    +0.105 C 
BRANCH  14  18
ATOM      2  O   UNL     1      -3.739 -10.420  14.031  0.00  0.00    -0.420 OA
ATOM      4  N   UNL     1      -1.997 -11.793  14.327  0.00  0.00    -0.112 NA
ATOM      5  N   UNL     1      -2.153 -11.587  12.968  0.00  0.00    -0.107 NA
ATOM     18  C   UNL     1      -2.944 -11.093  14.907  0.00  0.00    +0.218 A 
ATOM     22  C   UNL     1      -3.180 -10.780  12.843  0.00  0.00    +0.251 A 
BRANCH  22  23
ATOM      1  F   UNL     1      -1.701  -9.400  10.902  0.00  0.00    -0.205 F 
ATOM     23  C   UNL     1      -3.793 -10.228  11.669  0.00  0.00    +0.074 A 
ATOM     24  C   UNL     1      -3.022  -9.548  10.727  0.00  0.00    +0.136 A 
ATOM     25  C   UNL     1      -5.167 -10.373  11.472  0.00  0.00    +0.016 A 
ATOM     26  C   UNL     1      -3.623  -9.014   9.588  0.00  0.00    +0.039 A 
ATOM     27  C   UNL     1      -5.768  -9.839  10.333  0.00  0.00    +0.001 A 
ATOM     28  C   UNL     1      -4.996  -9.159   9.390  0.00  0.00    +0.003 A 
ENDBRANCH  22  23
ENDBRANCH  14  18
ENDBRANCH   9  14
TORSDOF 7
ENDMDL
MODEL 4
REMARK VINA RESULT:      -6.3     27.287     29.738
REMARK  Name = 38031028
REMARK  12 active torsions:
REMARK  status: ('A' for Active; 'I' for Inactive)
REMARK    1  A    between atoms: N_3  and  C_13
REMARK    2  A    between atoms: N_3  and  C_19
REMARK    3  A    between atoms: C_6  and  C_10
REMARK    4  A    between atoms: C_7  and  C_13
REMARK    5  A    between atoms: C_9  and  C_14
REMARK    6  A    between atoms: C_10  and  C_15
REMARK    7  A    between atoms: C_10  and  C_16
REMARK    8  A    between atoms: C_11  and  C_17
REMARK    9  A    between atoms: C_14  and  C_18
REMARK   10  A    between atoms: C_19  and  C_20
REMARK   11  A    between atoms: C_19  and  C_21
REMARK   12  A    between atoms: C_22  and  C_23
REMARK                            x       y       z     vdW  Elec       q    Type
REMARK                         _______ _______ _______ _____ _____    ______ ____
ROOT
ATOM      6  C   UNL     1      -6.338  -9.848  10.012  0.00  0.00    +0.000 C 
ATOM      7  C   UNL     1      -5.448  -9.424   8.818  0.00  0.00    +0.029 C 
ATOM      8  C   UNL     1      -5.883  -9.144  11.299  0.00  0.00    +0.012 C 
ATOM      9  C   UNL     1      -4.416  -9.460  11.647  0.00  0.00    +0.024 C 
ATOM     11  C   UNL     1      -3.509  -9.322  10.443  0.00  0.00    -0.073 C 
ATOM     12  C   UNL     1      -3.988  -9.295   9.187  0.00  0.00    -0.023 C 
ATOM     17  C   UNL     1      -2.037  -9.172  10.717  0.00  0.00    +0.039 C 
ENDROOT
BRANCH   6  10
ATOM     10  C   UNL     1      -7.818  -9.548   9.752  0.00  0.00    -0.013 C 
ATOM     15  C   UNL     1      -7.984  -8.138   9.193  0.00  0.00    +0.007 C 
ATOM     16  C   UNL     1      -8.629  -9.721  11.032  0.00  0.00    +0.007 C 
ENDBRANCH   6  10
BRANCH   7  13
ATOM     13  C   UNL     1      -5.593 -10.399   7.644  0.00  0.00    +0.089 C 
BRANCH  13   3
ATOM      3  N   UNL     1      -4.463 -11.311   7.592  0.00  0.00    -0.313 NA
ATOM     29  H   UNL     1      -4.045 -11.281   6.663  0.00  0.00    +0.122 HD
BRANCH   3  19
ATOM     19  C   UNL     1      -4.877 -12.677   7.893  0.00  0.00    +0.047 C 
ATOM     20  C   UNL     1      -6.394 -12.805   7.783  0.00  0.00    +0.023 C 
ATOM     21  C   UNL     1      -4.394 -13.059   9.288  0.00  0.00    +0.023 C 
ENDBRANCH   3  19
ENDBRANCH  13   3
ENDBRANCH   7  13
BRANCH   9  14
ATOM     14  C   UNL     1      -4.287 -10.852  12.277  0.00  0.00    +0.105 C 
BRANCH  14  18
ATOM      2  O   UNL     1      -4.712 -10.895  14.679  0.00  0.00    -0.420 OA
ATOM      4  N   UNL     1      -2.563 -10.595  14.134  0.00  0.00    -0.112 NA
ATOM      5  N   UNL     1      -2.658 -10.599  15.514  0.00  0.00    -0.107 NA
ATOM     18  C   UNL     1      -3.785 -10.772  13.689  0.00  0.00    +0.218 A 
ATOM     22  C   UNL     1      -3.929 -10.777  15.786  0.00  0.00    +0.251 A 
BRANCH  22  23
ATOM      1  F   UNL     1      -6.287  -9.351  16.304  0.00  0.00    -0.205 F 
ATOM     23  C   UNL     1      -4.609 -10.864  17.046  0.00  0.00    +0.074 A 
ATOM     24  C   UNL     1      -5.779 -10.138  17.264  0.00  0.00    +0.136 A 
ATOM     25  C   UNL     1      -4.094 -11.677  18.056  0.00  0.00    +0.016 A 
ATOM     26  C   UNL     1      -6.436 -10.226  18.492  0.00  0.00    +0.039 A 
ATOM     27  C   UNL     1      -4.750 -11.764  19.283  0.00  0.00    +0.001 A 
ATOM     28  C   UNL     1      -5.922 -11.039  19.501  0.00  0.00    +0.003 A 
ENDBRANCH  22  23
ENDBRANCH  14  18
ENDBRANCH   9  14
TORSDOF 7
ENDMDL
MODEL 5
REMARK VINA RESULT:      -6.3      3.550      6.091
REMARK  Name = 38031028
REMARK  12 active torsions:
REMARK  status: ('A' for Active; 'I' for Inactive)
REMARK    1  A    between atoms: N_3  and  C_13
REMARK    2  A    between atoms: N_3  and  C_19
REMARK    3  A    between atoms: C_6  and  C_10
REMARK    4  A    between atoms: C_7  and  C_13
REMARK    5  A    between atoms: C_9  and  C_14
REMARK    6  A    between atoms: C_10  and  C_15
REMARK    7  A    between atoms: C_10  and  C_16
REMARK    8  A    between atoms: C_11  and  C_17
REMARK    9  A    between atoms: C_14  and  C_18
REMARK   10  A    between atoms: C_19  and  C_20
REMARK   11  A    between atoms: C_19  and  C_21
REMARK   12  A    between atoms: C_22  and  C_23
REMARK                            x       y       z     vdW  Elec       q    Type
REMARK                         _______ _______ _______ _____ _____    ______ ____
ROOT
ATOM      6  C   UNL     1      16.826   8.365  21.448  0.00  0.00    +0.000 C 
ATOM      7  C   UNL     1      16.133   7.457  20.402  0.00  0.00    +0.029 C 
ATOM      8  C   UNL     1      18.312   8.546  21.101  0.00  0.00    +0.012 C 
ATOM      9  C   UNL     1      19.064   7.203  21.045  0.00  0.00    +0.024 C 
ATOM     11  C   UNL     1      18.305   6.165  20.246  0.00  0.00    -0.073 C 
ATOM     12  C   UNL     1      16.999   6.301  19.957  0.00  0.00    -0.023 C 
ATOM     17  C   UNL     1      19.093   4.985  19.747  0.00  0.00    +0.039 C 
ENDROOT
BRANCH   6  10
ATOM     10  C   UNL     1      16.147   9.734  21.552  0.00  0.00    -0.013 C 
ATOM     15  C   UNL     1      15.633  10.177  20.185  0.00  0.00    +0.007 C 
ATOM     16  C   UNL     1      17.112  10.766  22.127  0.00  0.00    +0.007 C 
ENDBRANCH   6  10
BRANCH   7  13
ATOM     13  C   UNL     1      14.798   6.921  20.932  0.00  0.00    +0.089 C 
BRANCH  13   3
ATOM      3  N   UNL     1      13.891   6.631  19.835  0.00  0.00    -0.313 NA
ATOM     29  H   UNL     1      14.261   7.031  18.973  0.00  0.00    +0.122 HD
BRANCH   3  19
ATOM     19  C   UNL     1      12.565   7.180  20.093  0.00  0.00    +0.047 C 
ATOM     20  C   UNL     1      12.283   8.346  19.149  0.00  0.00    +0.023 C 
ATOM     21  C   UNL     1      12.471   7.619  21.550  0.00  0.00    +0.023 C 
ENDBRANCH   3  19
ENDBRANCH  13   3
ENDBRANCH   7  13
BRANCH   9  14
ATOM     14  C   UNL     1      19.381   6.689  22.454  0.00  0.00    +0.105 C 
BRANCH  14  18
ATOM      2  O   UNL     1      21.089   4.953  22.311  0.00  0.00    -0.420 OA
ATOM      4  N   UNL     1      21.874   6.963  22.900  0.00  0.00    -0.112 NA
ATOM      5  N   UNL     1      22.940   6.084  22.858  0.00  0.00    -0.107 NA
ATOM     18  C   UNL     1      20.815   6.260  22.573  0.00  0.00    +0.218 A 
ATOM     22  C   UNL     1      22.435   4.924  22.510  0.00  0.00    +0.251 A 
BRANCH  22  23
ATOM      1  F   UNL     1      23.506   4.170  20.032  0.00  0.00    -0.205 F 
ATOM     23  C   UNL     1      23.070   3.653  22.312  0.00  0.00    +0.074 A 
ATOM     24  C   UNL     1      23.590   3.316  21.062  0.00  0.00    +0.136 A 
ATOM     25  C   UNL     1      23.166   2.753  23.373  0.00  0.00    +0.016 A 
ATOM     26  C   UNL     1      24.207   2.079  20.874  0.00  0.00    +0.039 A 
ATOM     27  C   UNL     1      23.783   1.517  23.185  0.00  0.00    +0.001 A 
ATOM     28  C   UNL     1      24.304   1.180  21.935  0.00  0.00    +0.003 A 
ENDBRANCH  22  23
ENDBRANCH  14  18
ENDBRANCH   9  14
TORSDOF 7
ENDMDL
MODEL 6
REMARK VINA RESULT:      -6.3     17.265     18.472
REMARK  Name = 38031028
REMARK  12 active torsions:
REMARK  status: ('A' for Active; 'I' for Inactive)
REMARK    1  A    between atoms: N_3  and  C_13
REMARK    2  A    between atoms: N_3  and  C_19
REMARK    3  A    between atoms: C_6  and  C_10
REMARK    4  A    between atoms: C_7  and  C_13
REMARK    5  A    between atoms: C_9  and  C_14
REMARK    6  A    between atoms: C_10  and  C_15
REMARK    7  A    between atoms: C_10  and  C_16
REMARK    8  A    between atoms: C_11  and  C_17
REMARK    9  A    between atoms: C_14  and  C_18
REMARK   10  A    between atoms: C_19  and  C_20
REMARK   11  A    between atoms: C_19  and  C_21
REMARK   12  A    between atoms: C_22  and  C_23
REMARK                            x       y       z     vdW  Elec       q    Type
REMARK                         _______ _______ _______ _____ _____    ______ ____
ROOT
ATOM      6  C   UNL     1      11.886   7.337   6.301  0.00  0.00    +0.000 C 
ATOM      7  C   UNL     1      10.637   8.170   6.681  0.00  0.00    +0.029 C 
ATOM      8  C   UNL     1      12.149   7.422   4.790  0.00  0.00    +0.012 C 
ATOM      9  C   UNL     1      10.954   6.913   3.962  0.00  0.00    +0.024 C 
ATOM     11  C   UNL     1       9.642   7.489   4.454  0.00  0.00    -0.073 C 
ATOM     12  C   UNL     1       9.522   8.058   5.667  0.00  0.00    -0.023 C 
ATOM     17  C   UNL     1       8.480   7.436   3.502  0.00  0.00    +0.039 C 
ENDROOT
BRANCH   6  10
ATOM     10  C   UNL     1      13.130   7.795   7.070  0.00  0.00    -0.013 C 
ATOM     15  C   UNL     1      13.352   9.292   6.878  0.00  0.00    +0.007 C 
ATOM     16  C   UNL     1      14.354   7.005   6.622  0.00  0.00    +0.007 C 
ENDBRANCH   6  10
BRANCH   7  13
ATOM     13  C   UNL     1      10.108   7.777   8.065  0.00  0.00    +0.089 C 
BRANCH  13   3
ATOM      3  N   UNL     1       9.225   6.627   7.969  0.00  0.00    -0.313 NA
ATOM     29  H   UNL     1       8.365   6.816   8.482  0.00  0.00    +0.122 HD
BRANCH   3  19
ATOM     19  C   UNL     1       9.860   5.431   8.512  0.00  0.00    +0.047 C 
ATOM     20  C   UNL     1       9.929   4.340   7.448  0.00  0.00    +0.023 C 
ATOM     21  C   UNL     1       9.084   4.956   9.736  0.00  0.00    +0.023 C 
ENDBRANCH   3  19
ENDBRANCH  13   3
ENDBRANCH   7  13
BRANCH   9  14
ATOM     14  C   UNL     1      10.908   5.381   3.943  0.00  0.00    +0.105 C 
BRANCH  14  18
ATOM      2  O   UNL     1      12.560   4.961   2.197  0.00  0.00    -0.420 OA
ATOM      4  N   UNL     1      10.498   4.250   1.698  0.00  0.00    -0.112 NA
ATOM      5  N   UNL     1      11.323   3.950   0.630  0.00  0.00    -0.107 NA
ATOM     18  C   UNL     1      11.262   4.838   2.588  0.00  0.00    +0.218 A 
ATOM     22  C   UNL     1      12.516   4.382   0.966  0.00  0.00    +0.251 A 
BRANCH  22  23
ATOM      1  F   UNL     1      14.841   3.283   2.081  0.00  0.00    -0.205 F 
ATOM     23  C   UNL     1      13.757   4.341   0.248  0.00  0.00    +0.074 A 
ATOM     24  C   UNL     1      14.892   3.786   0.839  0.00  0.00    +0.136 A 
ATOM     25  C   UNL     1      13.828   4.859  -1.045  0.00  0.00    +0.016 A 
ATOM     26  C   UNL     1      16.097   3.748   0.137  0.00  0.00    +0.039 A 
ATOM     27  C   UNL     1      15.032   4.822  -1.747  0.00  0.00    +0.001 A 
ATOM     28  C   UNL     1      16.167   4.266  -1.156  0.00  0.00    +0.003 A 
ENDBRANCH  22  23
ENDBRANCH  14  18
ENDBRANCH   9  14
TORSDOF 7
ENDMDL
MODEL 7
REMARK VINA RESULT:      -6.2     25.861     27.870
REMARK  Name = 38031028
REMARK  12 active torsions:
REMARK  status: ('A' for Active; 'I' for Inactive)
REMARK    1  A    between atoms: N_3  and  C_13
REMARK    2  A    between atoms: N_3  and  C_19
REMARK    3  A    between atoms: C_6  and  C_10
REMARK    4  A    between atoms: C_7  and  C_13
REMARK    5  A    between atoms: C_9  and  C_14
REMARK    6  A    between atoms: C_10  and  C_15
REMARK    7  A    between atoms: C_10  and  C_16
REMARK    8  A    between atoms: C_11  and  C_17
REMARK    9  A    between atoms: C_14  and  C_18
REMARK   10  A    between atoms: C_19  and  C_20
REMARK   11  A    between atoms: C_19  and  C_21
REMARK   12  A    between atoms: C_22  and  C_23
REMARK                            x       y       z     vdW  Elec       q    Type
REMARK                         _______ _______ _______ _____ _____    ______ ____
ROOT
ATOM      6  C   UNL     1     -11.719  10.195  18.237  0.00  0.00    +0.000 C 
ATOM      7  C   UNL     1     -11.444   8.782  17.665  0.00  0.00    +0.029 C 
ATOM      8  C   UNL     1     -11.177  10.309  19.669  0.00  0.00    +0.012 C 
ATOM      9  C   UNL     1     -11.809   9.269  20.614  0.00  0.00    +0.024 C 
ATOM     11  C   UNL     1     -11.817   7.884  20.002  0.00  0.00    -0.073 C 
ATOM     12  C   UNL     1     -11.640   7.684  18.684  0.00  0.00    -0.023 C 
ATOM     17  C   UNL     1     -11.990   6.727  20.947  0.00  0.00    +0.039 C 
ENDROOT
BRANCH   6  10
ATOM     10  C   UNL     1     -11.104  11.292  17.361  0.00  0.00    -0.013 C 
ATOM     15  C   UNL     1      -9.742  10.850  16.835  0.00  0.00    +0.007 C 
ATOM     16  C   UNL     1     -10.985  12.595  18.145  0.00  0.00    +0.007 C 
ENDBRANCH   6  10
BRANCH   7  13
ATOM     13  C   UNL     1     -12.320   8.500  16.438  0.00  0.00    +0.089 C 
BRANCH  13   3
ATOM      3  N   UNL     1     -11.527   7.930  15.362  0.00  0.00    -0.313 NA
ATOM     29  H   UNL     1     -10.554   8.218  15.468  0.00  0.00    +0.122 HD
BRANCH   3  19
ATOM     19  C   UNL     1     -12.020   8.364  14.060  0.00  0.00    +0.047 C 
ATOM     20  C   UNL     1     -12.256   9.872  14.060  0.00  0.00    +0.023 C 
ATOM     21  C   UNL     1     -13.302   7.609  13.725  0.00  0.00    +0.023 C 
ENDBRANCH   3  19
ENDBRANCH  13   3
ENDBRANCH   7  13
BRANCH   9  14
ATOM     14  C   UNL     1     -13.221   9.692  21.036  0.00  0.00    +0.105 C 
BRANCH  14  18
ATOM      2  O   UNL     1     -12.671   9.976  23.396  0.00  0.00    -0.420 OA
ATOM      4  N   UNL     1     -13.604  11.776  22.449  0.00  0.00    -0.112 NA
ATOM      5  N   UNL     1     -13.347  12.075  23.774  0.00  0.00    -0.107 NA
ATOM     18  C   UNL     1     -13.193  10.542  22.273  0.00  0.00    +0.218 A 
ATOM     22  C   UNL     1     -12.803  10.996  24.287  0.00  0.00    +0.251 A 
BRANCH  22  23
ATOM      1  F   UNL     1     -14.564  10.653  26.441  0.00  0.00    -0.205 F 
ATOM     23  C   UNL     1     -12.335  10.732  25.617  0.00  0.00    +0.074 A 
ATOM     24  C   UNL     1     -13.244  10.568  26.661  0.00  0.00    +0.136 A 
ATOM     25  C   UNL     1     -10.965  10.640  25.864  0.00  0.00    +0.016 A 
ATOM     26  C   UNL     1     -12.784  10.311  27.953  0.00  0.00    +0.039 A 
ATOM     27  C   UNL     1     -10.505  10.383  27.155  0.00  0.00    +0.001 A 
ATOM     28  C   UNL     1     -11.415  10.218  28.200  0.00  0.00    +0.003 A 
ENDBRANCH  22  23
ENDBRANCH  14  18
ENDBRANCH   9  14
TORSDOF 7
ENDMDL
MODEL 8
REMARK VINA RESULT:      -6.1      2.817      8.460
REMARK  Name = 38031028
REMARK  12 active torsions:
REMARK  status: ('A' for Active; 'I' for Inactive)
REMARK    1  A    between atoms: N_3  and  C_13
REMARK    2  A    between atoms: N_3  and  C_19
REMARK    3  A    between atoms: C_6  and  C_10
REMARK    4  A    between atoms: C_7  and  C_13
REMARK    5  A    between atoms: C_9  and  C_14
REMARK    6  A    between atoms: C_10  and  C_15
REMARK    7  A    between atoms: C_10  and  C_16
REMARK    8  A    between atoms: C_11  and  C_17
REMARK    9  A    between atoms: C_14  and  C_18
REMARK   10  A    between atoms: C_19  and  C_20
REMARK   11  A    between atoms: C_19  and  C_21
REMARK   12  A    between atoms: C_22  and  C_23
REMARK                            x       y       z     vdW  Elec       q    Type
REMARK                         _______ _______ _______ _____ _____    ______ ____
ROOT
ATOM      6  C   UNL     1      20.644   5.885  21.885  0.00  0.00    +0.000 C 
ATOM      7  C   UNL     1      21.080   7.216  22.546  0.00  0.00    +0.029 C 
ATOM      8  C   UNL     1      19.878   6.158  20.582  0.00  0.00    +0.012 C 
ATOM      9  C   UNL     1      18.623   7.021  20.815  0.00  0.00    +0.024 C 
ATOM     11  C   UNL     1      18.920   8.221  21.690  0.00  0.00    -0.073 C 
ATOM     12  C   UNL     1      20.029   8.297  22.447  0.00  0.00    -0.023 C 
ATOM     17  C   UNL     1      17.933   9.355  21.642  0.00  0.00    +0.039 C 
ENDROOT
BRANCH   6  10
ATOM     10  C   UNL     1      21.841   4.972  21.600  0.00  0.00    -0.013 C 
ATOM     15  C   UNL     1      22.777   5.624  20.586  0.00  0.00    +0.007 C 
ATOM     16  C   UNL     1      21.367   3.611  21.102  0.00  0.00    +0.007 C 
ENDBRANCH   6  10
BRANCH   7  13
ATOM     13  C   UNL     1      21.459   7.006  24.016  0.00  0.00    +0.089 C 
BRANCH  13   3
ATOM      3  N   UNL     1      21.839   8.266  24.632  0.00  0.00    -0.313 NA
ATOM     29  H   UNL     1      22.854   8.308  24.723  0.00  0.00    +0.122 HD
BRANCH   3  19
ATOM     19  C   UNL     1      21.230   8.410  25.950  0.00  0.00    +0.047 C 
ATOM     20  C   UNL     1      20.276   7.250  26.220  0.00  0.00    +0.023 C 
ATOM     21  C   UNL     1      20.503   9.748  26.030  0.00  0.00    +0.023 C 
ENDBRANCH   3  19
ENDBRANCH  13   3
ENDBRANCH   7  13
BRANCH   9  14
ATOM     14  C   UNL     1      17.479   6.185  21.398  0.00  0.00    +0.105 C 
BRANCH  14  18
ATOM      2  O   UNL     1      15.165   6.935  21.595  0.00  0.00    -0.420 OA
ATOM      4  N   UNL     1      15.815   6.509  19.497  0.00  0.00    -0.112 NA
ATOM      5  N   UNL     1      14.496   6.921  19.461  0.00  0.00    -0.107 NA
ATOM     18  C   UNL     1      16.164   6.533  20.762  0.00  0.00    +0.218 A 
ATOM     22  C   UNL     1      14.159   7.159  20.707  0.00  0.00    +0.251 A 
BRANCH  22  23
ATOM      1  F   UNL     1      13.862   9.729  21.786  0.00  0.00    -0.205 F 
ATOM     23  C   UNL     1      12.918   7.609  21.266  0.00  0.00    +0.074 A 
ATOM     24  C   UNL     1      12.811   8.896  21.794  0.00  0.00    +0.136 A 
ATOM     25  C   UNL     1      11.814   6.755  21.282  0.00  0.00    +0.016 A 
ATOM     26  C   UNL     1      11.601   9.329  22.337  0.00  0.00    +0.039 A 
ATOM     27  C   UNL     1      10.605   7.189  21.825  0.00  0.00    +0.001 A 
ATOM     28  C   UNL     1      10.498   8.476  22.353  0.00  0.00    +0.003 A 
ENDBRANCH  22  23
ENDBRANCH  14  18
ENDBRANCH   9  14
TORSDOF 7
ENDMDL
MODEL 9
REMARK VINA RESULT:      -6.1     20.019     22.180
REMARK  Name = 38031028
REMARK  12 active torsions:
REMARK  status: ('A' for Active; 'I' for Inactive)
REMARK    1  A    between atoms: N_3  and  C_13
REMARK    2  A    between atoms: N_3  and  C_19
REMARK    3  A    between atoms: C_6  and  C_10
REMARK    4  A    between atoms: C_7  and  C_13
REMARK    5  A    between atoms: C_9  and  C_14
REMARK    6  A    between atoms: C_10  and  C_15
REMARK    7  A    between atoms: C_10  and  C_16
REMARK    8  A    between atoms: C_11  and  C_17
REMARK    9  A    between atoms: C_14  and  C_18
REMARK   10  A    between atoms: C_19  and  C_20
REMARK   11  A    between atoms: C_19  and  C_21
REMARK   12  A    between atoms: C_22  and  C_23
REMARK                            x       y       z     vdW  Elec       q    Type
REMARK                         _______ _______ _______ _____ _____    ______ ____
ROOT
ATOM      6  C   UNL     1      11.195   4.481  -1.240  0.00  0.00    +0.000 C 
ATOM      7  C   UNL     1      12.478   3.795  -1.770  0.00  0.00    +0.029 C 
ATOM      8  C   UNL     1      11.542   5.486  -0.131  0.00  0.00    +0.012 C 
ATOM      9  C   UNL     1      12.263   4.817   1.055  0.00  0.00    +0.024 C 
ATOM     11  C   UNL     1      13.381   3.906   0.593  0.00  0.00    -0.073 C 
ATOM     12  C   UNL     1      13.468   3.469  -0.676  0.00  0.00    -0.023 C 
ATOM     17  C   UNL     1      14.424   3.542   1.614  0.00  0.00    +0.039 C 
ENDROOT
BRANCH   6  10
ATOM     10  C   UNL     1      10.426   5.190  -2.359  0.00  0.00    -0.013 C 
ATOM     15  C   UNL     1      11.119   6.497  -2.735  0.00  0.00    +0.007 C 
ATOM     16  C   UNL     1       8.983   5.446  -1.936  0.00  0.00    +0.007 C 
ENDBRANCH   6  10
BRANCH   7  13
ATOM     13  C   UNL     1      12.142   2.519  -2.550  0.00  0.00    +0.089 C 
BRANCH  13   3
ATOM      3  N   UNL     1      12.901   2.460  -3.787  0.00  0.00    -0.313 NA
ATOM     29  H   UNL     1      13.898   2.469  -3.575  0.00  0.00    +0.122 HD
BRANCH   3  19
ATOM     19  C   UNL     1      12.579   3.588  -4.654  0.00  0.00    +0.047 C 
ATOM     20  C   UNL     1      11.386   3.248  -5.542  0.00  0.00    +0.023 C 
ATOM     21  C   UNL     1      13.802   3.949  -5.491  0.00  0.00    +0.023 C 
ENDBRANCH   3  19
ENDBRANCH  13   3
ENDBRANCH   7  13
BRANCH   9  14
ATOM     14  C   UNL     1      11.272   4.062   1.948  0.00  0.00    +0.105 C 
BRANCH  14  18
ATOM      2  O   UNL     1      10.590   4.541   4.242  0.00  0.00    -0.420 OA
ATOM      4  N   UNL     1      10.087   6.158   2.779  0.00  0.00    -0.112 NA
ATOM      5  N   UNL     1       9.648   6.559   4.027  0.00  0.00    -0.107 NA
ATOM     18  C   UNL     1      10.631   4.976   2.952  0.00  0.00    +0.218 A 
ATOM     22  C   UNL     1       9.963   5.585   4.849  0.00  0.00    +0.251 A 
BRANCH  22  23
ATOM      1  F   UNL     1       9.138   7.744   6.435  0.00  0.00    -0.205 F 
ATOM     23  C   UNL     1       9.751   5.454   6.261  0.00  0.00    +0.074 A 
ATOM     24  C   UNL     1       9.341   6.553   7.015  0.00  0.00    +0.136 A 
ATOM     25  C   UNL     1       9.958   4.221   6.881  0.00  0.00    +0.016 A 
ATOM     26  C   UNL     1       9.137   6.419   8.389  0.00  0.00    +0.039 A 
ATOM     27  C   UNL     1       9.754   4.088   8.254  0.00  0.00    +0.001 A 
ATOM     28  C   UNL     1       9.343   5.187   9.008  0.00  0.00    +0.003 A 
ENDBRANCH  22  23
ENDBRANCH  14  18
ENDBRANCH   9  14
TORSDOF 7
ENDMDL
MODEL 10
REMARK VINA RESULT:      -6.1     13.442     17.160
REMARK  Name = 38031028
REMARK  12 active torsions:
REMARK  status: ('A' for Active; 'I' for Inactive)
REMARK    1  A    between atoms: N_3  and  C_13
REMARK    2  A    between atoms: N_3  and  C_19
REMARK    3  A    between atoms: C_6  and  C_10
REMARK    4  A    between atoms: C_7  and  C_13
REMARK    5  A    between atoms: C_9  and  C_14
REMARK    6  A    between atoms: C_10  and  C_15
REMARK    7  A    between atoms: C_10  and  C_16
REMARK    8  A    between atoms: C_11  and  C_17
REMARK    9  A    between atoms: C_14  and  C_18
REMARK   10  A    between atoms: C_19  and  C_20
REMARK   11  A    between atoms: C_19  and  C_21
REMARK   12  A    between atoms: C_22  and  C_23
REMARK                            x       y       z     vdW  Elec       q    Type
REMARK                         _______ _______ _______ _____ _____    ______ ____
ROOT
ATOM      6  C   UNL     1      20.136  -4.906  24.368  0.00  0.00    +0.000 C 
ATOM      7  C   UNL     1      19.103  -4.241  23.424  0.00  0.00    +0.029 C 
ATOM      8  C   UNL     1      21.381  -5.341  23.580  0.00  0.00    +0.012 C 
ATOM      9  C   UNL     1      21.038  -6.336  22.455  0.00  0.00    +0.024 C 
ATOM     11  C   UNL     1      19.848  -5.875  21.639  0.00  0.00    -0.073 C 
ATOM     12  C   UNL     1      19.002  -4.929  22.083  0.00  0.00    -0.023 C 
ATOM     17  C   UNL     1      19.677  -6.495  20.280  0.00  0.00    +0.039 C 
ENDROOT
BRANCH   6  10
ATOM     10  C   UNL     1      20.547  -3.971  25.510  0.00  0.00    -0.013 C 
ATOM     15  C   UNL     1      20.444  -2.514  25.067  0.00  0.00    +0.007 C 
ATOM     16  C   UNL     1      21.960  -4.294  25.982  0.00  0.00    +0.007 C 
ENDBRANCH   6  10
BRANCH   7  13
ATOM     13  C   UNL     1      17.716  -4.183  24.074  0.00  0.00    +0.089 C 
BRANCH  13   3
ATOM      3  N   UNL     1      16.723  -3.713  23.123  0.00  0.00    -0.313 NA
ATOM     29  H   UNL     1      17.124  -3.717  22.185  0.00  0.00    +0.122 HD
BRANCH   3  19
ATOM     19  C   UNL     1      16.277  -2.365  23.454  0.00  0.00    +0.047 C 
ATOM     20  C   UNL     1      16.986  -1.342  22.571  0.00  0.00    +0.023 C 
ATOM     21  C   UNL     1      16.541  -2.091  24.931  0.00  0.00    +0.023 C 
ENDBRANCH   3  19
ENDBRANCH  13   3
ENDBRANCH   7  13
BRANCH   9  14
ATOM     14  C   UNL     1      20.809  -7.744  23.014  0.00  0.00    +0.105 C 
BRANCH  14  18
ATOM      2  O   UNL     1      21.468  -9.090  21.088  0.00  0.00    -0.420 OA
ATOM      4  N   UNL     1      22.777  -9.355  22.883  0.00  0.00    -0.112 NA
ATOM      5  N   UNL     1      23.262 -10.170  21.876  0.00  0.00    -0.107 NA
ATOM     18  C   UNL     1      21.731  -8.744  22.378  0.00  0.00    +0.218 A 
ATOM     22  C   UNL     1      22.468  -9.982  20.848  0.00  0.00    +0.251 A 
BRANCH  22  23
ATOM      1  F   UNL     1      20.630 -11.946  20.061  0.00  0.00    -0.205 F 
ATOM     23  C   UNL     1      22.490 -10.561  19.536  0.00  0.00    +0.074 A 
ATOM     24  C   UNL     1      21.557 -11.537  19.184  0.00  0.00    +0.136 A 
ATOM     25  C   UNL     1      23.449 -10.147  18.612  0.00  0.00    +0.016 A 
ATOM     26  C   UNL     1      21.583 -12.098  17.907  0.00  0.00    +0.039 A 
ATOM     27  C   UNL     1      23.474 -10.708  17.335  0.00  0.00    +0.001 A 
ATOM     28  C   UNL     1      22.541 -11.683  16.982  0.00  0.00    +0.003 A 
ENDBRANCH  22  23
ENDBRANCH  14  18
ENDBRANCH   9  14
TORSDOF 7
ENDMDL
