MODEL 1
REMARK VINA RESULT:      -7.0      0.000      0.000
REMARK  Name = 45783784
REMARK  7 active torsions:
REMARK  status: ('A' for Active; 'I' for Inactive)
REMARK    1  A    between atoms: N_2  and  C_11
REMARK    2  A    between atoms: N_6  and  C_25
REMARK    3  A    between atoms: N_6  and  C_26
REMARK    4  A    between atoms: C_7  and  C_12
REMARK    5  A    between atoms: C_11  and  C_13
REMARK    6  A    between atoms: C_16  and  C_20
REMARK    7  A    between atoms: C_19  and  C_21
REMARK                            x       y       z     vdW  Elec       q    Type
REMARK                         _______ _______ _______ _____ _____    ______ ____
ROOT
ATOM      1  O   UNL     1      14.992   8.784  19.750  0.00  0.00    -0.336 OA
ATOM      3  N   UNL     1      15.897   6.853  19.066  0.00  0.00    -0.190 NA
ATOM      4  N   UNL     1      16.172   8.624  20.488  0.00  0.00    -0.056 NA
ATOM     12  C   UNL     1      14.906   7.699  18.938  0.00  0.00    +0.245 A 
ATOM     16  C   UNL     1      16.648   7.463  20.028  0.00  0.00    +0.204 A 
ENDROOT
BRANCH  16  20
ATOM      5  N   UNL     1      19.613   5.230  20.251  0.00  0.00    -0.240 NA
ATOM     20  C   UNL     1      17.870   6.886  20.508  0.00  0.00    +0.041 A 
ATOM     22  C   UNL     1      18.499   7.381  21.645  0.00  0.00    +0.016 A 
ATOM     23  C   UNL     1      18.464   5.819  19.852  0.00  0.00    +0.124 A 
ATOM     24  C   UNL     1      19.683   6.802  22.087  0.00  0.00    +0.044 A 
ATOM     25  C   UNL     1      20.195   5.738  21.361  0.00  0.00    +0.118 A 
BRANCH  25   6
ATOM      6  N   UNL     1      21.403   5.159  21.823  0.00  0.00    -0.332 N 
ATOM     26  C   UNL     1      22.642   5.311  21.133  0.00  0.00    +0.127 C 
ATOM     27  H   UNL     1      21.328   4.441  22.535  0.00  0.00    +0.147 HD
ENDBRANCH  25   6
ENDBRANCH  16  20
BRANCH  12   7
ATOM      2  N   UNL     1      12.603   8.516  18.470  0.00  0.00    -0.287 NA
ATOM      7  C   UNL     1      13.699   7.633  18.025  0.00  0.00    +0.146 C 
ATOM      8  C   UNL     1      14.015   8.095  16.590  0.00  0.00    +0.030 C 
ATOM      9  C   UNL     1      13.006   9.196  16.296  0.00  0.00    +0.017 C 
ATOM     10  C   UNL     1      11.875   8.912  17.264  0.00  0.00    +0.085 C 
BRANCH   2  11
ATOM     11  C   UNL     1      11.729   7.893  19.457  0.00  0.00    +0.120 C 
BRANCH  11  13
ATOM     13  C   UNL     1      11.490   8.793  20.640  0.00  0.00    -0.033 A 
ATOM     14  C   UNL     1      11.904  10.125  20.597  0.00  0.00    +0.005 A 
ATOM     15  C   UNL     1      10.861   8.295  21.781  0.00  0.00    +0.005 A 
ATOM     17  C   UNL     1      11.686  10.959  21.693  0.00  0.00    +0.003 A 
ATOM     18  C   UNL     1      10.643   9.130  22.877  0.00  0.00    +0.003 A 
ATOM     19  C   UNL     1      11.056  10.461  22.834  0.00  0.00    -0.050 A 
ATOM     21  C   UNL     1      10.824  11.353  24.006  0.00  0.00    +0.044 C 
ENDBRANCH  11  13
ENDBRANCH   2  11
ENDBRANCH  12   7
TORSDOF 5
ENDMDL
MODEL 2
REMARK VINA RESULT:      -6.9      3.568      8.427
REMARK  Name = 45783784
REMARK  7 active torsions:
REMARK  status: ('A' for Active; 'I' for Inactive)
REMARK    1  A    between atoms: N_2  and  C_11
REMARK    2  A    between atoms: N_6  and  C_25
REMARK    3  A    between atoms: N_6  and  C_26
REMARK    4  A    between atoms: C_7  and  C_12
REMARK    5  A    between atoms: C_11  and  C_13
REMARK    6  A    between atoms: C_16  and  C_20
REMARK    7  A    between atoms: C_19  and  C_21
REMARK                            x       y       z     vdW  Elec       q    Type
REMARK                         _______ _______ _______ _____ _____    ______ ____
ROOT
ATOM      1  O   UNL     1      12.254  11.052  20.511  0.00  0.00    -0.336 OA
ATOM      3  N   UNL     1      11.453  10.345  22.480  0.00  0.00    -0.190 NA
ATOM      4  N   UNL     1      12.268  12.166  21.360  0.00  0.00    -0.056 NA
ATOM     12  C   UNL     1      11.760  10.024  21.249  0.00  0.00    +0.245 A 
ATOM     16  C   UNL     1      11.781  11.669  22.501  0.00  0.00    +0.204 A 
ENDROOT
BRANCH  16  20
ATOM      5  N   UNL     1      10.412  12.883  25.739  0.00  0.00    -0.240 NA
ATOM     20  C   UNL     1      11.611  12.468  23.680  0.00  0.00    +0.041 A 
ATOM     22  C   UNL     1      12.430  13.564  23.928  0.00  0.00    +0.016 A 
ATOM     23  C   UNL     1      10.626  12.172  24.609  0.00  0.00    +0.124 A 
ATOM     24  C   UNL     1      12.242  14.320  25.080  0.00  0.00    +0.044 A 
ATOM     25  C   UNL     1      11.228  13.941  25.946  0.00  0.00    +0.118 A 
BRANCH  25   6
ATOM      6  N   UNL     1      11.049  14.721  27.115  0.00  0.00    -0.332 N 
ATOM     26  C   UNL     1      12.104  15.481  27.702  0.00  0.00    +0.127 C 
ATOM     27  H   UNL     1      10.213  14.548  27.662  0.00  0.00    +0.147 HD
ENDBRANCH  25   6
ENDBRANCH  16  20
BRANCH  12   7
ATOM      2  N   UNL     1      12.897   7.907  20.601  0.00  0.00    -0.287 NA
ATOM      7  C   UNL     1      11.644   8.686  20.547  0.00  0.00    +0.146 C 
ATOM      8  C   UNL     1      10.586   7.769  21.189  0.00  0.00    +0.030 C 
ATOM      9  C   UNL     1      11.323   6.478  21.513  0.00  0.00    +0.017 C 
ATOM     10  C   UNL     1      12.509   6.496  20.570  0.00  0.00    +0.085 C 
BRANCH   2  11
ATOM     11  C   UNL     1      13.828   8.242  19.530  0.00  0.00    +0.120 C 
BRANCH  11  13
ATOM     13  C   UNL     1      15.205   7.694  19.795  0.00  0.00    -0.033 A 
ATOM     14  C   UNL     1      15.708   6.662  19.002  0.00  0.00    +0.005 A 
ATOM     15  C   UNL     1      15.976   8.212  20.835  0.00  0.00    +0.005 A 
ATOM     17  C   UNL     1      16.982   6.151  19.248  0.00  0.00    +0.003 A 
ATOM     18  C   UNL     1      17.250   7.701  21.081  0.00  0.00    +0.003 A 
ATOM     19  C   UNL     1      17.753   6.671  20.288  0.00  0.00    -0.050 A 
ATOM     21  C   UNL     1      19.115   6.123  20.551  0.00  0.00    +0.044 C 
ENDBRANCH  11  13
ENDBRANCH   2  11
ENDBRANCH  12   7
TORSDOF 5
ENDMDL
MODEL 3
REMARK VINA RESULT:      -6.9     27.222     31.172
REMARK  Name = 45783784
REMARK  7 active torsions:
REMARK  status: ('A' for Active; 'I' for Inactive)
REMARK    1  A    between atoms: N_2  and  C_11
REMARK    2  A    between atoms: N_6  and  C_25
REMARK    3  A    between atoms: N_6  and  C_26
REMARK    4  A    between atoms: C_7  and  C_12
REMARK    5  A    between atoms: C_11  and  C_13
REMARK    6  A    between atoms: C_16  and  C_20
REMARK    7  A    between atoms: C_19  and  C_21
REMARK                            x       y       z     vdW  Elec       q    Type
REMARK                         _______ _______ _______ _____ _____    ______ ____
ROOT
ATOM      1  O   UNL     1     -16.503   3.487  22.269  0.00  0.00    -0.336 OA
ATOM      3  N   UNL     1     -16.540   4.529  24.251  0.00  0.00    -0.190 NA
ATOM      4  N   UNL     1     -16.455   2.479  23.240  0.00  0.00    -0.056 NA
ATOM     12  C   UNL     1     -16.551   4.662  22.949  0.00  0.00    +0.245 A 
ATOM     16  C   UNL     1     -16.480   3.173  24.383  0.00  0.00    +0.204 A 
ENDROOT
BRANCH  16  20
ATOM      5  N   UNL     1     -16.733   0.539  26.997  0.00  0.00    -0.240 NA
ATOM     20  C   UNL     1     -16.447   2.541  25.670  0.00  0.00    +0.041 A 
ATOM     22  C   UNL     1     -16.113   3.259  26.813  0.00  0.00    +0.016 A 
ATOM     23  C   UNL     1     -16.745   1.195  25.815  0.00  0.00    +0.124 A 
ATOM     24  C   UNL     1     -16.088   2.620  28.047  0.00  0.00    +0.044 A 
ATOM     25  C   UNL     1     -16.403   1.270  28.085  0.00  0.00    +0.118 A 
BRANCH  25   6
ATOM      6  N   UNL     1     -16.373   0.633  29.350  0.00  0.00    -0.332 N 
ATOM     26  C   UNL     1     -15.156   0.325  30.027  0.00  0.00    +0.127 C 
ATOM     27  H   UNL     1     -17.229   0.191  29.666  0.00  0.00    +0.147 HD
ENDBRANCH  25   6
ENDBRANCH  16  20
BRANCH  12   7
ATOM      2  N   UNL     1     -15.325   6.227  21.454  0.00  0.00    -0.287 NA
ATOM      7  C   UNL     1     -16.610   5.923  22.113  0.00  0.00    +0.146 C 
ATOM      8  C   UNL     1     -17.627   5.824  20.960  0.00  0.00    +0.030 C 
ATOM      9  C   UNL     1     -16.834   6.149  19.702  0.00  0.00    +0.017 C 
ATOM     10  C   UNL     1     -15.651   6.943  20.220  0.00  0.00    +0.085 C 
BRANCH   2  11
ATOM     11  C   UNL     1     -14.411   6.985  22.300  0.00  0.00    +0.120 C 
BRANCH  11  13
ATOM     13  C   UNL     1     -13.308   7.625  21.500  0.00  0.00    -0.033 A 
ATOM     14  C   UNL     1     -13.249   9.013  21.380  0.00  0.00    +0.005 A 
ATOM     15  C   UNL     1     -12.348   6.830  20.873  0.00  0.00    +0.005 A 
ATOM     17  C   UNL     1     -12.230   9.607  20.637  0.00  0.00    +0.003 A 
ATOM     18  C   UNL     1     -11.329   7.424  20.129  0.00  0.00    +0.003 A 
ATOM     19  C   UNL     1     -11.269   8.812  20.011  0.00  0.00    -0.050 A 
ATOM     21  C   UNL     1     -10.180   9.448  19.214  0.00  0.00    +0.044 C 
ENDBRANCH  11  13
ENDBRANCH   2  11
ENDBRANCH  12   7
TORSDOF 5
ENDMDL
MODEL 4
REMARK VINA RESULT:      -6.6      3.240      6.980
REMARK  Name = 45783784
REMARK  7 active torsions:
REMARK  status: ('A' for Active; 'I' for Inactive)
REMARK    1  A    between atoms: N_2  and  C_11
REMARK    2  A    between atoms: N_6  and  C_25
REMARK    3  A    between atoms: N_6  and  C_26
REMARK    4  A    between atoms: C_7  and  C_12
REMARK    5  A    between atoms: C_11  and  C_13
REMARK    6  A    between atoms: C_16  and  C_20
REMARK    7  A    between atoms: C_19  and  C_21
REMARK                            x       y       z     vdW  Elec       q    Type
REMARK                         _______ _______ _______ _____ _____    ______ ____
ROOT
ATOM      1  O   UNL     1      12.259   8.069  16.711  0.00  0.00    -0.336 OA
ATOM      3  N   UNL     1      13.565   9.544  17.777  0.00  0.00    -0.190 NA
ATOM      4  N   UNL     1      12.854   8.855  15.715  0.00  0.00    -0.056 NA
ATOM     12  C   UNL     1      12.732   8.542  17.893  0.00  0.00    +0.245 A 
ATOM     16  C   UNL     1      13.609   9.701  16.422  0.00  0.00    +0.204 A 
ENDROOT
BRANCH  16  20
ATOM      5  N   UNL     1      16.070  11.309  14.145  0.00  0.00    -0.240 NA
ATOM     20  C   UNL     1      14.418  10.713  15.807  0.00  0.00    +0.041 A 
ATOM     22  C   UNL     1      14.359  12.035  16.232  0.00  0.00    +0.016 A 
ATOM     23  C   UNL     1      15.281  10.404  14.768  0.00  0.00    +0.124 A 
ATOM     24  C   UNL     1      15.154  12.995  15.616  0.00  0.00    +0.044 A 
ATOM     25  C   UNL     1      15.985  12.584  14.586  0.00  0.00    +0.118 A 
BRANCH  25   6
ATOM      6  N   UNL     1      16.789  13.574  13.967  0.00  0.00    -0.332 N 
ATOM     26  C   UNL     1      17.860  13.252  13.082  0.00  0.00    +0.127 C 
ATOM     27  H   UNL     1      16.736  14.513  14.345  0.00  0.00    +0.147 HD
ENDBRANCH  25   6
ENDBRANCH  16  20
BRANCH  12   7
ATOM      2  N   UNL     1      13.201   7.918  20.256  0.00  0.00    -0.287 NA
ATOM      7  C   UNL     1      12.232   7.848  19.144  0.00  0.00    +0.146 C 
ATOM      8  C   UNL     1      10.948   8.487  19.705  0.00  0.00    +0.030 C 
ATOM      9  C   UNL     1      11.271   8.826  21.153  0.00  0.00    +0.017 C 
ATOM     10  C   UNL     1      12.416   7.893  21.491  0.00  0.00    +0.085 C 
BRANCH   2  11
ATOM     11  C   UNL     1      14.196   6.853  20.218  0.00  0.00    +0.120 C 
BRANCH  11  13
ATOM     13  C   UNL     1      15.572   7.360  20.560  0.00  0.00    -0.033 A 
ATOM     14  C   UNL     1      15.833   8.730  20.542  0.00  0.00    +0.005 A 
ATOM     15  C   UNL     1      16.586   6.461  20.890  0.00  0.00    +0.005 A 
ATOM     17  C   UNL     1      17.108   9.201  20.855  0.00  0.00    +0.003 A 
ATOM     18  C   UNL     1      17.860   6.932  21.203  0.00  0.00    +0.003 A 
ATOM     19  C   UNL     1      18.122   8.302  21.186  0.00  0.00    -0.050 A 
ATOM     21  C   UNL     1      19.485   8.806  21.520  0.00  0.00    +0.044 C 
ENDBRANCH  11  13
ENDBRANCH   2  11
ENDBRANCH  12   7
TORSDOF 5
ENDMDL
MODEL 5
REMARK VINA RESULT:      -6.6     26.149     28.012
REMARK  Name = 45783784
REMARK  7 active torsions:
REMARK  status: ('A' for Active; 'I' for Inactive)
REMARK    1  A    between atoms: N_2  and  C_11
REMARK    2  A    between atoms: N_6  and  C_25
REMARK    3  A    between atoms: N_6  and  C_26
REMARK    4  A    between atoms: C_7  and  C_12
REMARK    5  A    between atoms: C_11  and  C_13
REMARK    6  A    between atoms: C_16  and  C_20
REMARK    7  A    between atoms: C_19  and  C_21
REMARK                            x       y       z     vdW  Elec       q    Type
REMARK                         _______ _______ _______ _____ _____    ______ ____
ROOT
ATOM      1  O   UNL     1     -12.151  11.800  19.239  0.00  0.00    -0.336 OA
ATOM      3  N   UNL     1     -11.267  10.301  20.649  0.00  0.00    -0.190 NA
ATOM      4  N   UNL     1     -12.831  11.960  20.453  0.00  0.00    -0.056 NA
ATOM     12  C   UNL     1     -11.250  10.804  19.441  0.00  0.00    +0.245 A 
ATOM     16  C   UNL     1     -12.253  11.041  21.234  0.00  0.00    +0.204 A 
ENDROOT
BRANCH  16  20
ATOM      5  N   UNL     1     -14.131   9.800  24.194  0.00  0.00    -0.240 NA
ATOM     20  C   UNL     1     -12.638  10.839  22.601  0.00  0.00    +0.041 A 
ATOM     22  C   UNL     1     -11.939  11.444  23.640  0.00  0.00    +0.016 A 
ATOM     23  C   UNL     1     -13.717  10.032  22.928  0.00  0.00    +0.124 A 
ATOM     24  C   UNL     1     -12.335  11.228  24.954  0.00  0.00    +0.044 A 
ATOM     25  C   UNL     1     -13.428  10.405  25.177  0.00  0.00    +0.118 A 
BRANCH  25   6
ATOM      6  N   UNL     1     -13.818  10.195  26.523  0.00  0.00    -0.332 N 
ATOM     26  C   UNL     1     -12.932  10.398  27.621  0.00  0.00    +0.127 C 
ATOM     27  H   UNL     1     -14.674   9.674  26.679  0.00  0.00    +0.147 HD
ENDBRANCH  25   6
ENDBRANCH  16  20
BRANCH  12   7
ATOM      2  N   UNL     1     -11.040   9.495  17.336  0.00  0.00    -0.287 NA
ATOM      7  C   UNL     1     -10.376  10.435  18.260  0.00  0.00    +0.146 C 
ATOM      8  C   UNL     1     -10.013  11.650  17.387  0.00  0.00    +0.030 C 
ATOM      9  C   UNL     1     -10.455  11.275  15.980  0.00  0.00    +0.017 C 
ATOM     10  C   UNL     1     -10.487   9.760  16.007  0.00  0.00    +0.085 C 
BRANCH   2  11
ATOM     11  C   UNL     1     -10.881   8.098  17.725  0.00  0.00    +0.120 C 
BRANCH  11  13
ATOM     13  C   UNL     1     -11.869   7.700  18.790  0.00  0.00    -0.033 A 
ATOM     14  C   UNL     1     -13.226   7.971  18.617  0.00  0.00    +0.005 A 
ATOM     15  C   UNL     1     -11.427   7.064  19.950  0.00  0.00    +0.005 A 
ATOM     17  C   UNL     1     -14.142   7.605  19.604  0.00  0.00    +0.003 A 
ATOM     18  C   UNL     1     -12.342   6.698  20.936  0.00  0.00    +0.003 A 
ATOM     19  C   UNL     1     -13.699   6.968  20.764  0.00  0.00    -0.050 A 
ATOM     21  C   UNL     1     -14.679   6.578  21.819  0.00  0.00    +0.044 C 
ENDBRANCH  11  13
ENDBRANCH   2  11
ENDBRANCH  12   7
TORSDOF 5
ENDMDL
MODEL 6
REMARK VINA RESULT:      -6.5     26.373     29.246
REMARK  Name = 45783784
REMARK  7 active torsions:
REMARK  status: ('A' for Active; 'I' for Inactive)
REMARK    1  A    between atoms: N_2  and  C_11
REMARK    2  A    between atoms: N_6  and  C_25
REMARK    3  A    between atoms: N_6  and  C_26
REMARK    4  A    between atoms: C_7  and  C_12
REMARK    5  A    between atoms: C_11  and  C_13
REMARK    6  A    between atoms: C_16  and  C_20
REMARK    7  A    between atoms: C_19  and  C_21
REMARK                            x       y       z     vdW  Elec       q    Type
REMARK                         _______ _______ _______ _____ _____    ______ ____
ROOT
ATOM      1  O   UNL     1      -5.108  -9.712  15.708  0.00  0.00    -0.336 OA
ATOM      3  N   UNL     1      -5.249 -11.529  17.010  0.00  0.00    -0.190 NA
ATOM      4  N   UNL     1      -6.320  -9.602  16.400  0.00  0.00    -0.056 NA
ATOM     12  C   UNL     1      -4.541 -10.874  16.125  0.00  0.00    +0.245 A 
ATOM     16  C   UNL     1      -6.332 -10.710  17.147  0.00  0.00    +0.204 A 
ENDROOT
BRANCH  16  20
ATOM      5  N   UNL     1      -9.616 -10.510  18.881  0.00  0.00    -0.240 NA
ATOM     20  C   UNL     1      -7.409 -11.028  18.039  0.00  0.00    +0.041 A 
ATOM     22  C   UNL     1      -7.327 -12.114  18.904  0.00  0.00    +0.016 A 
ATOM     23  C   UNL     1      -8.565 -10.265  18.066  0.00  0.00    +0.124 A 
ATOM     24  C   UNL     1      -8.387 -12.398  19.757  0.00  0.00    +0.044 A 
ATOM     25  C   UNL     1      -9.499 -11.573  19.707  0.00  0.00    +0.118 A 
BRANCH  25   6
ATOM      6  N   UNL     1     -10.572 -11.876  20.582  0.00  0.00    -0.332 N 
ATOM     26  C   UNL     1     -10.945 -13.214  20.907  0.00  0.00    +0.127 C 
ATOM     27  H   UNL     1     -11.219 -11.126  20.797  0.00  0.00    +0.147 HD
ENDBRANCH  25   6
ENDBRANCH  16  20
BRANCH  12   7
ATOM      2  N   UNL     1      -2.983 -10.578  14.208  0.00  0.00    -0.287 NA
ATOM      7  C   UNL     1      -3.200 -11.228  15.516  0.00  0.00    +0.146 C 
ATOM      8  C   UNL     1      -2.014 -10.768  16.383  0.00  0.00    +0.030 C 
ATOM      9  C   UNL     1      -1.154  -9.916  15.460  0.00  0.00    +0.017 C 
ATOM     10  C   UNL     1      -1.538 -10.392  14.073  0.00  0.00    +0.085 C 
BRANCH   2  11
ATOM     11  C   UNL     1      -3.545 -11.330  13.093  0.00  0.00    +0.120 C 
BRANCH  11  13
ATOM     13  C   UNL     1      -4.194 -10.426  12.078  0.00  0.00    -0.033 A 
ATOM     14  C   UNL     1      -3.496 -10.054  10.929  0.00  0.00    +0.005 A 
ATOM     15  C   UNL     1      -5.490  -9.956  12.290  0.00  0.00    +0.005 A 
ATOM     17  C   UNL     1      -4.095  -9.214   9.991  0.00  0.00    +0.003 A 
ATOM     18  C   UNL     1      -6.089  -9.116  11.351  0.00  0.00    +0.003 A 
ATOM     19  C   UNL     1      -5.392  -8.745  10.202  0.00  0.00    -0.050 A 
ATOM     21  C   UNL     1      -6.031  -7.846   9.199  0.00  0.00    +0.044 C 
ENDBRANCH  11  13
ENDBRANCH   2  11
ENDBRANCH  12   7
TORSDOF 5
ENDMDL
MODEL 7
REMARK VINA RESULT:      -6.5      3.356      7.592
REMARK  Name = 45783784
REMARK  7 active torsions:
REMARK  status: ('A' for Active; 'I' for Inactive)
REMARK    1  A    between atoms: N_2  and  C_11
REMARK    2  A    between atoms: N_6  and  C_25
REMARK    3  A    between atoms: N_6  and  C_26
REMARK    4  A    between atoms: C_7  and  C_12
REMARK    5  A    between atoms: C_11  and  C_13
REMARK    6  A    between atoms: C_16  and  C_20
REMARK    7  A    between atoms: C_19  and  C_21
REMARK                            x       y       z     vdW  Elec       q    Type
REMARK                         _______ _______ _______ _____ _____    ______ ____
ROOT
ATOM      1  O   UNL     1      14.628  10.463  19.332  0.00  0.00    -0.336 OA
ATOM      3  N   UNL     1      13.535   9.919  17.454  0.00  0.00    -0.190 NA
ATOM      4  N   UNL     1      15.242  11.185  18.300  0.00  0.00    -0.056 NA
ATOM     12  C   UNL     1      13.635   9.744  18.747  0.00  0.00    +0.245 A 
ATOM     16  C   UNL     1      14.542  10.811  17.225  0.00  0.00    +0.204 A 
ENDROOT
BRANCH  16  20
ATOM      5  N   UNL     1      14.083  11.667  13.635  0.00  0.00    -0.240 NA
ATOM     20  C   UNL     1      14.822  11.309  15.910  0.00  0.00    +0.041 A 
ATOM     22  C   UNL     1      16.045  11.902  15.613  0.00  0.00    +0.016 A 
ATOM     23  C   UNL     1      13.883  11.218  14.895  0.00  0.00    +0.124 A 
ATOM     24  C   UNL     1      16.288  12.376  14.330  0.00  0.00    +0.044 A 
ATOM     25  C   UNL     1      15.283  12.236  13.385  0.00  0.00    +0.118 A 
BRANCH  25   6
ATOM      6  N   UNL     1      15.546  12.726  12.081  0.00  0.00    -0.332 N 
ATOM     26  C   UNL     1      16.257  13.939  11.844  0.00  0.00    +0.127 C 
ATOM     27  H   UNL     1      15.019  12.314  11.318  0.00  0.00    +0.147 HD
ENDBRANCH  25   6
ENDBRANCH  16  20
BRANCH  12   7
ATOM      2  N   UNL     1      13.640   8.054  20.574  0.00  0.00    -0.287 NA
ATOM      7  C   UNL     1      12.808   8.867  19.665  0.00  0.00    +0.146 C 
ATOM      8  C   UNL     1      11.890   9.680  20.596  0.00  0.00    +0.030 C 
ATOM      9  C   UNL     1      12.236   9.211  22.002  0.00  0.00    +0.017 C 
ATOM     10  C   UNL     1      12.845   7.841  21.784  0.00  0.00    +0.085 C 
BRANCH   2  11
ATOM     11  C   UNL     1      14.081   6.798  19.980  0.00  0.00    +0.120 C 
BRANCH  11  13
ATOM     13  C   UNL     1      15.568   6.604  20.120  0.00  0.00    -0.033 A 
ATOM     14  C   UNL     1      16.205   6.944  21.313  0.00  0.00    +0.005 A 
ATOM     15  C   UNL     1      16.308   6.091  19.055  0.00  0.00    +0.005 A 
ATOM     17  C   UNL     1      17.583   6.768  21.443  0.00  0.00    +0.003 A 
ATOM     18  C   UNL     1      17.686   5.916  19.185  0.00  0.00    +0.003 A 
ATOM     19  C   UNL     1      18.323   6.254  20.378  0.00  0.00    -0.050 A 
ATOM     21  C   UNL     1      19.797   6.067  20.517  0.00  0.00    +0.044 C 
ENDBRANCH  11  13
ENDBRANCH   2  11
ENDBRANCH  12   7
TORSDOF 5
ENDMDL
MODEL 8
REMARK VINA RESULT:      -6.4     26.952     29.263
REMARK  Name = 45783784
REMARK  7 active torsions:
REMARK  status: ('A' for Active; 'I' for Inactive)
REMARK    1  A    between atoms: N_2  and  C_11
REMARK    2  A    between atoms: N_6  and  C_25
REMARK    3  A    between atoms: N_6  and  C_26
REMARK    4  A    between atoms: C_7  and  C_12
REMARK    5  A    between atoms: C_11  and  C_13
REMARK    6  A    between atoms: C_16  and  C_20
REMARK    7  A    between atoms: C_19  and  C_21
REMARK                            x       y       z     vdW  Elec       q    Type
REMARK                         _______ _______ _______ _____ _____    ______ ____
ROOT
ATOM      1  O   UNL     1      -6.067  -8.140   9.215  0.00  0.00    -0.336 OA
ATOM      3  N   UNL     1      -5.542 -10.291   9.550  0.00  0.00    -0.190 NA
ATOM      4  N   UNL     1      -5.202  -8.163  10.316  0.00  0.00    -0.056 NA
ATOM     12  C   UNL     1      -6.214  -9.433   8.826  0.00  0.00    +0.245 A 
ATOM     16  C   UNL     1      -4.937  -9.465  10.452  0.00  0.00    +0.204 A 
ENDROOT
BRANCH  16  20
ATOM      5  N   UNL     1      -3.802 -10.758  13.750  0.00  0.00    -0.240 NA
ATOM     20  C   UNL     1      -4.073  -9.974  11.478  0.00  0.00    +0.041 A 
ATOM     22  C   UNL     1      -2.719 -10.181  11.238  0.00  0.00    +0.016 A 
ATOM     23  C   UNL     1      -4.561 -10.276  12.740  0.00  0.00    +0.124 A 
ATOM     24  C   UNL     1      -1.906 -10.676  12.251  0.00  0.00    +0.044 A 
ATOM     25  C   UNL     1      -2.491 -10.946  13.478  0.00  0.00    +0.118 A 
BRANCH  25   6
ATOM      6  N   UNL     1      -1.649 -11.451  14.501  0.00  0.00    -0.332 N 
ATOM     26  C   UNL     1      -1.213 -10.655  15.601  0.00  0.00    +0.127 C 
ATOM     27  H   UNL     1      -1.174 -12.328  14.316  0.00  0.00    +0.147 HD
ENDBRANCH  25   6
ENDBRANCH  16  20
BRANCH  12   7
ATOM      2  N   UNL     1      -8.025  -8.549   7.366  0.00  0.00    -0.287 NA
ATOM      7  C   UNL     1      -7.115  -9.680   7.633  0.00  0.00    +0.146 C 
ATOM      8  C   UNL     1      -6.329  -9.866   6.323  0.00  0.00    +0.030 C 
ATOM      9  C   UNL     1      -6.909  -8.839   5.362  0.00  0.00    +0.017 C 
ATOM     10  C   UNL     1      -8.287  -8.558   5.927  0.00  0.00    +0.085 C 
BRANCH   2  11
ATOM     11  C   UNL     1      -9.256  -8.606   8.147  0.00  0.00    +0.120 C 
BRANCH  11  13
ATOM     13  C   UNL     1      -9.759  -7.231   8.499  0.00  0.00    -0.033 A 
ATOM     14  C   UNL     1     -11.048  -7.070   9.008  0.00  0.00    +0.005 A 
ATOM     15  C   UNL     1      -8.939  -6.119   8.311  0.00  0.00    +0.005 A 
ATOM     17  C   UNL     1     -11.516  -5.796   9.331  0.00  0.00    +0.003 A 
ATOM     18  C   UNL     1      -9.407  -4.845   8.635  0.00  0.00    +0.003 A 
ATOM     19  C   UNL     1     -10.695  -4.684   9.144  0.00  0.00    -0.050 A 
ATOM     21  C   UNL     1     -11.197  -3.322   9.489  0.00  0.00    +0.044 C 
ENDBRANCH  11  13
ENDBRANCH   2  11
ENDBRANCH  12   7
TORSDOF 5
ENDMDL
MODEL 9
REMARK VINA RESULT:      -6.3     28.673     32.275
REMARK  Name = 45783784
REMARK  7 active torsions:
REMARK  status: ('A' for Active; 'I' for Inactive)
REMARK    1  A    between atoms: N_2  and  C_11
REMARK    2  A    between atoms: N_6  and  C_25
REMARK    3  A    between atoms: N_6  and  C_26
REMARK    4  A    between atoms: C_7  and  C_12
REMARK    5  A    between atoms: C_11  and  C_13
REMARK    6  A    between atoms: C_16  and  C_20
REMARK    7  A    between atoms: C_19  and  C_21
REMARK                            x       y       z     vdW  Elec       q    Type
REMARK                         _______ _______ _______ _____ _____    ______ ____
ROOT
ATOM      1  O   UNL     1     -17.050   1.567  24.168  0.00  0.00    -0.336 OA
ATOM      3  N   UNL     1     -17.437   3.179  25.674  0.00  0.00    -0.190 NA
ATOM      4  N   UNL     1     -16.472   1.128  25.366  0.00  0.00    -0.056 NA
ATOM     12  C   UNL     1     -17.596   2.782  24.438  0.00  0.00    +0.245 A 
ATOM     16  C   UNL     1     -16.741   2.132  26.205  0.00  0.00    +0.204 A 
ENDROOT
BRANCH  16  20
ATOM      5  N   UNL     1     -16.128   0.911  29.665  0.00  0.00    -0.240 NA
ATOM     20  C   UNL     1     -16.331   2.120  27.580  0.00  0.00    +0.041 A 
ATOM     22  C   UNL     1     -15.756   3.242  28.167  0.00  0.00    +0.016 A 
ATOM     23  C   UNL     1     -16.492   0.989  28.365  0.00  0.00    +0.124 A 
ATOM     24  C   UNL     1     -15.367   3.200  29.500  0.00  0.00    +0.044 A 
ATOM     25  C   UNL     1     -15.573   2.021  30.200  0.00  0.00    +0.118 A 
BRANCH  25   6
ATOM      6  N   UNL     1     -15.170   1.995  31.558  0.00  0.00    -0.332 N 
ATOM     26  C   UNL     1     -14.645   3.139  32.227  0.00  0.00    +0.127 C 
ATOM     27  H   UNL     1     -15.048   1.083  31.986  0.00  0.00    +0.147 HD
ENDBRANCH  25   6
ENDBRANCH  16  20
BRANCH  12   7
ATOM      2  N   UNL     1     -17.345   4.116  22.352  0.00  0.00    -0.287 NA
ATOM      7  C   UNL     1     -18.293   3.478  23.287  0.00  0.00    +0.146 C 
ATOM      8  C   UNL     1     -19.111   2.509  22.414  0.00  0.00    +0.030 C 
ATOM      9  C   UNL     1     -18.594   2.718  20.998  0.00  0.00    +0.017 C 
ATOM     10  C   UNL     1     -17.990   4.107  21.039  0.00  0.00    +0.085 C 
BRANCH   2  11
ATOM     11  C   UNL     1     -16.953   5.460  22.760  0.00  0.00    +0.120 C 
BRANCH  11  13
ATOM     13  C   UNL     1     -15.595   5.832  22.228  0.00  0.00    -0.033 A 
ATOM     14  C   UNL     1     -14.481   5.062  22.561  0.00  0.00    +0.005 A 
ATOM     15  C   UNL     1     -15.449   6.950  21.406  0.00  0.00    +0.005 A 
ATOM     17  C   UNL     1     -13.222   5.408  22.071  0.00  0.00    +0.003 A 
ATOM     18  C   UNL     1     -14.190   7.296  20.916  0.00  0.00    +0.003 A 
ATOM     19  C   UNL     1     -13.076   6.525  21.248  0.00  0.00    -0.050 A 
ATOM     21  C   UNL     1     -11.729   6.895  20.725  0.00  0.00    +0.044 C 
ENDBRANCH  11  13
ENDBRANCH   2  11
ENDBRANCH  12   7
TORSDOF 5
ENDMDL
MODEL 10
REMARK VINA RESULT:      -6.3     27.441     31.407
REMARK  Name = 45783784
REMARK  7 active torsions:
REMARK  status: ('A' for Active; 'I' for Inactive)
REMARK    1  A    between atoms: N_2  and  C_11
REMARK    2  A    between atoms: N_6  and  C_25
REMARK    3  A    between atoms: N_6  and  C_26
REMARK    4  A    between atoms: C_7  and  C_12
REMARK    5  A    between atoms: C_11  and  C_13
REMARK    6  A    between atoms: C_16  and  C_20
REMARK    7  A    between atoms: C_19  and  C_21
REMARK                            x       y       z     vdW  Elec       q    Type
REMARK                         _______ _______ _______ _____ _____    ______ ____
ROOT
ATOM      1  O   UNL     1     -15.058   3.883  24.281  0.00  0.00    -0.336 OA
ATOM      3  N   UNL     1     -15.792   4.430  22.237  0.00  0.00    -0.190 NA
ATOM      4  N   UNL     1     -14.100   4.751  23.742  0.00  0.00    -0.056 NA
ATOM     12  C   UNL     1     -16.018   3.747  23.330  0.00  0.00    +0.245 A 
ATOM     16  C   UNL     1     -14.604   5.029  22.536  0.00  0.00    +0.204 A 
ENDROOT
BRANCH  16  20
ATOM      5  N   UNL     1     -14.113   7.548  19.844  0.00  0.00    -0.240 NA
ATOM     20  C   UNL     1     -13.945   5.901  21.607  0.00  0.00    +0.041 A 
ATOM     22  C   UNL     1     -12.557   5.968  21.545  0.00  0.00    +0.016 A 
ATOM     23  C   UNL     1     -14.671   6.706  20.742  0.00  0.00    +0.124 A 
ATOM     24  C   UNL     1     -11.947   6.823  20.636  0.00  0.00    +0.044 A 
ATOM     25  C   UNL     1     -12.762   7.586  19.814  0.00  0.00    +0.118 A 
BRANCH  25   6
ATOM      6  N   UNL     1     -12.125   8.453  18.892  0.00  0.00    -0.332 N 
ATOM     26  C   UNL     1     -11.080   8.020  18.024  0.00  0.00    +0.127 C 
ATOM     27  H   UNL     1     -12.269   9.449  19.020  0.00  0.00    +0.147 HD
ENDBRANCH  25   6
ENDBRANCH  16  20
BRANCH  12   7
ATOM      2  N   UNL     1     -17.419   2.751  25.129  0.00  0.00    -0.287 NA
ATOM      7  C   UNL     1     -17.185   2.844  23.675  0.00  0.00    +0.146 C 
ATOM      8  C   UNL     1     -18.519   3.351  23.096  0.00  0.00    +0.030 C 
ATOM      9  C   UNL     1     -19.457   3.452  24.291  0.00  0.00    +0.017 C 
ATOM     10  C   UNL     1     -18.851   2.502  25.304  0.00  0.00    +0.085 C 
BRANCH   2  11
ATOM     11  C   UNL     1     -16.604   1.730  25.778  0.00  0.00    +0.120 C 
BRANCH  11  13
ATOM     13  C   UNL     1     -16.350   2.053  27.226  0.00  0.00    -0.033 A 
ATOM     14  C   UNL     1     -16.399   1.042  28.185  0.00  0.00    +0.005 A 
ATOM     15  C   UNL     1     -16.072   3.365  27.610  0.00  0.00    +0.005 A 
ATOM     17  C   UNL     1     -16.168   1.340  29.527  0.00  0.00    +0.003 A 
ATOM     18  C   UNL     1     -15.841   3.664  28.953  0.00  0.00    +0.003 A 
ATOM     19  C   UNL     1     -15.888   2.652  29.912  0.00  0.00    -0.050 A 
ATOM     21  C   UNL     1     -15.642   2.971  31.347  0.00  0.00    +0.044 C 
ENDBRANCH  11  13
ENDBRANCH   2  11
ENDBRANCH  12   7
TORSDOF 5
ENDMDL
