MODEL 1
REMARK VINA RESULT:      -6.8      0.000      0.000
REMARK  Name = 45361373
REMARK  13 active torsions:
REMARK  status: ('A' for Active; 'I' for Inactive)
REMARK    1  A    between atoms: O_1  and  C_12
REMARK    2  A    between atoms: O_5  and  C_34
REMARK    3  A    between atoms: O_5  and  C_37
REMARK    4  A    between atoms: N_6  and  C_16
REMARK    5  A    between atoms: N_7  and  C_26
REMARK    6  A    between atoms: N_8  and  C_27
REMARK    7  A    between atoms: C_9  and  C_19
REMARK    8  A    between atoms: C_11  and  C_21
REMARK    9  A    between atoms: C_15  and  C_20
REMARK   10  A    between atoms: C_20  and  C_22
REMARK   11  A    between atoms: C_20  and  C_23
REMARK   12  A    between atoms: C_24  and  C_25
REMARK   13  A    between atoms: C_26  and  C_27
REMARK                            x       y       z     vdW  Elec       q    Type
REMARK                         _______ _______ _______ _____ _____    ______ ____
ROOT
ATOM      9  C   UNL     1      -5.797 -11.472   6.165  0.00  0.00    -0.027 C 
ATOM     10  C   UNL     1      -5.951 -10.012   6.707  0.00  0.00    +0.028 C 
ATOM     11  C   UNL     1      -5.851  -9.983   8.274  0.00  0.00    +0.012 C 
ATOM     12  C   UNL     1      -7.205  -9.317   6.104  0.00  0.00    +0.122 C 
ATOM     13  C   UNL     1      -5.785 -11.450   4.619  0.00  0.00    +0.007 C 
ATOM     14  C   UNL     1      -4.440 -12.044   6.638  0.00  0.00    +0.009 C 
ATOM     15  C   UNL     1      -7.241  -9.389   4.560  0.00  0.00    +0.029 C 
ATOM     16  C   UNL     1      -4.515 -10.629   8.741  0.00  0.00    +0.076 C 
ATOM     17  C   UNL     1      -7.031 -10.806   4.024  0.00  0.00    +0.007 C 
ATOM     18  C   UNL     1      -4.275 -12.019   8.150  0.00  0.00    +0.023 C 
ATOM     19  C   UNL     1      -6.938 -12.406   6.643  0.00  0.00    +0.011 C 
ATOM     21  C   UNL     1      -5.965  -8.571   8.873  0.00  0.00    +0.010 C 
ENDROOT
BRANCH  16   6
ATOM      3  O   UNL     1      -2.489  -9.501  10.432  0.00  0.00    -0.270 OA
ATOM      6  N   UNL     1      -4.442 -10.725  10.184  0.00  0.00    -0.308 N 
ATOM     24  C   UNL     1      -3.419 -10.143  10.913  0.00  0.00    +0.244 C 
ATOM     38  H   UNL     1      -5.112 -11.337  10.637  0.00  0.00    +0.149 HD
BRANCH  24  25
ATOM     25  C   UNL     1      -3.472 -10.355  12.383  0.00  0.00    +0.037 A 
ATOM     28  C   UNL     1      -4.704 -10.441  13.030  0.00  0.00    +0.016 A 
ATOM     29  C   UNL     1      -2.290 -10.466  13.114  0.00  0.00    +0.016 A 
ATOM     30  C   UNL     1      -4.754 -10.638  14.411  0.00  0.00    +0.046 A 
ATOM     31  C   UNL     1      -2.339 -10.663  14.494  0.00  0.00    +0.046 A 
ATOM     34  C   UNL     1      -3.572 -10.748  15.142  0.00  0.00    +0.120 A 
BRANCH  34   5
ATOM      5  O   UNL     1      -3.620 -10.941  16.489  0.00  0.00    -0.495 OA
ATOM     37  C   UNL     1      -4.913 -11.015  17.088  0.00  0.00    +0.277 C 
ENDBRANCH  34   5
ENDBRANCH  24  25
ENDBRANCH  16   6
BRANCH  12   1
ATOM      1  O   UNL     1      -7.193  -7.930   6.447  0.00  0.00    -0.391 OA
ATOM     39  H   UNL     1      -6.296  -7.699   6.742  0.00  0.00    +0.210 HD
ENDBRANCH  12   1
BRANCH  15  20
ATOM     20  C   UNL     1      -8.546  -8.816   3.994  0.00  0.00    +0.077 C 
ATOM     22  C   UNL     1      -9.717  -9.725   4.350  0.00  0.00    +0.017 C 
BRANCH  20  23
ATOM      2  O   UNL     1      -7.516  -7.983   1.965  0.00  0.00    -0.276 OA
ATOM      7  N   UNL     1      -9.433  -9.276   1.786  0.00  0.00    -0.314 N 
ATOM     23  C   UNL     1      -8.421  -8.634   2.484  0.00  0.00    +0.216 C 
ATOM     40  H   UNL     1     -10.155  -9.775   2.297  0.00  0.00    +0.149 HD
BRANCH   7  26
ATOM     26  C   UNL     1      -9.530  -9.245   0.345  0.00  0.00    +0.119 C 
BRANCH  26  27
ATOM     27  C   UNL     1      -9.019 -10.539  -0.270  0.00  0.00    +0.103 C 
BRANCH  27   8
ATOM      4  O   UNL     1      -6.471  -9.551  -3.455  0.00  0.00    -0.377 OA
ATOM      8  N   UNL     1      -7.812 -10.287  -1.056  0.00  0.00    -0.297 NA
ATOM     32  C   UNL     1      -7.772  -8.892  -1.517  0.00  0.00    +0.112 C 
ATOM     33  C   UNL     1      -7.737 -11.200  -2.204  0.00  0.00    +0.112 C 
ATOM     35  C   UNL     1      -6.512  -8.656  -2.343  0.00  0.00    +0.175 C 
ATOM     36  C   UNL     1      -6.476 -10.909  -3.015  0.00  0.00    +0.175 C 
ENDBRANCH  27   8
ENDBRANCH  26  27
ENDBRANCH   7  26
ENDBRANCH  20  23
ENDBRANCH  15  20
TORSDOF 9
ENDMDL
MODEL 2
REMARK VINA RESULT:      -6.8      5.918     10.564
REMARK  Name = 45361373
REMARK  13 active torsions:
REMARK  status: ('A' for Active; 'I' for Inactive)
REMARK    1  A    between atoms: O_1  and  C_12
REMARK    2  A    between atoms: O_5  and  C_34
REMARK    3  A    between atoms: O_5  and  C_37
REMARK    4  A    between atoms: N_6  and  C_16
REMARK    5  A    between atoms: N_7  and  C_26
REMARK    6  A    between atoms: N_8  and  C_27
REMARK    7  A    between atoms: C_9  and  C_19
REMARK    8  A    between atoms: C_11  and  C_21
REMARK    9  A    between atoms: C_15  and  C_20
REMARK   10  A    between atoms: C_20  and  C_22
REMARK   11  A    between atoms: C_20  and  C_23
REMARK   12  A    between atoms: C_24  and  C_25
REMARK   13  A    between atoms: C_26  and  C_27
REMARK                            x       y       z     vdW  Elec       q    Type
REMARK                         _______ _______ _______ _____ _____    ______ ____
ROOT
ATOM      9  C   UNL     1      -4.677 -11.110  16.879  0.00  0.00    -0.027 C 
ATOM     10  C   UNL     1      -5.510 -10.472  15.717  0.00  0.00    +0.028 C 
ATOM     11  C   UNL     1      -7.050 -10.570  16.013  0.00  0.00    +0.012 C 
ATOM     12  C   UNL     1      -5.059 -11.022  14.333  0.00  0.00    +0.122 C 
ATOM     13  C   UNL     1      -3.169 -10.896  16.611  0.00  0.00    +0.007 C 
ATOM     14  C   UNL     1      -5.027 -10.392  18.203  0.00  0.00    +0.009 C 
ATOM     15  C   UNL     1      -3.533 -10.900  14.113  0.00  0.00    +0.029 C 
ATOM     16  C   UNL     1      -7.378  -9.910  17.383  0.00  0.00    +0.076 C 
ATOM     17  C   UNL     1      -2.716 -11.468  15.274  0.00  0.00    +0.007 C 
ATOM     18  C   UNL     1      -6.512 -10.431  18.530  0.00  0.00    +0.023 C 
ATOM     19  C   UNL     1      -4.945 -12.629  17.037  0.00  0.00    +0.011 C 
ATOM     21  C   UNL     1      -7.928  -9.935  14.923  0.00  0.00    +0.010 C 
ENDROOT
BRANCH  16   6
ATOM      3  O   UNL     1      -9.402  -7.876  17.435  0.00  0.00    -0.270 OA
ATOM      6  N   UNL     1      -8.770 -10.085  17.742  0.00  0.00    -0.308 N 
ATOM     24  C   UNL     1      -9.673  -9.036  17.736  0.00  0.00    +0.244 C 
ATOM     38  H   UNL     1      -9.037 -10.991  18.112  0.00  0.00    +0.149 HD
BRANCH  24  25
ATOM     25  C   UNL     1     -11.058  -9.374  18.156  0.00  0.00    +0.037 A 
ATOM     28  C   UNL     1     -12.130  -9.092  17.309  0.00  0.00    +0.016 A 
ATOM     29  C   UNL     1     -11.285  -9.969  19.396  0.00  0.00    +0.016 A 
ATOM     30  C   UNL     1     -13.431  -9.408  17.705  0.00  0.00    +0.046 A 
ATOM     31  C   UNL     1     -12.585 -10.285  19.791  0.00  0.00    +0.046 A 
ATOM     34  C   UNL     1     -13.658 -10.003  18.945  0.00  0.00    +0.120 A 
BRANCH  34   5
ATOM      5  O   UNL     1     -14.927 -10.312  19.330  0.00  0.00    -0.495 OA
ATOM     37  C   UNL     1     -15.144 -10.540  20.722  0.00  0.00    +0.277 C 
ENDBRANCH  34   5
ENDBRANCH  24  25
ENDBRANCH  16   6
BRANCH  12   1
ATOM      1  O   UNL     1      -5.683 -10.266  13.294  0.00  0.00    -0.391 OA
ATOM     39  H   UNL     1      -6.020 -10.888  12.627  0.00  0.00    +0.210 HD
ENDBRANCH  12   1
BRANCH  15  20
ATOM     20  C   UNL     1      -3.093 -11.563  12.803  0.00  0.00    +0.077 C 
ATOM     22  C   UNL     1      -1.978 -12.568  13.072  0.00  0.00    +0.017 C 
BRANCH  20  23
ATOM      2  O   UNL     1      -1.504 -10.057  11.765  0.00  0.00    -0.276 OA
ATOM      7  N   UNL     1      -3.681 -10.097  10.965  0.00  0.00    -0.314 N 
ATOM     23  C   UNL     1      -2.652 -10.498  11.804  0.00  0.00    +0.216 C 
ATOM     40  H   UNL     1      -4.606 -10.499  11.081  0.00  0.00    +0.149 HD
BRANCH   7  26
ATOM     26  C   UNL     1      -3.507  -9.096   9.938  0.00  0.00    +0.119 C 
BRANCH  26  27
ATOM     27  C   UNL     1      -4.499  -9.294   8.802  0.00  0.00    +0.103 C 
BRANCH  27   8
ATOM      4  O   UNL     1      -8.663  -9.733   9.086  0.00  0.00    -0.377 OA
ATOM      8  N   UNL     1      -5.833  -9.565   9.334  0.00  0.00    -0.297 NA
ATOM     32  C   UNL     1      -6.476 -10.662   8.597  0.00  0.00    +0.112 C 
ATOM     33  C   UNL     1      -6.672  -8.360   9.278  0.00  0.00    +0.112 C 
ATOM     35  C   UNL     1      -7.870 -10.918   9.162  0.00  0.00    +0.175 C 
ATOM     36  C   UNL     1      -8.062  -8.672   9.828  0.00  0.00    +0.175 C 
ENDBRANCH  27   8
ENDBRANCH  26  27
ENDBRANCH   7  26
ENDBRANCH  20  23
ENDBRANCH  15  20
TORSDOF 9
ENDMDL
MODEL 3
REMARK VINA RESULT:      -6.5     24.691     26.351
REMARK  Name = 45361373
REMARK  13 active torsions:
REMARK  status: ('A' for Active; 'I' for Inactive)
REMARK    1  A    between atoms: O_1  and  C_12
REMARK    2  A    between atoms: O_5  and  C_34
REMARK    3  A    between atoms: O_5  and  C_37
REMARK    4  A    between atoms: N_6  and  C_16
REMARK    5  A    between atoms: N_7  and  C_26
REMARK    6  A    between atoms: N_8  and  C_27
REMARK    7  A    between atoms: C_9  and  C_19
REMARK    8  A    between atoms: C_11  and  C_21
REMARK    9  A    between atoms: C_15  and  C_20
REMARK   10  A    between atoms: C_20  and  C_22
REMARK   11  A    between atoms: C_20  and  C_23
REMARK   12  A    between atoms: C_24  and  C_25
REMARK   13  A    between atoms: C_26  and  C_27
REMARK                            x       y       z     vdW  Elec       q    Type
REMARK                         _______ _______ _______ _____ _____    ______ ____
ROOT
ATOM      9  C   UNL     1       9.494   6.116   6.053  0.00  0.00    -0.027 C 
ATOM     10  C   UNL     1      10.469   7.263   5.623  0.00  0.00    +0.028 C 
ATOM     11  C   UNL     1       9.962   8.654   6.150  0.00  0.00    +0.012 C 
ATOM     12  C   UNL     1      10.779   7.197   4.100  0.00  0.00    +0.122 C 
ATOM     13  C   UNL     1      10.080   4.752   5.618  0.00  0.00    +0.007 C 
ATOM     14  C   UNL     1       9.375   6.107   7.595  0.00  0.00    +0.009 C 
ATOM     15  C   UNL     1      11.266   5.799   3.652  0.00  0.00    +0.029 C 
ATOM     16  C   UNL     1       9.774   8.610   7.693  0.00  0.00    +0.076 C 
ATOM     17  C   UNL     1      10.348   4.670   4.122  0.00  0.00    +0.007 C 
ATOM     18  C   UNL     1       8.912   7.439   8.166  0.00  0.00    +0.023 C 
ATOM     19  C   UNL     1       8.082   6.273   5.433  0.00  0.00    +0.011 C 
ATOM     21  C   UNL     1      10.891   9.824   5.787  0.00  0.00    +0.010 C 
ENDROOT
BRANCH  16   6
ATOM      3  O   UNL     1      11.123  10.640   9.209  0.00  0.00    -0.270 OA
ATOM      6  N   UNL     1       9.197   9.838   8.198  0.00  0.00    -0.308 N 
ATOM     24  C   UNL     1       9.935  10.759   8.923  0.00  0.00    +0.244 C 
ATOM     38  H   UNL     1       8.194   9.948   8.098  0.00  0.00    +0.149 HD
BRANCH  24  25
ATOM     25  C   UNL     1       9.191  11.956   9.392  0.00  0.00    +0.037 A 
ATOM     28  C   UNL     1       8.576  11.947  10.644  0.00  0.00    +0.016 A 
ATOM     29  C   UNL     1       9.104  13.086   8.580  0.00  0.00    +0.016 A 
ATOM     30  C   UNL     1       7.876  13.071  11.085  0.00  0.00    +0.046 A 
ATOM     31  C   UNL     1       8.404  14.209   9.020  0.00  0.00    +0.046 A 
ATOM     34  C   UNL     1       7.789  14.201  10.273  0.00  0.00    +0.120 A 
BRANCH  34   5
ATOM      5  O   UNL     1       7.107  15.298  10.702  0.00  0.00    -0.495 OA
ATOM     37  C   UNL     1       5.681  15.221  10.688  0.00  0.00    +0.277 C 
ENDBRANCH  34   5
ENDBRANCH  24  25
ENDBRANCH  16   6
BRANCH  12   1
ATOM      1  O   UNL     1      11.830   8.114   3.788  0.00  0.00    -0.391 OA
ATOM     39  H   UNL     1      11.957   8.111   2.824  0.00  0.00    +0.210 HD
ENDBRANCH  12   1
BRANCH  15  20
ATOM     20  C   UNL     1      11.441   5.719   2.131  0.00  0.00    +0.077 C 
ATOM     22  C   UNL     1      10.746   4.475   1.588  0.00  0.00    +0.017 C 
BRANCH  20  23
ATOM      2  O   UNL     1      13.571   4.695   1.598  0.00  0.00    -0.276 OA
ATOM      7  N   UNL     1      13.444   7.010   1.688  0.00  0.00    -0.314 N 
ATOM     23  C   UNL     1      12.925   5.726   1.778  0.00  0.00    +0.216 C 
ATOM     40  H   UNL     1      12.842   7.807   1.873  0.00  0.00    +0.149 HD
BRANCH   7  26
ATOM     26  C   UNL     1      14.828   7.273   1.368  0.00  0.00    +0.119 C 
BRANCH  26  27
ATOM     27  C   UNL     1      15.681   7.343   2.626  0.00  0.00    +0.103 C 
BRANCH  27   8
ATOM      4  O   UNL     1      14.817   9.435   6.160  0.00  0.00    -0.377 OA
ATOM      8  N   UNL     1      14.947   8.010   3.700  0.00  0.00    -0.297 NA
ATOM     32  C   UNL     1      15.325   9.428   3.788  0.00  0.00    +0.112 C 
ATOM     33  C   UNL     1      15.187   7.344   4.987  0.00  0.00    +0.112 C 
ATOM     35  C   UNL     1      14.557  10.098   4.923  0.00  0.00    +0.175 C 
ATOM     36  C   UNL     1      14.421   8.065   6.094  0.00  0.00    +0.175 C 
ENDBRANCH  27   8
ENDBRANCH  26  27
ENDBRANCH   7  26
ENDBRANCH  20  23
ENDBRANCH  15  20
TORSDOF 9
ENDMDL
MODEL 4
REMARK VINA RESULT:      -6.5     22.169     23.727
REMARK  Name = 45361373
REMARK  13 active torsions:
REMARK  status: ('A' for Active; 'I' for Inactive)
REMARK    1  A    between atoms: O_1  and  C_12
REMARK    2  A    between atoms: O_5  and  C_34
REMARK    3  A    between atoms: O_5  and  C_37
REMARK    4  A    between atoms: N_6  and  C_16
REMARK    5  A    between atoms: N_7  and  C_26
REMARK    6  A    between atoms: N_8  and  C_27
REMARK    7  A    between atoms: C_9  and  C_19
REMARK    8  A    between atoms: C_11  and  C_21
REMARK    9  A    between atoms: C_15  and  C_20
REMARK   10  A    between atoms: C_20  and  C_22
REMARK   11  A    between atoms: C_20  and  C_23
REMARK   12  A    between atoms: C_24  and  C_25
REMARK   13  A    between atoms: C_26  and  C_27
REMARK                            x       y       z     vdW  Elec       q    Type
REMARK                         _______ _______ _______ _____ _____    ______ ____
ROOT
ATOM      9  C   UNL     1      13.680   5.141  -0.363  0.00  0.00    -0.027 C 
ATOM     10  C   UNL     1      12.119   5.064  -0.277  0.00  0.00    +0.028 C 
ATOM     11  C   UNL     1      11.653   4.813   1.202  0.00  0.00    +0.012 C 
ATOM     12  C   UNL     1      11.544   4.080  -1.336  0.00  0.00    +0.122 C 
ATOM     13  C   UNL     1      14.100   5.502  -1.808  0.00  0.00    +0.007 C 
ATOM     14  C   UNL     1      14.181   6.269   0.568  0.00  0.00    +0.009 C 
ATOM     15  C   UNL     1      12.050   4.382  -2.765  0.00  0.00    +0.029 C 
ATOM     16  C   UNL     1      12.225   5.912   2.141  0.00  0.00    +0.076 C 
ATOM     17  C   UNL     1      13.572   4.518  -2.843  0.00  0.00    +0.007 C 
ATOM     18  C   UNL     1      13.738   6.093   2.012  0.00  0.00    +0.023 C 
ATOM     19  C   UNL     1      14.364   3.809   0.037  0.00  0.00    +0.011 C 
ATOM     21  C   UNL     1      10.125   4.754   1.364  0.00  0.00    +0.010 C 
ENDROOT
BRANCH  16   6
ATOM      3  O   UNL     1      10.555   7.498   3.854  0.00  0.00    -0.270 OA
ATOM      6  N   UNL     1      11.911   5.647   3.530  0.00  0.00    -0.308 N 
ATOM     24  C   UNL     1      11.091   6.476   4.275  0.00  0.00    +0.244 C 
ATOM     38  H   UNL     1      12.411   4.884   3.974  0.00  0.00    +0.149 HD
BRANCH  24  25
ATOM     25  C   UNL     1      10.889   6.081   5.693  0.00  0.00    +0.037 A 
ATOM     28  C   UNL     1      11.686   6.638   6.692  0.00  0.00    +0.016 A 
ATOM     29  C   UNL     1       9.904   5.150   6.023  0.00  0.00    +0.016 A 
ATOM     30  C   UNL     1      11.497   6.265   8.024  0.00  0.00    +0.046 A 
ATOM     31  C   UNL     1       9.715   4.776   7.354  0.00  0.00    +0.046 A 
ATOM     34  C   UNL     1      10.512   5.334   8.354  0.00  0.00    +0.120 A 
BRANCH  34   5
ATOM      5  O   UNL     1      10.327   4.970   9.653  0.00  0.00    -0.495 OA
ATOM     37  C   UNL     1       9.004   4.603  10.041  0.00  0.00    +0.277 C 
ENDBRANCH  34   5
ENDBRANCH  24  25
ENDBRANCH  16   6
BRANCH  12   1
ATOM      1  O   UNL     1      10.121   4.198  -1.374  0.00  0.00    -0.391 OA
ATOM     39  H   UNL     1       9.837   4.141  -2.302  0.00  0.00    +0.210 HD
ENDBRANCH  12   1
BRANCH  15  20
ATOM     20  C   UNL     1      11.578   3.325  -3.771  0.00  0.00    +0.077 C 
ATOM     22  C   UNL     1      12.778   2.671  -4.447  0.00  0.00    +0.017 C 
BRANCH  20  23
ATOM      2  O   UNL     1      11.013   4.297  -5.917  0.00  0.00    -0.276 OA
ATOM      7  N   UNL     1       9.351   4.116  -4.309  0.00  0.00    -0.314 N 
ATOM     23  C   UNL     1      10.642   3.962  -4.793  0.00  0.00    +0.216 C 
ATOM     40  H   UNL     1       9.136   3.830  -3.359  0.00  0.00    +0.149 HD
BRANCH   7  26
ATOM     26  C   UNL     1       8.287   4.699  -5.093  0.00  0.00    +0.119 C 
BRANCH  26  27
ATOM     27  C   UNL     1       8.288   6.216  -4.984  0.00  0.00    +0.103 C 
BRANCH  27   8
ATOM      4  O   UNL     1       4.577   6.464  -3.040  0.00  0.00    -0.377 OA
ATOM      8  N   UNL     1       6.976   6.695  -4.554  0.00  0.00    -0.297 NA
ATOM     32  C   UNL     1       6.956   6.932  -3.103  0.00  0.00    +0.112 C 
ATOM     33  C   UNL     1       5.924   5.737  -4.922  0.00  0.00    +0.112 C 
ATOM     35  C   UNL     1       5.574   7.419  -2.677  0.00  0.00    +0.175 C 
ATOM     36  C   UNL     1       4.566   6.253  -4.452  0.00  0.00    +0.175 C 
ENDBRANCH  27   8
ENDBRANCH  26  27
ENDBRANCH   7  26
ENDBRANCH  20  23
ENDBRANCH  15  20
TORSDOF 9
ENDMDL
MODEL 5
REMARK VINA RESULT:      -6.4      4.136     12.096
REMARK  Name = 45361373
REMARK  13 active torsions:
REMARK  status: ('A' for Active; 'I' for Inactive)
REMARK    1  A    between atoms: O_1  and  C_12
REMARK    2  A    between atoms: O_5  and  C_34
REMARK    3  A    between atoms: O_5  and  C_37
REMARK    4  A    between atoms: N_6  and  C_16
REMARK    5  A    between atoms: N_7  and  C_26
REMARK    6  A    between atoms: N_8  and  C_27
REMARK    7  A    between atoms: C_9  and  C_19
REMARK    8  A    between atoms: C_11  and  C_21
REMARK    9  A    between atoms: C_15  and  C_20
REMARK   10  A    between atoms: C_20  and  C_22
REMARK   11  A    between atoms: C_20  and  C_23
REMARK   12  A    between atoms: C_24  and  C_25
REMARK   13  A    between atoms: C_26  and  C_27
REMARK                            x       y       z     vdW  Elec       q    Type
REMARK                         _______ _______ _______ _____ _____    ______ ____
ROOT
ATOM      9  C   UNL     1      -3.355 -11.404  11.649  0.00  0.00    -0.027 C 
ATOM     10  C   UNL     1      -4.712 -10.915  12.259  0.00  0.00    +0.028 C 
ATOM     11  C   UNL     1      -5.509 -10.044  11.222  0.00  0.00    +0.012 C 
ATOM     12  C   UNL     1      -4.500 -10.264  13.656  0.00  0.00    +0.122 C 
ATOM     13  C   UNL     1      -2.651 -12.349  12.651  0.00  0.00    +0.007 C 
ATOM     14  C   UNL     1      -3.643 -12.211  10.363  0.00  0.00    +0.009 C 
ATOM     15  C   UNL     1      -3.703 -11.172  14.621  0.00  0.00    +0.029 C 
ATOM     16  C   UNL     1      -5.727 -10.841   9.905  0.00  0.00    +0.076 C 
ATOM     17  C   UNL     1      -2.406 -11.701  14.008  0.00  0.00    +0.007 C 
ATOM     18  C   UNL     1      -4.437 -11.427   9.329  0.00  0.00    +0.023 C 
ATOM     19  C   UNL     1      -2.399 -10.231  11.312  0.00  0.00    +0.011 C 
ATOM     21  C   UNL     1      -6.869  -9.554  11.747  0.00  0.00    +0.010 C 
ENDROOT
BRANCH  16   6
ATOM      3  O   UNL     1      -7.692 -11.703   7.997  0.00  0.00    -0.270 OA
ATOM      6  N   UNL     1      -6.357 -10.028   8.885  0.00  0.00    -0.308 N 
ATOM     24  C   UNL     1      -7.298 -10.539   8.008  0.00  0.00    +0.244 C 
ATOM     38  H   UNL     1      -5.996  -9.088   8.761  0.00  0.00    +0.149 HD
BRANCH  24  25
ATOM     25  C   UNL     1      -7.830  -9.583   7.003  0.00  0.00    +0.037 A 
ATOM     28  C   UNL     1      -7.831  -8.216   7.275  0.00  0.00    +0.016 A 
ATOM     29  C   UNL     1      -8.331 -10.054   5.789  0.00  0.00    +0.016 A 
ATOM     30  C   UNL     1      -8.333  -7.318   6.332  0.00  0.00    +0.046 A 
ATOM     31  C   UNL     1      -8.833  -9.157   4.846  0.00  0.00    +0.046 A 
ATOM     34  C   UNL     1      -8.834  -7.788   5.118  0.00  0.00    +0.120 A 
BRANCH  34   5
ATOM      5  O   UNL     1      -9.323  -6.913   4.197  0.00  0.00    -0.495 OA
ATOM     37  C   UNL     1     -10.734  -6.917   3.984  0.00  0.00    +0.277 C 
ENDBRANCH  34   5
ENDBRANCH  24  25
ENDBRANCH  16   6
BRANCH  12   1
ATOM      1  O   UNL     1      -5.768 -10.029  14.270  0.00  0.00    -0.391 OA
ATOM     39  H   UNL     1      -6.367 -10.750  14.012  0.00  0.00    +0.210 HD
ENDBRANCH  12   1
BRANCH  15  20
ATOM     20  C   UNL     1      -3.392 -10.462  15.944  0.00  0.00    +0.077 C 
ATOM     22  C   UNL     1      -1.946 -10.720  16.351  0.00  0.00    +0.017 C 
BRANCH  20  23
ATOM      2  O   UNL     1      -4.151 -11.906  17.735  0.00  0.00    -0.276 OA
ATOM      7  N   UNL     1      -5.496 -10.125  17.100  0.00  0.00    -0.314 N 
ATOM     23  C   UNL     1      -4.365 -10.926  17.023  0.00  0.00    +0.216 C 
ATOM     40  H   UNL     1      -5.601  -9.346  16.457  0.00  0.00    +0.149 HD
BRANCH   7  26
ATOM     26  C   UNL     1      -6.562 -10.367  18.044  0.00  0.00    +0.119 C 
BRANCH  26  27
ATOM     27  C   UNL     1      -7.820 -10.857  17.342  0.00  0.00    +0.103 C 
BRANCH  27   8
ATOM      4  O   UNL     1     -10.438  -8.424  15.142  0.00  0.00    -0.377 OA
ATOM      8  N   UNL     1      -8.328  -9.829  16.435  0.00  0.00    -0.297 NA
ATOM     32  C   UNL     1      -9.164  -8.861  17.159  0.00  0.00    +0.112 C 
ATOM     33  C   UNL     1      -9.094 -10.434  15.337  0.00  0.00    +0.112 C 
ATOM     35  C   UNL     1      -9.692  -7.807  16.191  0.00  0.00    +0.175 C 
ATOM     36  C   UNL     1      -9.623  -9.342  14.412  0.00  0.00    +0.175 C 
ENDBRANCH  27   8
ENDBRANCH  26  27
ENDBRANCH   7  26
ENDBRANCH  20  23
ENDBRANCH  15  20
TORSDOF 9
ENDMDL
MODEL 6
REMARK VINA RESULT:      -6.3      6.801     13.338
REMARK  Name = 45361373
REMARK  13 active torsions:
REMARK  status: ('A' for Active; 'I' for Inactive)
REMARK    1  A    between atoms: O_1  and  C_12
REMARK    2  A    between atoms: O_5  and  C_34
REMARK    3  A    between atoms: O_5  and  C_37
REMARK    4  A    between atoms: N_6  and  C_16
REMARK    5  A    between atoms: N_7  and  C_26
REMARK    6  A    between atoms: N_8  and  C_27
REMARK    7  A    between atoms: C_9  and  C_19
REMARK    8  A    between atoms: C_11  and  C_21
REMARK    9  A    between atoms: C_15  and  C_20
REMARK   10  A    between atoms: C_20  and  C_22
REMARK   11  A    between atoms: C_20  and  C_23
REMARK   12  A    between atoms: C_24  and  C_25
REMARK   13  A    between atoms: C_26  and  C_27
REMARK                            x       y       z     vdW  Elec       q    Type
REMARK                         _______ _______ _______ _____ _____    ______ ____
ROOT
ATOM      9  C   UNL     1     -12.463  -4.452  10.673  0.00  0.00    -0.027 C 
ATOM     10  C   UNL     1     -11.938  -5.897  10.969  0.00  0.00    +0.028 C 
ATOM     11  C   UNL     1     -11.472  -6.604   9.645  0.00  0.00    +0.012 C 
ATOM     12  C   UNL     1     -12.953  -6.698  11.833  0.00  0.00    +0.122 C 
ATOM     13  C   UNL     1     -12.805  -3.745  12.005  0.00  0.00    +0.007 C 
ATOM     14  C   UNL     1     -11.341  -3.640   9.984  0.00  0.00    +0.009 C 
ATOM     15  C   UNL     1     -13.372  -5.940  13.114  0.00  0.00    +0.029 C 
ATOM     16  C   UNL     1     -10.399  -5.741   8.923  0.00  0.00    +0.076 C 
ATOM     17  C   UNL     1     -13.828  -4.507  12.837  0.00  0.00    +0.007 C 
ATOM     18  C   UNL     1     -10.831  -4.291   8.707  0.00  0.00    +0.023 C 
ATOM     19  C   UNL     1     -13.722  -4.451   9.769  0.00  0.00    +0.011 C 
ATOM     21  C   UNL     1     -10.916  -8.020   9.867  0.00  0.00    +0.010 C 
ENDROOT
BRANCH  16   6
ATOM      3  O   UNL     1      -7.826  -6.777   8.181  0.00  0.00    -0.270 OA
ATOM      6  N   UNL     1     -10.031  -6.306   7.641  0.00  0.00    -0.308 N 
ATOM     24  C   UNL     1      -8.757  -6.781   7.379  0.00  0.00    +0.244 C 
ATOM     38  H   UNL     1     -10.716  -6.236   6.897  0.00  0.00    +0.149 HD
BRANCH  24  25
ATOM     25  C   UNL     1      -8.532  -7.305   6.008  0.00  0.00    +0.037 A 
ATOM     28  C   UNL     1      -7.426  -8.111   5.742  0.00  0.00    +0.016 A 
ATOM     29  C   UNL     1      -9.427  -6.989   4.985  0.00  0.00    +0.016 A 
ATOM     30  C   UNL     1      -7.214  -8.602   4.453  0.00  0.00    +0.046 A 
ATOM     31  C   UNL     1      -9.215  -7.479   3.697  0.00  0.00    +0.046 A 
ATOM     34  C   UNL     1      -8.108  -8.285   3.431  0.00  0.00    +0.120 A 
BRANCH  34   5
ATOM      5  O   UNL     1      -7.902  -8.764   2.173  0.00  0.00    -0.495 OA
ATOM     37  C   UNL     1      -8.866  -8.414   1.180  0.00  0.00    +0.277 C 
ENDBRANCH  34   5
ENDBRANCH  24  25
ENDBRANCH  16   6
BRANCH  12   1
ATOM      1  O   UNL     1     -12.352  -7.922  12.262  0.00  0.00    -0.391 OA
ATOM     39  H   UNL     1     -11.956  -8.353  11.486  0.00  0.00    +0.210 HD
ENDBRANCH  12   1
BRANCH  15  20
ATOM     20  C   UNL     1     -14.468  -6.687  13.884  0.00  0.00    +0.077 C 
ATOM     22  C   UNL     1     -15.755  -5.871  13.889  0.00  0.00    +0.017 C 
BRANCH  20  23
ATOM      2  O   UNL     1     -14.615  -6.627  16.302  0.00  0.00    -0.276 OA
ATOM      7  N   UNL     1     -12.801  -7.695  15.328  0.00  0.00    -0.314 N 
ATOM     23  C   UNL     1     -13.993  -6.986  15.303  0.00  0.00    +0.216 C 
ATOM     40  H   UNL     1     -12.343  -7.933  14.453  0.00  0.00    +0.149 HD
BRANCH   7  26
ATOM     26  C   UNL     1     -12.153  -8.091  16.556  0.00  0.00    +0.119 C 
BRANCH  26  27
ATOM     27  C   UNL     1     -10.777  -7.455  16.684  0.00  0.00    +0.103 C 
BRANCH  27   8
ATOM      4  O   UNL     1      -8.556 -10.750  18.033  0.00  0.00    -0.377 OA
ATOM      8  N   UNL     1      -9.899  -8.301  17.491  0.00  0.00    -0.297 NA
ATOM     32  C   UNL     1      -8.722  -8.720  16.717  0.00  0.00    +0.112 C 
ATOM     33  C   UNL     1     -10.623  -9.480  17.986  0.00  0.00    +0.112 C 
ATOM     35  C   UNL     1      -7.829  -9.611  17.575  0.00  0.00    +0.175 C 
ATOM     36  C   UNL     1      -9.683 -10.353  18.815  0.00  0.00    +0.175 C 
ENDBRANCH  27   8
ENDBRANCH  26  27
ENDBRANCH   7  26
ENDBRANCH  20  23
ENDBRANCH  15  20
TORSDOF 9
ENDMDL
MODEL 7
REMARK VINA RESULT:      -6.1      5.088     12.274
REMARK  Name = 45361373
REMARK  13 active torsions:
REMARK  status: ('A' for Active; 'I' for Inactive)
REMARK    1  A    between atoms: O_1  and  C_12
REMARK    2  A    between atoms: O_5  and  C_34
REMARK    3  A    between atoms: O_5  and  C_37
REMARK    4  A    between atoms: N_6  and  C_16
REMARK    5  A    between atoms: N_7  and  C_26
REMARK    6  A    between atoms: N_8  and  C_27
REMARK    7  A    between atoms: C_9  and  C_19
REMARK    8  A    between atoms: C_11  and  C_21
REMARK    9  A    between atoms: C_15  and  C_20
REMARK   10  A    between atoms: C_20  and  C_22
REMARK   11  A    between atoms: C_20  and  C_23
REMARK   12  A    between atoms: C_24  and  C_25
REMARK   13  A    between atoms: C_26  and  C_27
REMARK                            x       y       z     vdW  Elec       q    Type
REMARK                         _______ _______ _______ _____ _____    ______ ____
ROOT
ATOM      9  C   UNL     1      -3.844 -13.916  12.741  0.00  0.00    -0.027 C 
ATOM     10  C   UNL     1      -4.147 -12.470  12.224  0.00  0.00    +0.028 C 
ATOM     11  C   UNL     1      -3.613 -12.277  10.759  0.00  0.00    +0.012 C 
ATOM     12  C   UNL     1      -3.686 -11.395  13.250  0.00  0.00    +0.122 C 
ATOM     13  C   UNL     1      -4.482 -14.107  14.138  0.00  0.00    +0.007 C 
ATOM     14  C   UNL     1      -4.494 -14.940  11.782  0.00  0.00    +0.009 C 
ATOM     15  C   UNL     1      -4.243 -11.652  14.669  0.00  0.00    +0.029 C 
ATOM     16  C   UNL     1      -4.215 -13.360   9.819  0.00  0.00    +0.076 C 
ATOM     17  C   UNL     1      -4.003 -13.081  15.156  0.00  0.00    +0.007 C 
ATOM     18  C   UNL     1      -4.033 -14.785  10.341  0.00  0.00    +0.023 C 
ATOM     19  C   UNL     1      -2.325 -14.204  12.843  0.00  0.00    +0.011 C 
ATOM     21  C   UNL     1      -3.903 -10.884  10.176  0.00  0.00    +0.010 C 
ENDROOT
BRANCH  16   6
ATOM      3  O   UNL     1      -5.676 -13.203   7.353  0.00  0.00    -0.270 OA
ATOM      6  N   UNL     1      -3.655 -13.284   8.486  0.00  0.00    -0.308 N 
ATOM     24  C   UNL     1      -4.447 -13.211   7.353  0.00  0.00    +0.244 C 
ATOM     38  H   UNL     1      -2.651 -13.403   8.404  0.00  0.00    +0.149 HD
BRANCH  24  25
ATOM     25  C   UNL     1      -3.720 -13.166   6.058  0.00  0.00    +0.037 A 
ATOM     28  C   UNL     1      -2.602 -13.976   5.859  0.00  0.00    +0.016 A 
ATOM     29  C   UNL     1      -4.154 -12.313   5.044  0.00  0.00    +0.016 A 
ATOM     30  C   UNL     1      -1.918 -13.931   4.643  0.00  0.00    +0.046 A 
ATOM     31  C   UNL     1      -3.471 -12.269   3.829  0.00  0.00    +0.046 A 
ATOM     34  C   UNL     1      -2.352 -13.078   3.629  0.00  0.00    +0.120 A 
BRANCH  34   5
ATOM      5  O   UNL     1      -1.685 -13.035   2.443  0.00  0.00    -0.495 OA
ATOM     37  C   UNL     1      -0.831 -14.137   2.139  0.00  0.00    +0.277 C 
ENDBRANCH  34   5
ENDBRANCH  24  25
ENDBRANCH  16   6
BRANCH  12   1
ATOM      1  O   UNL     1      -4.169 -10.113  12.848  0.00  0.00    -0.391 OA
ATOM     39  H   UNL     1      -4.643  -9.718  13.600  0.00  0.00    +0.210 HD
ENDBRANCH  12   1
BRANCH  15  20
ATOM     20  C   UNL     1      -3.673 -10.660  15.691  0.00  0.00    +0.077 C 
ATOM     22  C   UNL     1      -2.183 -10.912  15.893  0.00  0.00    +0.017 C 
BRANCH  20  23
ATOM      2  O   UNL     1      -3.958 -11.285  18.015  0.00  0.00    -0.276 OA
ATOM      7  N   UNL     1      -5.717 -10.236  16.925  0.00  0.00    -0.314 N 
ATOM     23  C   UNL     1      -4.439 -10.771  17.006  0.00  0.00    +0.216 C 
ATOM     40  H   UNL     1      -6.042  -9.850  16.043  0.00  0.00    +0.149 HD
BRANCH   7  26
ATOM     26  C   UNL     1      -6.633 -10.228  18.041  0.00  0.00    +0.119 C 
BRANCH  26  27
ATOM     27  C   UNL     1      -8.057 -10.513  17.588  0.00  0.00    +0.103 C 
BRANCH  27   8
ATOM      4  O   UNL     1     -10.496  -8.171  15.103  0.00  0.00    -0.377 OA
ATOM      8  N   UNL     1      -8.496  -9.504  16.626  0.00  0.00    -0.297 NA
ATOM     32  C   UNL     1      -9.437  -8.563  17.249  0.00  0.00    +0.112 C 
ATOM     33  C   UNL     1      -9.117 -10.136  15.454  0.00  0.00    +0.112 C 
ATOM     35  C   UNL     1      -9.890  -7.528  16.224  0.00  0.00    +0.175 C 
ATOM     36  C   UNL     1      -9.577  -9.063  14.470  0.00  0.00    +0.175 C 
ENDBRANCH  27   8
ENDBRANCH  26  27
ENDBRANCH   7  26
ENDBRANCH  20  23
ENDBRANCH  15  20
TORSDOF 9
ENDMDL
MODEL 8
REMARK VINA RESULT:      -6.0     22.067     24.338
REMARK  Name = 45361373
REMARK  13 active torsions:
REMARK  status: ('A' for Active; 'I' for Inactive)
REMARK    1  A    between atoms: O_1  and  C_12
REMARK    2  A    between atoms: O_5  and  C_34
REMARK    3  A    between atoms: O_5  and  C_37
REMARK    4  A    between atoms: N_6  and  C_16
REMARK    5  A    between atoms: N_7  and  C_26
REMARK    6  A    between atoms: N_8  and  C_27
REMARK    7  A    between atoms: C_9  and  C_19
REMARK    8  A    between atoms: C_11  and  C_21
REMARK    9  A    between atoms: C_15  and  C_20
REMARK   10  A    between atoms: C_20  and  C_22
REMARK   11  A    between atoms: C_20  and  C_23
REMARK   12  A    between atoms: C_24  and  C_25
REMARK   13  A    between atoms: C_26  and  C_27
REMARK                            x       y       z     vdW  Elec       q    Type
REMARK                         _______ _______ _______ _____ _____    ______ ____
ROOT
ATOM      9  C   UNL     1     -11.173   8.355  18.365  0.00  0.00    -0.027 C 
ATOM     10  C   UNL     1     -12.692   8.687  18.184  0.00  0.00    +0.028 C 
ATOM     11  C   UNL     1     -13.581   7.735  19.064  0.00  0.00    +0.012 C 
ATOM     12  C   UNL     1     -13.078   8.760  16.679  0.00  0.00    +0.122 C 
ATOM     13  C   UNL     1     -10.324   9.381  17.577  0.00  0.00    +0.007 C 
ATOM     14  C   UNL     1     -10.803   8.488  19.861  0.00  0.00    +0.009 C 
ATOM     15  C   UNL     1     -12.159   9.708  15.875  0.00  0.00    +0.029 C 
ATOM     16  C   UNL     1     -13.149   7.821  20.555  0.00  0.00    +0.076 C 
ATOM     17  C   UNL     1     -10.672   9.426  16.095  0.00  0.00    +0.007 C 
ATOM     18  C   UNL     1     -11.650   7.606  20.766  0.00  0.00    +0.023 C 
ATOM     19  C   UNL     1     -10.814   6.929  17.875  0.00  0.00    +0.011 C 
ATOM     21  C   UNL     1     -15.087   8.026  18.956  0.00  0.00    +0.010 C 
ENDROOT
BRANCH  16   6
ATOM      3  O   UNL     1     -14.656   8.403  22.928  0.00  0.00    -0.270 OA
ATOM      6  N   UNL     1     -13.869   6.871  21.377  0.00  0.00    -0.308 N 
ATOM     24  C   UNL     1     -14.570   7.252  22.509  0.00  0.00    +0.244 C 
ATOM     38  H   UNL     1     -13.746   5.889  21.155  0.00  0.00    +0.149 HD
BRANCH  24  25
ATOM     25  C   UNL     1     -15.233   6.154  23.258  0.00  0.00    +0.037 A 
ATOM     28  C   UNL     1     -14.538   4.975  23.526  0.00  0.00    +0.016 A 
ATOM     29  C   UNL     1     -16.551   6.302  23.691  0.00  0.00    +0.016 A 
ATOM     30  C   UNL     1     -15.163   3.943  24.228  0.00  0.00    +0.046 A 
ATOM     31  C   UNL     1     -17.174   5.270  24.392  0.00  0.00    +0.046 A 
ATOM     34  C   UNL     1     -16.480   4.090  24.661  0.00  0.00    +0.120 A 
BRANCH  34   5
ATOM      5  O   UNL     1     -17.089   3.084  25.346  0.00  0.00    -0.495 OA
ATOM     37  C   UNL     1     -16.976   3.108  26.769  0.00  0.00    +0.277 C 
ENDBRANCH  34   5
ENDBRANCH  24  25
ENDBRANCH  16   6
BRANCH  12   1
ATOM      1  O   UNL     1     -14.405   9.273  16.551  0.00  0.00    -0.391 OA
ATOM     39  H   UNL     1     -14.867   9.132  17.395  0.00  0.00    +0.210 HD
ENDBRANCH  12   1
BRANCH  15  20
ATOM     20  C   UNL     1     -12.471   9.666  14.374  0.00  0.00    +0.077 C 
ATOM     22  C   UNL     1     -11.382   8.898  13.633  0.00  0.00    +0.017 C 
BRANCH  20  23
ATOM      2  O   UNL     1     -13.689  11.688  13.831  0.00  0.00    -0.276 OA
ATOM      7  N   UNL     1     -11.420  11.598  13.356  0.00  0.00    -0.314 N 
ATOM     23  C   UNL     1     -12.617  11.085  13.834  0.00  0.00    +0.216 C 
ATOM     40  H   UNL     1     -10.585  11.021  13.378  0.00  0.00    +0.149 HD
BRANCH   7  26
ATOM     26  C   UNL     1     -11.308  12.923  12.792  0.00  0.00    +0.119 C 
BRANCH  26  27
ATOM     27  C   UNL     1     -10.881  13.936  13.844  0.00  0.00    +0.103 C 
BRANCH  27   8
ATOM      4  O   UNL     1      -7.789  13.629  16.664  0.00  0.00    -0.377 OA
ATOM      8  N   UNL     1      -9.778  13.404  14.643  0.00  0.00    -0.297 NA
ATOM     32  C   UNL     1     -10.128  13.388  16.070  0.00  0.00    +0.112 C 
ATOM     33  C   UNL     1      -8.555  14.189  14.432  0.00  0.00    +0.112 C 
ATOM     35  C   UNL     1      -8.959  12.841  16.884  0.00  0.00    +0.175 C 
ATOM     36  C   UNL     1      -7.423  13.622  15.285  0.00  0.00    +0.175 C 
ENDBRANCH  27   8
ENDBRANCH  26  27
ENDBRANCH   7  26
ENDBRANCH  20  23
ENDBRANCH  15  20
TORSDOF 9
ENDMDL
MODEL 9
REMARK VINA RESULT:      -6.0     23.463     26.080
REMARK  Name = 45361373
REMARK  13 active torsions:
REMARK  status: ('A' for Active; 'I' for Inactive)
REMARK    1  A    between atoms: O_1  and  C_12
REMARK    2  A    between atoms: O_5  and  C_34
REMARK    3  A    between atoms: O_5  and  C_37
REMARK    4  A    between atoms: N_6  and  C_16
REMARK    5  A    between atoms: N_7  and  C_26
REMARK    6  A    between atoms: N_8  and  C_27
REMARK    7  A    between atoms: C_9  and  C_19
REMARK    8  A    between atoms: C_11  and  C_21
REMARK    9  A    between atoms: C_15  and  C_20
REMARK   10  A    between atoms: C_20  and  C_22
REMARK   11  A    between atoms: C_20  and  C_23
REMARK   12  A    between atoms: C_24  and  C_25
REMARK   13  A    between atoms: C_26  and  C_27
REMARK                            x       y       z     vdW  Elec       q    Type
REMARK                         _______ _______ _______ _____ _____    ______ ____
ROOT
ATOM      9  C   UNL     1     -13.245   7.142  21.119  0.00  0.00    -0.027 C 
ATOM     10  C   UNL     1     -14.040   7.215  19.773  0.00  0.00    +0.028 C 
ATOM     11  C   UNL     1     -13.610   8.474  18.938  0.00  0.00    +0.012 C 
ATOM     12  C   UNL     1     -15.570   7.063  20.014  0.00  0.00    +0.122 C 
ATOM     13  C   UNL     1     -13.608   5.835  21.862  0.00  0.00    +0.007 C 
ATOM     14  C   UNL     1     -11.731   7.101  20.808  0.00  0.00    +0.009 C 
ATOM     15  C   UNL     1     -15.919   5.809  20.848  0.00  0.00    +0.029 C 
ATOM     16  C   UNL     1     -12.074   8.461  18.695  0.00  0.00    +0.076 C 
ATOM     17  C   UNL     1     -15.100   5.701  22.135  0.00  0.00    +0.007 C 
ATOM     18  C   UNL     1     -11.259   8.285  19.977  0.00  0.00    +0.023 C 
ATOM     19  C   UNL     1     -13.541   8.344  22.051  0.00  0.00    +0.011 C 
ATOM     21  C   UNL     1     -14.334   8.593  17.586  0.00  0.00    +0.010 C 
ENDROOT
BRANCH  16   6
ATOM      3  O   UNL     1     -10.408   8.610  16.363  0.00  0.00    -0.270 OA
ATOM      6  N   UNL     1     -11.626   9.666  18.028  0.00  0.00    -0.308 N 
ATOM     24  C   UNL     1     -10.820   9.633  16.903  0.00  0.00    +0.244 C 
ATOM     38  H   UNL     1     -11.834  10.546  18.487  0.00  0.00    +0.149 HD
BRANCH  24  25
ATOM     25  C   UNL     1     -10.425  10.955  16.353  0.00  0.00    +0.037 A 
ATOM     28  C   UNL     1      -9.426  11.700  16.979  0.00  0.00    +0.016 A 
ATOM     29  C   UNL     1     -11.056  11.452  15.213  0.00  0.00    +0.016 A 
ATOM     30  C   UNL     1      -9.057  12.943  16.463  0.00  0.00    +0.046 A 
ATOM     31  C   UNL     1     -10.687  12.694  14.697  0.00  0.00    +0.046 A 
ATOM     34  C   UNL     1      -9.687  13.440  15.323  0.00  0.00    +0.120 A 
BRANCH  34   5
ATOM      5  O   UNL     1      -9.327  14.652  14.819  0.00  0.00    -0.495 OA
ATOM     37  C   UNL     1      -8.747  14.666  13.514  0.00  0.00    +0.277 C 
ENDBRANCH  34   5
ENDBRANCH  24  25
ENDBRANCH  16   6
BRANCH  12   1
ATOM      1  O   UNL     1     -16.238   6.918  18.759  0.00  0.00    -0.391 OA
ATOM     39  H   UNL     1     -16.672   7.762  18.548  0.00  0.00    +0.210 HD
ENDBRANCH  12   1
BRANCH  15  20
ATOM     20  C   UNL     1     -17.414   5.747  21.184  0.00  0.00    +0.077 C 
ATOM     22  C   UNL     1     -17.699   6.539  22.455  0.00  0.00    +0.017 C 
BRANCH  20  23
ATOM      2  O   UNL     1     -17.911   3.521  20.369  0.00  0.00    -0.276 OA
ATOM      7  N   UNL     1     -18.180   3.959  22.631  0.00  0.00    -0.314 N 
ATOM     23  C   UNL     1     -17.855   4.293  21.324  0.00  0.00    +0.216 C 
ATOM     40  H   UNL     1     -18.126   4.668  23.356  0.00  0.00    +0.149 HD
BRANCH   7  26
ATOM     26  C   UNL     1     -18.629   2.640  23.011  0.00  0.00    +0.119 C 
BRANCH  26  27
ATOM     27  C   UNL     1     -18.953   2.575  24.496  0.00  0.00    +0.103 C 
BRANCH  27   8
ATOM      4  O   UNL     1     -16.725   4.115  27.702  0.00  0.00    -0.377 OA
ATOM      8  N   UNL     1     -17.970   3.338  25.264  0.00  0.00    -0.297 NA
ATOM     32  C   UNL     1     -17.055   2.439  25.980  0.00  0.00    +0.112 C 
ATOM     33  C   UNL     1     -18.637   4.239  26.214  0.00  0.00    +0.112 C 
ATOM     35  C   UNL     1     -16.048   3.257  26.783  0.00  0.00    +0.175 C 
ATOM     36  C   UNL     1     -17.592   5.015  27.012  0.00  0.00    +0.175 C 
ENDBRANCH  27   8
ENDBRANCH  26  27
ENDBRANCH   7  26
ENDBRANCH  20  23
ENDBRANCH  15  20
TORSDOF 9
ENDMDL
MODEL 10
REMARK VINA RESULT:      -6.0      4.393     12.708
REMARK  Name = 45361373
REMARK  13 active torsions:
REMARK  status: ('A' for Active; 'I' for Inactive)
REMARK    1  A    between atoms: O_1  and  C_12
REMARK    2  A    between atoms: O_5  and  C_34
REMARK    3  A    between atoms: O_5  and  C_37
REMARK    4  A    between atoms: N_6  and  C_16
REMARK    5  A    between atoms: N_7  and  C_26
REMARK    6  A    between atoms: N_8  and  C_27
REMARK    7  A    between atoms: C_9  and  C_19
REMARK    8  A    between atoms: C_11  and  C_21
REMARK    9  A    between atoms: C_15  and  C_20
REMARK   10  A    between atoms: C_20  and  C_22
REMARK   11  A    between atoms: C_20  and  C_23
REMARK   12  A    between atoms: C_24  and  C_25
REMARK   13  A    between atoms: C_26  and  C_27
REMARK                            x       y       z     vdW  Elec       q    Type
REMARK                         _______ _______ _______ _____ _____    ______ ____
ROOT
ATOM      9  C   UNL     1      -3.350 -11.248  11.405  0.00  0.00    -0.027 C 
ATOM     10  C   UNL     1      -4.677 -10.977  12.188  0.00  0.00    +0.028 C 
ATOM     11  C   UNL     1      -5.666 -10.108  11.329  0.00  0.00    +0.012 C 
ATOM     12  C   UNL     1      -4.388 -10.441  13.620  0.00  0.00    +0.122 C 
ATOM     13  C   UNL     1      -2.449 -12.197  12.230  0.00  0.00    +0.007 C 
ATOM     14  C   UNL     1      -3.686 -11.957  10.073  0.00  0.00    +0.009 C 
ATOM     15  C   UNL     1      -3.404 -11.340  14.403  0.00  0.00    +0.029 C 
ATOM     16  C   UNL     1      -5.938 -10.796   9.961  0.00  0.00    +0.076 C 
ATOM     17  C   UNL     1      -2.131 -11.658  13.618  0.00  0.00    +0.007 C 
ATOM     18  C   UNL     1      -4.662 -11.173   9.208  0.00  0.00    +0.023 C 
ATOM     19  C   UNL     1      -2.561  -9.947  11.105  0.00  0.00    +0.011 C 
ATOM     21  C   UNL     1      -7.006  -9.828  12.029  0.00  0.00    +0.010 C 
ENDROOT
BRANCH  16   6
ATOM      3  O   UNL     1      -8.338 -11.582   8.598  0.00  0.00    -0.270 OA
ATOM      6  N   UNL     1      -6.753  -9.967   9.097  0.00  0.00    -0.308 N 
ATOM     24  C   UNL     1      -7.899 -10.441   8.482  0.00  0.00    +0.244 C 
ATOM     38  H   UNL     1      -6.387  -9.050   8.865  0.00  0.00    +0.149 HD
BRANCH  24  25
ATOM     25  C   UNL     1      -8.608  -9.474   7.606  0.00  0.00    +0.037 A 
ATOM     28  C   UNL     1      -8.554  -9.620   6.220  0.00  0.00    +0.016 A 
ATOM     29  C   UNL     1      -9.327  -8.420   8.169  0.00  0.00    +0.016 A 
ATOM     30  C   UNL     1      -9.219  -8.710   5.397  0.00  0.00    +0.046 A 
ATOM     31  C   UNL     1      -9.992  -7.511   7.347  0.00  0.00    +0.046 A 
ATOM     34  C   UNL     1      -9.937  -7.656   5.960  0.00  0.00    +0.120 A 
BRANCH  34   5
ATOM      5  O   UNL     1     -10.587  -6.769   5.157  0.00  0.00    -0.495 OA
ATOM     37  C   UNL     1     -10.477  -6.968   3.748  0.00  0.00    +0.277 C 
ENDBRANCH  34   5
ENDBRANCH  24  25
ENDBRANCH  16   6
BRANCH  12   1
ATOM      1  O   UNL     1      -5.602 -10.413  14.373  0.00  0.00    -0.391 OA
ATOM     39  H   UNL     1      -6.339 -10.269  13.754  0.00  0.00    +0.210 HD
ENDBRANCH  12   1
BRANCH  15  20
ATOM     20  C   UNL     1      -3.031 -10.729  15.759  0.00  0.00    +0.077 C 
ATOM     22  C   UNL     1      -1.516 -10.699  15.923  0.00  0.00    +0.017 C 
BRANCH  20  23
ATOM      2  O   UNL     1      -3.623 -11.178  18.065  0.00  0.00    -0.276 OA
ATOM      7  N   UNL     1      -4.379 -12.631  16.423  0.00  0.00    -0.314 N 
ATOM     23  C   UNL     1      -3.697 -11.515  16.884  0.00  0.00    +0.216 C 
ATOM     40  H   UNL     1      -4.371 -12.847  15.430  0.00  0.00    +0.149 HD
BRANCH   7  26
ATOM     26  C   UNL     1      -5.087 -13.533  17.301  0.00  0.00    +0.119 C 
BRANCH  26  27
ATOM     27  C   UNL     1      -6.472 -13.857  16.759  0.00  0.00    +0.103 C 
BRANCH  27   8
ATOM      4  O   UNL     1      -8.511 -10.790  18.772  0.00  0.00    -0.377 OA
ATOM      8  N   UNL     1      -7.493 -13.129  17.510  0.00  0.00    -0.297 NA
ATOM     32  C   UNL     1      -8.008 -11.996  16.728  0.00  0.00    +0.112 C 
ATOM     33  C   UNL     1      -6.958 -12.654  18.794  0.00  0.00    +0.112 C 
ATOM     35  C   UNL     1      -9.062 -11.246  17.537  0.00  0.00    +0.175 C 
ATOM     36  C   UNL     1      -8.039 -11.888  19.553  0.00  0.00    +0.175 C 
ENDBRANCH  27   8
ENDBRANCH  26  27
ENDBRANCH   7  26
ENDBRANCH  20  23
ENDBRANCH  15  20
TORSDOF 9
ENDMDL
