MODEL 1
REMARK VINA RESULT:      -7.6      0.000      0.000
REMARK  Name = 75536910
REMARK  5 active torsions:
REMARK  status: ('A' for Active; 'I' for Inactive)
REMARK    1  A    between atoms: O_2  and  C_5
REMARK    2  A    between atoms: O_2  and  C_13
REMARK    3  A    between atoms: N_3  and  C_7
REMARK    4  A    between atoms: C_7  and  C_10
REMARK    5  A    between atoms: C_14  and  C_17
REMARK                            x       y       z     vdW  Elec       q    Type
REMARK                         _______ _______ _______ _____ _____    ______ ____
ROOT
ATOM      1  O   UNL     1      10.995   7.987  22.544  0.00  0.00    -0.375 OA
ATOM      3  N   UNL     1      12.882   8.666  20.481  0.00  0.00    -0.292 NA
ATOM      4  C   UNL     1      12.135   9.922  20.547  0.00  0.00    +0.131 C 
ATOM      5  C   UNL     1      11.764  10.265  21.995  0.00  0.00    +0.213 C 
ATOM      6  C   UNL     1      12.046   7.464  20.403  0.00  0.00    +0.113 C 
ATOM      8  C   UNL     1      10.697   9.375  22.629  0.00  0.00    +0.205 C 
ATOM      9  C   UNL     1      10.769   7.465  21.240  0.00  0.00    +0.175 C 
ENDROOT
BRANCH   5   2
ATOM      2  O   UNL     1      11.301  11.616  22.023  0.00  0.00    -0.485 OA
BRANCH   2  13
ATOM     13  C   UNL     1      11.404  12.274  23.217  0.00  0.00    +0.121 A 
ATOM     18  C   UNL     1      10.335  13.033  23.690  0.00  0.00    +0.045 A 
ATOM     19  C   UNL     1      12.581  12.185  23.962  0.00  0.00    +0.045 A 
ATOM     20  C   UNL     1      10.441  13.705  24.908  0.00  0.00    +0.004 A 
ATOM     21  C   UNL     1      12.687  12.857  25.179  0.00  0.00    +0.004 A 
ATOM     24  C   UNL     1      11.617  13.617  25.653  0.00  0.00    +0.000 A 
ENDBRANCH   2  13
ENDBRANCH   5   2
BRANCH   3   7
ATOM      7  C   UNL     1      13.850   8.676  19.383  0.00  0.00    +0.119 C 
BRANCH   7  10
ATOM     10  C   UNL     1      15.161   8.056  19.785  0.00  0.00    -0.033 A 
ATOM     11  C   UNL     1      15.616   6.908  19.137  0.00  0.00    +0.005 A 
ATOM     12  C   UNL     1      15.921   8.630  20.804  0.00  0.00    +0.005 A 
ATOM     14  C   UNL     1      17.591   6.907  20.530  0.00  0.00    -0.018 A 
ATOM     15  C   UNL     1      16.832   6.332  19.510  0.00  0.00    +0.009 A 
ATOM     16  C   UNL     1      17.136   8.056  21.177  0.00  0.00    +0.009 A 
BRANCH  14  17
ATOM     17  C   UNL     1      18.852   6.311  20.916  0.00  0.00    -0.018 A 
ATOM     22  C   UNL     1      19.440   5.338  20.108  0.00  0.00    +0.008 A 
ATOM     23  C   UNL     1      19.480   6.710  22.096  0.00  0.00    +0.008 A 
ATOM     25  C   UNL     1      20.655   4.763  20.480  0.00  0.00    +0.001 A 
ATOM     26  C   UNL     1      20.695   6.135  22.468  0.00  0.00    +0.001 A 
ATOM     27  C   UNL     1      21.283   5.162  21.660  0.00  0.00    +0.000 A 
ENDBRANCH  14  17
ENDBRANCH   7  10
ENDBRANCH   3   7
TORSDOF 5
ENDMDL
MODEL 2
REMARK VINA RESULT:      -7.1      1.808      4.591
REMARK  Name = 75536910
REMARK  5 active torsions:
REMARK  status: ('A' for Active; 'I' for Inactive)
REMARK    1  A    between atoms: O_2  and  C_5
REMARK    2  A    between atoms: O_2  and  C_13
REMARK    3  A    between atoms: N_3  and  C_7
REMARK    4  A    between atoms: C_7  and  C_10
REMARK    5  A    between atoms: C_14  and  C_17
REMARK                            x       y       z     vdW  Elec       q    Type
REMARK                         _______ _______ _______ _____ _____    ______ ____
ROOT
ATOM      1  O   UNL     1      10.637  12.810  23.926  0.00  0.00    -0.375 OA
ATOM      3  N   UNL     1      13.001  12.595  22.299  0.00  0.00    -0.292 NA
ATOM      4  C   UNL     1      12.847  11.193  22.684  0.00  0.00    +0.131 C 
ATOM      5  C   UNL     1      11.366  10.791  22.710  0.00  0.00    +0.213 C 
ATOM      6  C   UNL     1      12.908  13.546  23.411  0.00  0.00    +0.113 C 
ATOM      8  C   UNL     1      10.542  11.393  23.846  0.00  0.00    +0.205 C 
ATOM      9  C   UNL     1      11.872  13.236  24.490  0.00  0.00    +0.175 C 
ENDROOT
BRANCH   5   2
ATOM      2  O   UNL     1      11.298   9.367  22.807  0.00  0.00    -0.485 OA
BRANCH   2  13
ATOM     13  C   UNL     1      11.727   8.659  21.719  0.00  0.00    +0.121 A 
ATOM     18  C   UNL     1      11.227   8.957  20.452  0.00  0.00    +0.045 A 
ATOM     19  C   UNL     1      12.665   7.638  21.877  0.00  0.00    +0.045 A 
ATOM     20  C   UNL     1      11.664   8.234  19.341  0.00  0.00    +0.004 A 
ATOM     21  C   UNL     1      13.102   6.915  20.768  0.00  0.00    +0.004 A 
ATOM     24  C   UNL     1      12.602   7.213  19.500  0.00  0.00    +0.000 A 
ENDBRANCH   2  13
ENDBRANCH   5   2
BRANCH   3   7
ATOM      7  C   UNL     1      14.244  12.812  21.557  0.00  0.00    +0.119 C 
BRANCH   7  10
ATOM     10  C   UNL     1      14.926  11.515  21.212  0.00  0.00    -0.033 A 
ATOM     11  C   UNL     1      14.601  10.851  20.029  0.00  0.00    +0.005 A 
ATOM     12  C   UNL     1      15.881  10.978  22.074  0.00  0.00    +0.005 A 
ATOM     14  C   UNL     1      16.187   9.111  20.573  0.00  0.00    -0.018 A 
ATOM     15  C   UNL     1      15.232   9.648  19.709  0.00  0.00    +0.009 A 
ATOM     16  C   UNL     1      16.512   9.775  21.755  0.00  0.00    +0.009 A 
BRANCH  14  17
ATOM     17  C   UNL     1      16.842   7.864  20.240  0.00  0.00    -0.018 A 
ATOM     22  C   UNL     1      16.286   7.017  19.282  0.00  0.00    +0.008 A 
ATOM     23  C   UNL     1      18.031   7.509  20.878  0.00  0.00    +0.008 A 
ATOM     25  C   UNL     1      16.917   5.815  18.962  0.00  0.00    +0.001 A 
ATOM     26  C   UNL     1      18.662   6.307  20.558  0.00  0.00    +0.001 A 
ATOM     27  C   UNL     1      18.105   5.461  19.600  0.00  0.00    +0.000 A 
ENDBRANCH  14  17
ENDBRANCH   7  10
ENDBRANCH   3   7
TORSDOF 5
ENDMDL
MODEL 3
REMARK VINA RESULT:      -7.0     26.998     29.882
REMARK  Name = 75536910
REMARK  5 active torsions:
REMARK  status: ('A' for Active; 'I' for Inactive)
REMARK    1  A    between atoms: O_2  and  C_5
REMARK    2  A    between atoms: O_2  and  C_13
REMARK    3  A    between atoms: N_3  and  C_7
REMARK    4  A    between atoms: C_7  and  C_10
REMARK    5  A    between atoms: C_14  and  C_17
REMARK                            x       y       z     vdW  Elec       q    Type
REMARK                         _______ _______ _______ _____ _____    ______ ____
ROOT
ATOM      1  O   UNL     1     -11.789 -11.282  19.324  0.00  0.00    -0.375 OA
ATOM      3  N   UNL     1     -10.112 -10.248  17.227  0.00  0.00    -0.292 NA
ATOM      4  C   UNL     1      -9.151 -10.239  18.330  0.00  0.00    +0.131 C 
ATOM      5  C   UNL     1      -9.332 -11.471  19.226  0.00  0.00    +0.213 C 
ATOM      6  C   UNL     1     -11.412  -9.651  17.548  0.00  0.00    +0.113 C 
ATOM      8  C   UNL     1     -10.599 -11.485  20.077  0.00  0.00    +0.205 C 
ATOM      9  C   UNL     1     -11.963  -9.922  18.946  0.00  0.00    +0.175 C 
ENDROOT
BRANCH   5   2
ATOM      2  O   UNL     1      -8.201 -11.553  20.095  0.00  0.00    -0.485 OA
BRANCH   2  13
ATOM     13  C   UNL     1      -7.014 -11.916  19.523  0.00  0.00    +0.121 A 
ATOM     18  C   UNL     1      -5.826 -11.318  19.941  0.00  0.00    +0.045 A 
ATOM     19  C   UNL     1      -6.992 -12.886  18.520  0.00  0.00    +0.045 A 
ATOM     20  C   UNL     1      -4.615 -11.688  19.356  0.00  0.00    +0.004 A 
ATOM     21  C   UNL     1      -5.782 -13.256  17.935  0.00  0.00    +0.004 A 
ATOM     24  C   UNL     1      -4.593 -12.658  18.353  0.00  0.00    +0.000 A 
ENDBRANCH   2  13
ENDBRANCH   5   2
BRANCH   3   7
ATOM      7  C   UNL     1      -9.555  -9.623  16.027  0.00  0.00    +0.119 C 
BRANCH   7  10
ATOM     10  C   UNL     1      -8.100  -9.964  15.839  0.00  0.00    -0.033 A 
ATOM     11  C   UNL     1      -7.125  -9.280  16.565  0.00  0.00    +0.005 A 
ATOM     12  C   UNL     1      -7.729 -10.963  14.940  0.00  0.00    +0.005 A 
ATOM     14  C   UNL     1      -5.406 -10.595  15.492  0.00  0.00    -0.018 A 
ATOM     15  C   UNL     1      -5.777  -9.595  16.391  0.00  0.00    +0.009 A 
ATOM     16  C   UNL     1      -6.381 -11.279  14.766  0.00  0.00    +0.009 A 
BRANCH  14  17
ATOM     17  C   UNL     1      -4.007 -10.922  15.312  0.00  0.00    -0.018 A 
ATOM     22  C   UNL     1      -3.620 -11.791  14.292  0.00  0.00    +0.008 A 
ATOM     23  C   UNL     1      -3.047 -10.368  16.159  0.00  0.00    +0.008 A 
ATOM     25  C   UNL     1      -2.272 -12.106  14.119  0.00  0.00    +0.001 A 
ATOM     26  C   UNL     1      -1.699 -10.683  15.985  0.00  0.00    +0.001 A 
ATOM     27  C   UNL     1      -1.312 -11.552  14.965  0.00  0.00    +0.000 A 
ENDBRANCH  14  17
ENDBRANCH   7  10
ENDBRANCH   3   7
TORSDOF 5
ENDMDL
MODEL 4
REMARK VINA RESULT:      -7.0     25.683     28.157
REMARK  Name = 75536910
REMARK  5 active torsions:
REMARK  status: ('A' for Active; 'I' for Inactive)
REMARK    1  A    between atoms: O_2  and  C_5
REMARK    2  A    between atoms: O_2  and  C_13
REMARK    3  A    between atoms: N_3  and  C_7
REMARK    4  A    between atoms: C_7  and  C_10
REMARK    5  A    between atoms: C_14  and  C_17
REMARK                            x       y       z     vdW  Elec       q    Type
REMARK                         _______ _______ _______ _____ _____    ______ ____
ROOT
ATOM      1  O   UNL     1     -11.219  12.627  16.937  0.00  0.00    -0.375 OA
ATOM      3  N   UNL     1     -11.011   9.925  17.903  0.00  0.00    -0.292 NA
ATOM      4  C   UNL     1     -11.091  10.631  19.181  0.00  0.00    +0.131 C 
ATOM      5  C   UNL     1     -12.076  11.805  19.099  0.00  0.00    +0.213 C 
ATOM      6  C   UNL     1     -10.043  10.487  16.956  0.00  0.00    +0.113 C 
ATOM      8  C   UNL     1     -11.616  12.991  18.254  0.00  0.00    +0.205 C 
ATOM      9  C   UNL     1      -9.938  12.010  16.911  0.00  0.00    +0.175 C 
ENDROOT
BRANCH   5   2
ATOM      2  O   UNL     1     -12.324  12.266  20.428  0.00  0.00    -0.485 OA
BRANCH   2  13
ATOM     13  C   UNL     1     -12.992  11.410  21.257  0.00  0.00    +0.121 A 
ATOM     18  C   UNL     1     -12.380  10.944  22.420  0.00  0.00    +0.045 A 
ATOM     19  C   UNL     1     -14.289  11.001  20.940  0.00  0.00    +0.045 A 
ATOM     20  C   UNL     1     -13.062  10.069  23.266  0.00  0.00    +0.004 A 
ATOM     21  C   UNL     1     -14.971  10.127  21.785  0.00  0.00    +0.004 A 
ATOM     24  C   UNL     1     -14.358   9.661  22.948  0.00  0.00    +0.000 A 
ENDBRANCH   2  13
ENDBRANCH   5   2
BRANCH   3   7
ATOM      7  C   UNL     1     -10.752   8.497  18.097  0.00  0.00    +0.119 C 
BRANCH   7  10
ATOM     10  C   UNL     1     -11.702   7.883  19.090  0.00  0.00    -0.033 A 
ATOM     11  C   UNL     1     -13.074   7.898  18.842  0.00  0.00    +0.005 A 
ATOM     12  C   UNL     1     -11.211   7.300  20.257  0.00  0.00    +0.005 A 
ATOM     14  C   UNL     1     -13.464   6.747  20.930  0.00  0.00    -0.018 A 
ATOM     15  C   UNL     1     -13.956   7.330  19.762  0.00  0.00    +0.009 A 
ATOM     16  C   UNL     1     -12.091   6.732  21.178  0.00  0.00    +0.009 A 
BRANCH  14  17
ATOM     17  C   UNL     1     -14.378   6.158  21.885  0.00  0.00    -0.018 A 
ATOM     22  C   UNL     1     -15.736   6.471  21.835  0.00  0.00    +0.008 A 
ATOM     23  C   UNL     1     -13.901   5.275  22.854  0.00  0.00    +0.008 A 
ATOM     25  C   UNL     1     -16.617   5.902  22.755  0.00  0.00    +0.001 A 
ATOM     26  C   UNL     1     -14.782   4.706  23.773  0.00  0.00    +0.001 A 
ATOM     27  C   UNL     1     -16.140   5.020  23.724  0.00  0.00    +0.000 A 
ENDBRANCH  14  17
ENDBRANCH   7  10
ENDBRANCH   3   7
TORSDOF 5
ENDMDL
MODEL 5
REMARK VINA RESULT:      -6.9     27.258     30.101
REMARK  Name = 75536910
REMARK  5 active torsions:
REMARK  status: ('A' for Active; 'I' for Inactive)
REMARK    1  A    between atoms: O_2  and  C_5
REMARK    2  A    between atoms: O_2  and  C_13
REMARK    3  A    between atoms: N_3  and  C_7
REMARK    4  A    between atoms: C_7  and  C_10
REMARK    5  A    between atoms: C_14  and  C_17
REMARK                            x       y       z     vdW  Elec       q    Type
REMARK                         _______ _______ _______ _____ _____    ______ ____
ROOT
ATOM      1  O   UNL     1      -4.351  -9.903  16.704  0.00  0.00    -0.375 OA
ATOM      3  N   UNL     1      -3.078 -10.584  14.215  0.00  0.00    -0.292 NA
ATOM      4  C   UNL     1      -4.384 -11.204  13.994  0.00  0.00    +0.131 C 
ATOM      5  C   UNL     1      -5.509 -10.333  14.569  0.00  0.00    +0.213 C 
ATOM      6  C   UNL     1      -2.467 -10.897  15.511  0.00  0.00    +0.113 C 
ATOM      8  C   UNL     1      -5.581 -10.275  16.093  0.00  0.00    +0.205 C 
ATOM      9  C   UNL     1      -3.409 -10.969  16.711  0.00  0.00    +0.175 C 
ENDROOT
BRANCH   5   2
ATOM      2  O   UNL     1      -6.751 -10.838  14.077  0.00  0.00    -0.485 OA
BRANCH   2  13
ATOM     13  C   UNL     1      -7.029 -10.598  12.760  0.00  0.00    +0.121 A 
ATOM     18  C   UNL     1      -6.944  -9.301  12.254  0.00  0.00    +0.045 A 
ATOM     19  C   UNL     1      -7.400 -11.651  11.922  0.00  0.00    +0.045 A 
ATOM     20  C   UNL     1      -7.229  -9.056  10.910  0.00  0.00    +0.004 A 
ATOM     21  C   UNL     1      -7.684 -11.407  10.579  0.00  0.00    +0.004 A 
ATOM     24  C   UNL     1      -7.599 -10.110  10.073  0.00  0.00    +0.000 A 
ENDBRANCH   2  13
ENDBRANCH   5   2
BRANCH   3   7
ATOM      7  C   UNL     1      -2.145 -10.900  13.132  0.00  0.00    +0.119 C 
BRANCH   7  10
ATOM     10  C   UNL     1      -2.828 -10.917  11.790  0.00  0.00    -0.033 A 
ATOM     11  C   UNL     1      -3.076  -9.720  11.119  0.00  0.00    +0.005 A 
ATOM     12  C   UNL     1      -3.213 -12.130  11.220  0.00  0.00    +0.005 A 
ATOM     14  C   UNL     1      -4.095 -10.950   9.306  0.00  0.00    -0.018 A 
ATOM     15  C   UNL     1      -3.710  -9.736   9.876  0.00  0.00    +0.009 A 
ATOM     16  C   UNL     1      -3.847 -12.147   9.977  0.00  0.00    +0.009 A 
BRANCH  14  17
ATOM     17  C   UNL     1      -4.752 -10.966   8.016  0.00  0.00    -0.018 A 
ATOM     22  C   UNL     1      -4.795 -12.144   7.270  0.00  0.00    +0.008 A 
ATOM     23  C   UNL     1      -5.344  -9.804   7.520  0.00  0.00    +0.008 A 
ATOM     25  C   UNL     1      -5.428 -12.160   6.028  0.00  0.00    +0.001 A 
ATOM     26  C   UNL     1      -5.977  -9.820   6.277  0.00  0.00    +0.001 A 
ATOM     27  C   UNL     1      -6.019 -10.998   5.531  0.00  0.00    +0.000 A 
ENDBRANCH  14  17
ENDBRANCH   7  10
ENDBRANCH   3   7
TORSDOF 5
ENDMDL
MODEL 6
REMARK VINA RESULT:      -6.8     19.767     21.906
REMARK  Name = 75536910
REMARK  5 active torsions:
REMARK  status: ('A' for Active; 'I' for Inactive)
REMARK    1  A    between atoms: O_2  and  C_5
REMARK    2  A    between atoms: O_2  and  C_13
REMARK    3  A    between atoms: N_3  and  C_7
REMARK    4  A    between atoms: C_7  and  C_10
REMARK    5  A    between atoms: C_14  and  C_17
REMARK                            x       y       z     vdW  Elec       q    Type
REMARK                         _______ _______ _______ _____ _____    ______ ____
ROOT
ATOM      1  O   UNL     1       9.927  -6.891  36.081  0.00  0.00    -0.375 OA
ATOM      3  N   UNL     1       7.902  -6.890  34.036  0.00  0.00    -0.292 NA
ATOM      4  C   UNL     1       8.689  -5.739  33.595  0.00  0.00    +0.131 C 
ATOM      5  C   UNL     1      10.189  -5.988  33.800  0.00  0.00    +0.213 C 
ATOM      6  C   UNL     1       7.565  -6.887  35.463  0.00  0.00    +0.113 C 
ATOM      8  C   UNL     1      10.661  -5.998  35.252  0.00  0.00    +0.205 C 
ATOM      9  C   UNL     1       8.643  -6.381  36.419  0.00  0.00    +0.175 C 
ENDROOT
BRANCH   5   2
ATOM      2  O   UNL     1      10.904  -4.970  33.098  0.00  0.00    -0.485 OA
BRANCH   2  13
ATOM     13  C   UNL     1      11.883  -5.391  32.241  0.00  0.00    +0.121 A 
ATOM     18  C   UNL     1      13.095  -4.706  32.177  0.00  0.00    +0.045 A 
ATOM     19  C   UNL     1      11.667  -6.506  31.430  0.00  0.00    +0.045 A 
ATOM     20  C   UNL     1      14.094  -5.134  31.301  0.00  0.00    +0.004 A 
ATOM     21  C   UNL     1      12.664  -6.934  30.555  0.00  0.00    +0.004 A 
ATOM     24  C   UNL     1      13.878  -6.249  30.490  0.00  0.00    +0.000 A 
ENDBRANCH   2  13
ENDBRANCH   5   2
BRANCH   3   7
ATOM      7  C   UNL     1       6.687  -7.047  33.234  0.00  0.00    +0.119 C 
BRANCH   7  10
ATOM     10  C   UNL     1       6.720  -8.302  32.404  0.00  0.00    -0.033 A 
ATOM     11  C   UNL     1       6.718  -9.550  33.028  0.00  0.00    +0.005 A 
ATOM     12  C   UNL     1       6.753  -8.218  31.013  0.00  0.00    +0.005 A 
ATOM     14  C   UNL     1       6.783 -10.629  30.868  0.00  0.00    -0.018 A 
ATOM     15  C   UNL     1       6.750 -10.714  32.260  0.00  0.00    +0.009 A 
ATOM     16  C   UNL     1       6.785  -9.382  30.244  0.00  0.00    +0.009 A 
BRANCH  14  17
ATOM     17  C   UNL     1       6.815 -11.837  30.070  0.00  0.00    -0.018 A 
ATOM     22  C   UNL     1       5.848 -12.824  30.260  0.00  0.00    +0.008 A 
ATOM     23  C   UNL     1       7.812 -12.013  29.111  0.00  0.00    +0.008 A 
ATOM     25  C   UNL     1       5.878 -13.987  29.492  0.00  0.00    +0.001 A 
ATOM     26  C   UNL     1       7.843 -13.177  28.342  0.00  0.00    +0.001 A 
ATOM     27  C   UNL     1       6.876 -14.163  28.533  0.00  0.00    +0.000 A 
ENDBRANCH  14  17
ENDBRANCH   7  10
ENDBRANCH   3   7
TORSDOF 5
ENDMDL
MODEL 7
REMARK VINA RESULT:      -6.8     27.358     29.876
REMARK  Name = 75536910
REMARK  5 active torsions:
REMARK  status: ('A' for Active; 'I' for Inactive)
REMARK    1  A    between atoms: O_2  and  C_5
REMARK    2  A    between atoms: O_2  and  C_13
REMARK    3  A    between atoms: N_3  and  C_7
REMARK    4  A    between atoms: C_7  and  C_10
REMARK    5  A    between atoms: C_14  and  C_17
REMARK                            x       y       z     vdW  Elec       q    Type
REMARK                         _______ _______ _______ _____ _____    ______ ____
ROOT
ATOM      1  O   UNL     1      -2.878 -13.224  12.572  0.00  0.00    -0.375 OA
ATOM      3  N   UNL     1      -3.006 -11.296  14.704  0.00  0.00    -0.292 NA
ATOM      4  C   UNL     1      -2.620 -10.412  13.604  0.00  0.00    +0.131 C 
ATOM      5  C   UNL     1      -3.328 -10.814  12.303  0.00  0.00    +0.213 C 
ATOM      6  C   UNL     1      -2.206 -12.520  14.811  0.00  0.00    +0.113 C 
ATOM      8  C   UNL     1      -2.853 -12.122  11.673  0.00  0.00    +0.205 C 
ATOM      9  C   UNL     1      -1.800 -13.188  13.499  0.00  0.00    +0.175 C 
ENDROOT
BRANCH   5   2
ATOM      2  O   UNL     1      -3.138  -9.761  11.356  0.00  0.00    -0.485 OA
BRANCH   2  13
ATOM     13  C   UNL     1      -4.198  -9.473  10.542  0.00  0.00    +0.121 A 
ATOM     18  C   UNL     1      -4.081  -9.628   9.162  0.00  0.00    +0.045 A 
ATOM     19  C   UNL     1      -5.398  -9.022  11.094  0.00  0.00    +0.045 A 
ATOM     20  C   UNL     1      -5.162  -9.333   8.331  0.00  0.00    +0.004 A 
ATOM     21  C   UNL     1      -6.480  -8.726  10.265  0.00  0.00    +0.004 A 
ATOM     24  C   UNL     1      -6.362  -8.882   8.883  0.00  0.00    +0.000 A 
ENDBRANCH   2  13
ENDBRANCH   5   2
BRANCH   3   7
ATOM      7  C   UNL     1      -3.011 -10.585  15.984  0.00  0.00    +0.119 C 
BRANCH   7  10
ATOM     10  C   UNL     1      -4.396 -10.485  16.565  0.00  0.00    -0.033 A 
ATOM     11  C   UNL     1      -4.661 -11.016  17.827  0.00  0.00    +0.005 A 
ATOM     12  C   UNL     1      -5.412  -9.862  15.843  0.00  0.00    +0.005 A 
ATOM     14  C   UNL     1      -6.962 -10.301  17.643  0.00  0.00    -0.018 A 
ATOM     15  C   UNL     1      -5.945 -10.925  18.367  0.00  0.00    +0.009 A 
ATOM     16  C   UNL     1      -6.696  -9.769  16.381  0.00  0.00    +0.009 A 
BRANCH  14  17
ATOM     17  C   UNL     1      -8.293 -10.205  18.203  0.00  0.00    -0.018 A 
ATOM     22  C   UNL     1      -9.240  -9.370  17.610  0.00  0.00    +0.008 A 
ATOM     23  C   UNL     1      -8.629 -10.948  19.334  0.00  0.00    +0.008 A 
ATOM     25  C   UNL     1     -10.523  -9.277  18.149  0.00  0.00    +0.001 A 
ATOM     26  C   UNL     1      -9.912 -10.856  19.873  0.00  0.00    +0.001 A 
ATOM     27  C   UNL     1     -10.859 -10.021  19.281  0.00  0.00    +0.000 A 
ENDBRANCH  14  17
ENDBRANCH   7  10
ENDBRANCH   3   7
TORSDOF 5
ENDMDL
MODEL 8
REMARK VINA RESULT:      -6.7     25.985     28.504
REMARK  Name = 75536910
REMARK  5 active torsions:
REMARK  status: ('A' for Active; 'I' for Inactive)
REMARK    1  A    between atoms: O_2  and  C_5
REMARK    2  A    between atoms: O_2  and  C_13
REMARK    3  A    between atoms: N_3  and  C_7
REMARK    4  A    between atoms: C_7  and  C_10
REMARK    5  A    between atoms: C_14  and  C_17
REMARK                            x       y       z     vdW  Elec       q    Type
REMARK                         _______ _______ _______ _____ _____    ______ ____
ROOT
ATOM      1  O   UNL     1     -16.339   5.896  23.550  0.00  0.00    -0.375 OA
ATOM      3  N   UNL     1     -13.866   6.041  22.084  0.00  0.00    -0.292 NA
ATOM      4  C   UNL     1     -14.804   6.350  21.005  0.00  0.00    +0.131 C 
ATOM      5  C   UNL     1     -15.954   7.231  21.512  0.00  0.00    +0.213 C 
ATOM      6  C   UNL     1     -14.226   4.867  22.885  0.00  0.00    +0.113 C 
ATOM      8  C   UNL     1     -16.951   6.541  22.440  0.00  0.00    +0.205 C 
ATOM      9  C   UNL     1     -15.711   4.673  23.184  0.00  0.00    +0.175 C 
ENDROOT
BRANCH   5   2
ATOM      2  O   UNL     1     -16.662   7.728  20.375  0.00  0.00    -0.485 OA
BRANCH   2  13
ATOM     13  C   UNL     1     -15.932   8.436  19.462  0.00  0.00    +0.121 A 
ATOM     18  C   UNL     1     -15.568   9.755  19.730  0.00  0.00    +0.045 A 
ATOM     19  C   UNL     1     -15.551   7.838  18.259  0.00  0.00    +0.045 A 
ATOM     20  C   UNL     1     -14.824  10.477  18.797  0.00  0.00    +0.004 A 
ATOM     21  C   UNL     1     -14.808   8.560  17.326  0.00  0.00    +0.004 A 
ATOM     24  C   UNL     1     -14.443   9.879  17.595  0.00  0.00    +0.000 A 
ENDBRANCH   2  13
ENDBRANCH   5   2
BRANCH   3   7
ATOM      7  C   UNL     1     -12.498   5.906  21.582  0.00  0.00    +0.119 C 
BRANCH   7  10
ATOM     10  C   UNL     1     -12.071   7.108  20.783  0.00  0.00    -0.033 A 
ATOM     11  C   UNL     1     -11.547   6.943  19.502  0.00  0.00    +0.005 A 
ATOM     12  C   UNL     1     -12.200   8.387  21.325  0.00  0.00    +0.005 A 
ATOM     14  C   UNL     1     -11.279   9.336  19.304  0.00  0.00    -0.018 A 
ATOM     15  C   UNL     1     -11.150   8.057  18.761  0.00  0.00    +0.009 A 
ATOM     16  C   UNL     1     -11.804   9.501  20.586  0.00  0.00    +0.009 A 
BRANCH  14  17
ATOM     17  C   UNL     1     -10.869  10.492  18.536  0.00  0.00    -0.018 A 
ATOM     22  C   UNL     1     -11.256  11.770  18.938  0.00  0.00    +0.008 A 
ATOM     23  C   UNL     1     -10.084  10.328  17.394  0.00  0.00    +0.008 A 
ATOM     25  C   UNL     1     -10.860  12.884  18.197  0.00  0.00    +0.001 A 
ATOM     26  C   UNL     1      -9.688  11.442  16.654  0.00  0.00    +0.001 A 
ATOM     27  C   UNL     1     -10.076  12.720  17.056  0.00  0.00    +0.000 A 
ENDBRANCH  14  17
ENDBRANCH   7  10
ENDBRANCH   3   7
TORSDOF 5
ENDMDL
MODEL 9
REMARK VINA RESULT:      -6.6     26.929     30.226
REMARK  Name = 75536910
REMARK  5 active torsions:
REMARK  status: ('A' for Active; 'I' for Inactive)
REMARK    1  A    between atoms: O_2  and  C_5
REMARK    2  A    between atoms: O_2  and  C_13
REMARK    3  A    between atoms: N_3  and  C_7
REMARK    4  A    between atoms: C_7  and  C_10
REMARK    5  A    between atoms: C_14  and  C_17
REMARK                            x       y       z     vdW  Elec       q    Type
REMARK                         _______ _______ _______ _____ _____    ______ ____
ROOT
ATOM      1  O   UNL     1     -10.720   9.492  32.950  0.00  0.00    -0.375 OA
ATOM      3  N   UNL     1     -13.411   8.485  32.789  0.00  0.00    -0.292 NA
ATOM      4  C   UNL     1     -13.566   9.712  32.008  0.00  0.00    +0.131 C 
ATOM      5  C   UNL     1     -12.327   9.972  31.141  0.00  0.00    +0.213 C 
ATOM      6  C   UNL     1     -12.724   8.663  34.072  0.00  0.00    +0.113 C 
ATOM      8  C   UNL     1     -11.069  10.387  31.901  0.00  0.00    +0.205 C 
ATOM      9  C   UNL     1     -11.555   9.646  34.091  0.00  0.00    +0.175 C 
ENDROOT
BRANCH   5   2
ATOM      2  O   UNL     1     -12.652  11.002  30.207  0.00  0.00    -0.485 OA
BRANCH   2  13
ATOM     13  C   UNL     1     -12.489  10.701  28.883  0.00  0.00    +0.121 A 
ATOM     18  C   UNL     1     -13.587  10.714  28.025  0.00  0.00    +0.045 A 
ATOM     19  C   UNL     1     -11.223  10.380  28.393  0.00  0.00    +0.045 A 
ATOM     20  C   UNL     1     -13.421  10.406  26.674  0.00  0.00    +0.004 A 
ATOM     21  C   UNL     1     -11.056  10.072  27.043  0.00  0.00    +0.004 A 
ATOM     24  C   UNL     1     -12.155  10.085  26.183  0.00  0.00    +0.000 A 
ENDBRANCH   2  13
ENDBRANCH   5   2
BRANCH   3   7
ATOM      7  C   UNL     1     -14.697   7.817  32.997  0.00  0.00    +0.119 C 
BRANCH   7  10
ATOM     10  C   UNL     1     -14.728   6.451  32.365  0.00  0.00    -0.033 A 
ATOM     11  C   UNL     1     -15.696   6.149  31.406  0.00  0.00    +0.005 A 
ATOM     12  C   UNL     1     -13.791   5.488  32.738  0.00  0.00    +0.005 A 
ATOM     14  C   UNL     1     -14.788   3.920  31.195  0.00  0.00    -0.018 A 
ATOM     15  C   UNL     1     -15.726   4.883  30.821  0.00  0.00    +0.009 A 
ATOM     16  C   UNL     1     -13.821   4.222  32.153  0.00  0.00    +0.009 A 
BRANCH  14  17
ATOM     17  C   UNL     1     -14.819   2.607  30.587  0.00  0.00    -0.018 A 
ATOM     22  C   UNL     1     -13.781   1.706  30.820  0.00  0.00    +0.008 A 
ATOM     23  C   UNL     1     -15.888   2.242  29.768  0.00  0.00    +0.008 A 
ATOM     25  C   UNL     1     -13.810   0.440  30.235  0.00  0.00    +0.001 A 
ATOM     26  C   UNL     1     -15.918   0.976  29.183  0.00  0.00    +0.001 A 
ATOM     27  C   UNL     1     -14.880   0.075  29.416  0.00  0.00    +0.000 A 
ENDBRANCH  14  17
ENDBRANCH   7  10
ENDBRANCH   3   7
TORSDOF 5
ENDMDL
MODEL 10
REMARK VINA RESULT:      -6.5     12.627     16.092
REMARK  Name = 75536910
REMARK  5 active torsions:
REMARK  status: ('A' for Active; 'I' for Inactive)
REMARK    1  A    between atoms: O_2  and  C_5
REMARK    2  A    between atoms: O_2  and  C_13
REMARK    3  A    between atoms: N_3  and  C_7
REMARK    4  A    between atoms: C_7  and  C_10
REMARK    5  A    between atoms: C_14  and  C_17
REMARK                            x       y       z     vdW  Elec       q    Type
REMARK                         _______ _______ _______ _____ _____    ______ ____
ROOT
ATOM      1  O   UNL     1      21.924  -4.065  26.741  0.00  0.00    -0.375 OA
ATOM      3  N   UNL     1      20.051  -2.490  28.256  0.00  0.00    -0.292 NA
ATOM      4  C   UNL     1      20.002  -1.766  26.986  0.00  0.00    +0.131 C 
ATOM      5  C   UNL     1      20.073  -2.734  25.798  0.00  0.00    +0.213 C 
ATOM      6  C   UNL     1      21.404  -2.771  28.745  0.00  0.00    +0.113 C 
ATOM      8  C   UNL     1      21.425  -3.410  25.581  0.00  0.00    +0.205 C 
ATOM      9  C   UNL     1      22.446  -3.148  27.695  0.00  0.00    +0.175 C 
ENDROOT
BRANCH   5   2
ATOM      2  O   UNL     1      19.736  -2.006  24.616  0.00  0.00    -0.485 OA
BRANCH   2  13
ATOM     13  C   UNL     1      18.503  -2.250  24.079  0.00  0.00    +0.121 A 
ATOM     18  C   UNL     1      17.961  -3.533  24.131  0.00  0.00    +0.045 A 
ATOM     19  C   UNL     1      17.788  -1.213  23.477  0.00  0.00    +0.045 A 
ATOM     20  C   UNL     1      16.702  -3.782  23.581  0.00  0.00    +0.004 A 
ATOM     21  C   UNL     1      16.530  -1.462  22.928  0.00  0.00    +0.004 A 
ATOM     24  C   UNL     1      15.987  -2.746  22.980  0.00  0.00    +0.000 A 
ENDBRANCH   2  13
ENDBRANCH   5   2
BRANCH   3   7
ATOM      7  C   UNL     1      19.274  -1.807  29.291  0.00  0.00    +0.119 C 
BRANCH   7  10
ATOM     10  C   UNL     1      18.066  -2.605  29.705  0.00  0.00    -0.033 A 
ATOM     11  C   UNL     1      17.123  -2.044  30.567  0.00  0.00    +0.005 A 
ATOM     12  C   UNL     1      17.890  -3.903  29.227  0.00  0.00    +0.005 A 
ATOM     14  C   UNL     1      15.828  -4.082  30.473  0.00  0.00    -0.018 A 
ATOM     15  C   UNL     1      16.004  -2.783  30.951  0.00  0.00    +0.009 A 
ATOM     16  C   UNL     1      16.771  -4.642  29.611  0.00  0.00    +0.009 A 
BRANCH  14  17
ATOM     17  C   UNL     1      14.666  -4.848  30.871  0.00  0.00    -0.018 A 
ATOM     22  C   UNL     1      14.279  -5.963  30.128  0.00  0.00    +0.008 A 
ATOM     23  C   UNL     1      13.935  -4.471  31.997  0.00  0.00    +0.008 A 
ATOM     25  C   UNL     1      13.159  -6.701  30.512  0.00  0.00    +0.001 A 
ATOM     26  C   UNL     1      12.816  -5.210  32.381  0.00  0.00    +0.001 A 
ATOM     27  C   UNL     1      12.428  -6.325  31.639  0.00  0.00    +0.000 A 
ENDBRANCH  14  17
ENDBRANCH   7  10
ENDBRANCH   3   7
TORSDOF 5
ENDMDL
