MODEL 1
REMARK VINA RESULT:      -6.8      0.000      0.000
REMARK  Name = 11913351
REMARK  6 active torsions:
REMARK  status: ('A' for Active; 'I' for Inactive)
REMARK    1  A    between atoms: O_5  and  C_18
REMARK    2  A    between atoms: O_5  and  C_23
REMARK    3  A    between atoms: N_6  and  C_13
REMARK    4  A    between atoms: N_7  and  C_12
REMARK    5  A    between atoms: C_16  and  C_18
REMARK    6  A    between atoms: C_19  and  C_22
REMARK                            x       y       z     vdW  Elec       q    Type
REMARK                         _______ _______ _______ _____ _____    ______ ____
ROOT
ATOM      7  N   UNL     1      -3.211 -10.691  12.313  0.00  0.00    -0.306 N 
ATOM      8  N   UNL     1      -4.011 -10.554  14.515  0.00  0.00    -0.214 NA
ATOM      9  N   UNL     1      -1.652 -10.767  14.068  0.00  0.00    -0.223 NA
ATOM     17  C   UNL     1      -2.950 -10.670  13.673  0.00  0.00    +0.216 A 
ATOM     19  C   UNL     1      -3.721 -10.536  15.833  0.00  0.00    +0.076 A 
ATOM     20  C   UNL     1      -1.435 -10.744  15.398  0.00  0.00    +0.116 A 
ATOM     21  C   UNL     1      -2.440 -10.629  16.338  0.00  0.00    +0.048 A 
ATOM     29  H   UNL     1      -2.419 -10.831  11.698  0.00  0.00    +0.149 HD
ENDROOT
BRANCH   7  12
ATOM      2  O   UNL     1      -4.411  -8.941  10.053  0.00  0.00    -0.370 OA
ATOM      3  O   UNL     1      -5.939 -11.639  10.077  0.00  0.00    -0.370 OA
ATOM     10  C   UNL     1      -4.584 -11.286  10.409  0.00  0.00    +0.171 C 
ATOM     11  C   UNL     1      -4.154 -10.213   9.430  0.00  0.00    +0.171 C 
ATOM     12  C   UNL     1      -4.540 -10.599  11.753  0.00  0.00    +0.130 C 
ATOM     13  C   UNL     1      -5.066 -10.408   8.239  0.00  0.00    +0.130 C 
ATOM     14  C   UNL     1      -4.862  -9.157  11.399  0.00  0.00    +0.185 C 
ATOM     15  C   UNL     1      -6.337 -10.920   8.900  0.00  0.00    +0.185 C 
BRANCH  13   6
ATOM      4  O   UNL     1      -5.569 -10.713   5.389  0.00  0.00    -0.273 OA
ATOM      6  N   UNL     1      -4.529 -11.431   7.344  0.00  0.00    -0.306 N 
ATOM     16  C   UNL     1      -4.832 -11.491   5.990  0.00  0.00    +0.239 C 
ATOM     30  H   UNL     1      -3.865 -12.097   7.727  0.00  0.00    +0.149 HD
BRANCH  16  18
ATOM     18  C   UNL     1      -4.136 -12.651   5.310  0.00  0.00    +0.255 C 
BRANCH  18   5
ATOM      5  O   UNL     1      -2.990 -12.206   4.617  0.00  0.00    -0.374 OA
ATOM     23  C   UNL     1      -3.039 -12.550   3.234  0.00  0.00    +0.194 C 
ENDBRANCH  18   5
ENDBRANCH  16  18
ENDBRANCH  13   6
ENDBRANCH   7  12
BRANCH  19  22
ATOM      1  F   UNL     1      -8.159  -8.870  16.757  0.00  0.00    -0.205 F 
ATOM     22  C   UNL     1      -4.861 -10.412  16.710  0.00  0.00    +0.003 A 
ATOM     24  C   UNL     1      -5.983  -9.688  16.303  0.00  0.00    +0.048 A 
ATOM     25  C   UNL     1      -4.846 -11.018  17.968  0.00  0.00    +0.010 A 
ATOM     26  C   UNL     1      -7.085  -9.568  17.150  0.00  0.00    +0.124 A 
ATOM     27  C   UNL     1      -5.948 -10.898  18.815  0.00  0.00    +0.003 A 
ATOM     28  C   UNL     1      -7.067 -10.174  18.406  0.00  0.00    +0.038 A 
ENDBRANCH  19  22
TORSDOF 5
ENDMDL
MODEL 2
REMARK VINA RESULT:      -6.7     27.998     31.160
REMARK  Name = 11913351
REMARK  6 active torsions:
REMARK  status: ('A' for Active; 'I' for Inactive)
REMARK    1  A    between atoms: O_5  and  C_18
REMARK    2  A    between atoms: O_5  and  C_23
REMARK    3  A    between atoms: N_6  and  C_13
REMARK    4  A    between atoms: N_7  and  C_12
REMARK    5  A    between atoms: C_16  and  C_18
REMARK    6  A    between atoms: C_19  and  C_22
REMARK                            x       y       z     vdW  Elec       q    Type
REMARK                         _______ _______ _______ _____ _____    ______ ____
ROOT
ATOM      7  N   UNL     1      10.716  10.516  23.259  0.00  0.00    -0.306 N 
ATOM      8  N   UNL     1      11.722   9.908  21.228  0.00  0.00    -0.214 NA
ATOM      9  N   UNL     1      10.428   8.316  22.493  0.00  0.00    -0.223 NA
ATOM     17  C   UNL     1      10.963   9.551  22.298  0.00  0.00    +0.216 A 
ATOM     19  C   UNL     1      11.943   8.944  20.311  0.00  0.00    +0.076 A 
ATOM     20  C   UNL     1      10.689   7.401  21.538  0.00  0.00    +0.116 A 
ATOM     21  C   UNL     1      11.448   7.659  20.414  0.00  0.00    +0.048 A 
ATOM     29  H   UNL     1      10.193  10.225  24.076  0.00  0.00    +0.149 HD
ENDROOT
BRANCH   7  12
ATOM      2  O   UNL     1      10.290  13.015  25.046  0.00  0.00    -0.370 OA
ATOM      3  O   UNL     1      13.141  13.187  23.838  0.00  0.00    -0.370 OA
ATOM     10  C   UNL     1      12.308  12.074  24.211  0.00  0.00    +0.171 C 
ATOM     11  C   UNL     1      11.559  12.481  25.464  0.00  0.00    +0.171 C 
ATOM     12  C   UNL     1      11.222  11.869  23.182  0.00  0.00    +0.130 C 
ATOM     13  C   UNL     1      12.414  13.573  26.070  0.00  0.00    +0.130 C 
ATOM     14  C   UNL     1      10.155  12.855  23.626  0.00  0.00    +0.185 C 
ATOM     15  C   UNL     1      13.022  14.216  24.832  0.00  0.00    +0.185 C 
BRANCH  13   6
ATOM      4  O   UNL     1      13.746  14.793  28.350  0.00  0.00    -0.273 OA
ATOM      6  N   UNL     1      13.472  12.997  26.896  0.00  0.00    -0.306 N 
ATOM     16  C   UNL     1      14.047  13.665  27.970  0.00  0.00    +0.239 C 
ATOM     30  H   UNL     1      13.762  12.043  26.702  0.00  0.00    +0.149 HD
BRANCH  16  18
ATOM     18  C   UNL     1      15.114  12.830  28.645  0.00  0.00    +0.255 C 
BRANCH  18   5
ATOM      5  O   UNL     1      14.755  11.464  28.638  0.00  0.00    -0.374 OA
ATOM     23  C   UNL     1      15.835  10.630  29.050  0.00  0.00    +0.194 C 
ENDBRANCH  18   5
ENDBRANCH  16  18
ENDBRANCH  13   6
ENDBRANCH   7  12
BRANCH  19  22
ATOM      1  F   UNL     1      14.335   7.867  16.256  0.00  0.00    -0.205 F 
ATOM     22  C   UNL     1      12.752   9.343  19.184  0.00  0.00    +0.003 A 
ATOM     24  C   UNL     1      13.161   8.394  18.244  0.00  0.00    +0.048 A 
ATOM     25  C   UNL     1      13.127  10.679  19.029  0.00  0.00    +0.010 A 
ATOM     26  C   UNL     1      13.942   8.780  17.155  0.00  0.00    +0.124 A 
ATOM     27  C   UNL     1      13.908  11.064  17.939  0.00  0.00    +0.003 A 
ATOM     28  C   UNL     1      14.316  10.115  17.002  0.00  0.00    +0.038 A 
ENDBRANCH  19  22
TORSDOF 5
ENDMDL
MODEL 3
REMARK VINA RESULT:      -6.7     27.995     31.153
REMARK  Name = 11913351
REMARK  6 active torsions:
REMARK  status: ('A' for Active; 'I' for Inactive)
REMARK    1  A    between atoms: O_5  and  C_18
REMARK    2  A    between atoms: O_5  and  C_23
REMARK    3  A    between atoms: N_6  and  C_13
REMARK    4  A    between atoms: N_7  and  C_12
REMARK    5  A    between atoms: C_16  and  C_18
REMARK    6  A    between atoms: C_19  and  C_22
REMARK                            x       y       z     vdW  Elec       q    Type
REMARK                         _______ _______ _______ _____ _____    ______ ____
ROOT
ATOM      7  N   UNL     1      10.856  10.681  22.589  0.00  0.00    -0.306 N 
ATOM      8  N   UNL     1      12.556   9.240  21.853  0.00  0.00    -0.214 NA
ATOM      9  N   UNL     1      10.356   8.399  22.364  0.00  0.00    -0.223 NA
ATOM     17  C   UNL     1      11.269   9.401  22.258  0.00  0.00    +0.216 A 
ATOM     19  C   UNL     1      12.924   7.980  21.539  0.00  0.00    +0.076 A 
ATOM     20  C   UNL     1      10.791   7.165  22.035  0.00  0.00    +0.116 A 
ATOM     21  C   UNL     1      12.077   6.893  21.612  0.00  0.00    +0.048 A 
ATOM     29  H   UNL     1       9.911  10.781  22.939  0.00  0.00    +0.149 HD
ENDROOT
BRANCH   7  12
ATOM      2  O   UNL     1      10.741  13.453  23.973  0.00  0.00    -0.370 OA
ATOM      3  O   UNL     1      13.726  12.734  23.537  0.00  0.00    -0.370 OA
ATOM     10  C   UNL     1      12.557  11.930  23.779  0.00  0.00    +0.171 C 
ATOM     11  C   UNL     1      11.685  12.697  24.753  0.00  0.00    +0.171 C 
ATOM     12  C   UNL     1      11.719  11.840  22.526  0.00  0.00    +0.130 C 
ATOM     13  C   UNL     1      12.647  13.627  25.460  0.00  0.00    +0.130 C 
ATOM     14  C   UNL     1      10.893  13.113  22.587  0.00  0.00    +0.185 C 
ATOM     15  C   UNL     1      13.672  13.901  24.370  0.00  0.00    +0.185 C 
BRANCH  13   6
ATOM      4  O   UNL     1      14.266  14.813  27.566  0.00  0.00    -0.273 OA
ATOM      6  N   UNL     1      13.289  12.945  26.581  0.00  0.00    -0.306 N 
ATOM     16  C   UNL     1      14.046  13.605  27.540  0.00  0.00    +0.239 C 
ATOM     30  H   UNL     1      13.129  11.947  26.685  0.00  0.00    +0.149 HD
BRANCH  16  18
ATOM     18  C   UNL     1      14.588  12.650  28.582  0.00  0.00    +0.255 C 
BRANCH  18   5
ATOM      5  O   UNL     1      14.859  11.389  28.008  0.00  0.00    -0.374 OA
ATOM     23  C   UNL     1      15.912  10.711  28.690  0.00  0.00    +0.194 C 
ENDBRANCH  18   5
ENDBRANCH  16  18
ENDBRANCH  13   6
ENDBRANCH   7  12
BRANCH  19  22
ATOM      1  F   UNL     1      16.254   5.884  18.738  0.00  0.00    -0.205 F 
ATOM     22  C   UNL     1      14.294   7.831  21.111  0.00  0.00    +0.003 A 
ATOM     24  C   UNL     1      14.620   6.913  20.111  0.00  0.00    +0.048 A 
ATOM     25  C   UNL     1      15.299   8.605  21.695  0.00  0.00    +0.010 A 
ATOM     26  C   UNL     1      15.944   6.768  19.697  0.00  0.00    +0.124 A 
ATOM     27  C   UNL     1      16.624   8.460  21.281  0.00  0.00    +0.003 A 
ATOM     28  C   UNL     1      16.946   7.541  20.282  0.00  0.00    +0.038 A 
ENDBRANCH  19  22
TORSDOF 5
ENDMDL
MODEL 4
REMARK VINA RESULT:      -6.3      4.533      8.621
REMARK  Name = 11913351
REMARK  6 active torsions:
REMARK  status: ('A' for Active; 'I' for Inactive)
REMARK    1  A    between atoms: O_5  and  C_18
REMARK    2  A    between atoms: O_5  and  C_23
REMARK    3  A    between atoms: N_6  and  C_13
REMARK    4  A    between atoms: N_7  and  C_12
REMARK    5  A    between atoms: C_16  and  C_18
REMARK    6  A    between atoms: C_19  and  C_22
REMARK                            x       y       z     vdW  Elec       q    Type
REMARK                         _______ _______ _______ _____ _____    ______ ____
ROOT
ATOM      7  N   UNL     1      -3.698 -11.697  16.790  0.00  0.00    -0.306 N 
ATOM      8  N   UNL     1      -3.358 -11.285  14.505  0.00  0.00    -0.214 NA
ATOM      9  N   UNL     1      -1.796 -10.476  16.153  0.00  0.00    -0.223 NA
ATOM     17  C   UNL     1      -2.928 -11.136  15.786  0.00  0.00    +0.216 A 
ATOM     19  C   UNL     1      -2.583 -10.726  13.552  0.00  0.00    +0.076 A 
ATOM     20  C   UNL     1      -1.071  -9.942  15.150  0.00  0.00    +0.116 A 
ATOM     21  C   UNL     1      -1.418 -10.036  13.817  0.00  0.00    +0.048 A 
ATOM     29  H   UNL     1      -3.396 -11.535  17.743  0.00  0.00    +0.149 HD
ENDROOT
BRANCH   7  12
ATOM      2  O   UNL     1      -6.237 -12.154  18.509  0.00  0.00    -0.370 OA
ATOM      3  O   UNL     1      -7.100 -12.129  15.531  0.00  0.00    -0.370 OA
ATOM     10  C   UNL     1      -6.046 -11.457  16.244  0.00  0.00    +0.171 C 
ATOM     11  C   UNL     1      -6.596 -11.092  17.607  0.00  0.00    +0.171 C 
ATOM     12  C   UNL     1      -4.924 -12.423  16.545  0.00  0.00    +0.130 C 
ATOM     13  C   UNL     1      -8.095 -11.057  17.406  0.00  0.00    +0.130 C 
ATOM     14  C   UNL     1      -5.400 -13.096  17.822  0.00  0.00    +0.185 C 
ATOM     15  C   UNL     1      -8.290 -12.117  16.333  0.00  0.00    +0.185 C 
BRANCH  13   6
ATOM      4  O   UNL     1     -10.342  -9.439  18.300  0.00  0.00    -0.273 OA
ATOM      6  N   UNL     1      -8.514  -9.754  16.895  0.00  0.00    -0.306 N 
ATOM     16  C   UNL     1      -9.609  -9.058  17.391  0.00  0.00    +0.239 C 
ATOM     30  H   UNL     1      -7.944  -9.321  16.174  0.00  0.00    +0.149 HD
BRANCH  16  18
ATOM     18  C   UNL     1      -9.807  -7.739  16.675  0.00  0.00    +0.255 C 
BRANCH  18   5
ATOM      5  O   UNL     1     -11.003  -7.119  17.098  0.00  0.00    -0.374 OA
ATOM     23  C   UNL     1     -11.974  -7.075  16.056  0.00  0.00    +0.194 C 
ENDBRANCH  18   5
ENDBRANCH  16  18
ENDBRANCH  13   6
ENDBRANCH   7  12
BRANCH  19  22
ATOM      1  F   UNL     1      -3.571  -8.922   9.182  0.00  0.00    -0.205 F 
ATOM     22  C   UNL     1      -3.058 -10.895  12.199  0.00  0.00    +0.003 A 
ATOM     24  C   UNL     1      -3.086  -9.806  11.325  0.00  0.00    +0.048 A 
ATOM     25  C   UNL     1      -3.490 -12.148  11.759  0.00  0.00    +0.010 A 
ATOM     26  C   UNL     1      -3.544  -9.969  10.018  0.00  0.00    +0.124 A 
ATOM     27  C   UNL     1      -3.949 -12.311  10.452  0.00  0.00    +0.003 A 
ATOM     28  C   UNL     1      -3.975 -11.221   9.581  0.00  0.00    +0.038 A 
ENDBRANCH  19  22
TORSDOF 5
ENDMDL
MODEL 5
REMARK VINA RESULT:      -6.2     23.698     25.294
REMARK  Name = 11913351
REMARK  6 active torsions:
REMARK  status: ('A' for Active; 'I' for Inactive)
REMARK    1  A    between atoms: O_5  and  C_18
REMARK    2  A    between atoms: O_5  and  C_23
REMARK    3  A    between atoms: N_6  and  C_13
REMARK    4  A    between atoms: N_7  and  C_12
REMARK    5  A    between atoms: C_16  and  C_18
REMARK    6  A    between atoms: C_19  and  C_22
REMARK                            x       y       z     vdW  Elec       q    Type
REMARK                         _______ _______ _______ _____ _____    ______ ____
ROOT
ATOM      7  N   UNL     1      11.134   6.155   1.837  0.00  0.00    -0.306 N 
ATOM      8  N   UNL     1      10.172   6.371   3.966  0.00  0.00    -0.214 NA
ATOM      9  N   UNL     1       9.271   7.564   2.075  0.00  0.00    -0.223 NA
ATOM     17  C   UNL     1      10.163   6.714   2.651  0.00  0.00    +0.216 A 
ATOM     19  C   UNL     1       9.212   6.934   4.730  0.00  0.00    +0.076 A 
ATOM     20  C   UNL     1       8.340   8.090   2.897  0.00  0.00    +0.116 A 
ATOM     21  C   UNL     1       8.261   7.809   4.246  0.00  0.00    +0.048 A 
ATOM     29  H   UNL     1      11.150   6.457   0.870  0.00  0.00    +0.149 HD
ENDROOT
BRANCH   7  12
ATOM      2  O   UNL     1      12.107   3.396   0.810  0.00  0.00    -0.370 OA
ATOM      3  O   UNL     1      14.521   4.819   2.138  0.00  0.00    -0.370 OA
ATOM     10  C   UNL     1      13.369   5.313   1.431  0.00  0.00    +0.171 C 
ATOM     11  C   UNL     1      13.080   4.332   0.313  0.00  0.00    +0.171 C 
ATOM     12  C   UNL     1      12.145   5.238   2.313  0.00  0.00    +0.130 C 
ATOM     13  C   UNL     1      14.404   3.637   0.077  0.00  0.00    +0.130 C 
ATOM     14  C   UNL     1      11.686   3.803   2.121  0.00  0.00    +0.185 C 
ATOM     15  C   UNL     1      15.014   3.648   1.470  0.00  0.00    +0.185 C 
BRANCH  13   6
ATOM      4  O   UNL     1      14.035   4.016  -2.784  0.00  0.00    -0.273 OA
ATOM      6  N   UNL     1      15.237   4.419  -0.833  0.00  0.00    -0.306 N 
ATOM     16  C   UNL     1      14.976   4.538  -2.192  0.00  0.00    +0.239 C 
ATOM     30  H   UNL     1      16.016   4.938  -0.437  0.00  0.00    +0.149 HD
BRANCH  16  18
ATOM     18  C   UNL     1      16.002   5.408  -2.887  0.00  0.00    +0.255 C 
BRANCH  18   5
ATOM      5  O   UNL     1      17.250   4.751  -2.949  0.00  0.00    -0.374 OA
ATOM     23  C   UNL     1      18.261   5.468  -2.245  0.00  0.00    +0.194 C 
ENDBRANCH  18   5
ENDBRANCH  16  18
ENDBRANCH  13   6
ENDBRANCH   7  12
BRANCH  19  22
ATOM      1  F   UNL     1      10.037   3.671   8.195  0.00  0.00    -0.205 F 
ATOM     22  C   UNL     1       9.239   6.558   6.124  0.00  0.00    +0.003 A 
ATOM     24  C   UNL     1       9.634   5.271   6.495  0.00  0.00    +0.048 A 
ATOM     25  C   UNL     1       8.873   7.481   7.106  0.00  0.00    +0.010 A 
ATOM     26  C   UNL     1       9.660   4.908   7.842  0.00  0.00    +0.124 A 
ATOM     27  C   UNL     1       8.900   7.118   8.452  0.00  0.00    +0.003 A 
ATOM     28  C   UNL     1       9.293   5.831   8.820  0.00  0.00    +0.038 A 
ENDBRANCH  19  22
TORSDOF 5
ENDMDL
MODEL 6
REMARK VINA RESULT:      -6.1     27.093     31.054
REMARK  Name = 11913351
REMARK  6 active torsions:
REMARK  status: ('A' for Active; 'I' for Inactive)
REMARK    1  A    between atoms: O_5  and  C_18
REMARK    2  A    between atoms: O_5  and  C_23
REMARK    3  A    between atoms: N_6  and  C_13
REMARK    4  A    between atoms: N_7  and  C_12
REMARK    5  A    between atoms: C_16  and  C_18
REMARK    6  A    between atoms: C_19  and  C_22
REMARK                            x       y       z     vdW  Elec       q    Type
REMARK                         _______ _______ _______ _____ _____    ______ ____
ROOT
ATOM      7  N   UNL     1      20.182  -1.734  29.421  0.00  0.00    -0.306 N 
ATOM      8  N   UNL     1      19.248  -1.891  27.274  0.00  0.00    -0.214 NA
ATOM      9  N   UNL     1      21.386  -0.832  27.619  0.00  0.00    -0.223 NA
ATOM     17  C   UNL     1      20.274  -1.478  28.064  0.00  0.00    +0.216 A 
ATOM     19  C   UNL     1      19.371  -1.625  25.957  0.00  0.00    +0.076 A 
ATOM     20  C   UNL     1      21.443  -0.598  26.292  0.00  0.00    +0.116 A 
ATOM     21  C   UNL     1      20.456  -0.975  25.404  0.00  0.00    +0.048 A 
ATOM     29  H   UNL     1      20.927  -1.376  30.007  0.00  0.00    +0.149 HD
ENDROOT
BRANCH   7  12
ATOM      2  O   UNL     1      19.292  -2.066  32.373  0.00  0.00    -0.370 OA
ATOM      3  O   UNL     1      16.741  -2.035  30.611  0.00  0.00    -0.370 OA
ATOM     10  C   UNL     1      18.026  -1.401  30.473  0.00  0.00    +0.171 C 
ATOM     11  C   UNL     1      18.472  -0.998  31.864  0.00  0.00    +0.171 C 
ATOM     12  C   UNL     1      19.059  -2.410  30.032  0.00  0.00    +0.130 C 
ATOM     13  C   UNL     1      17.186  -0.902  32.655  0.00  0.00    +0.130 C 
ATOM     14  C   UNL     1      19.480  -3.049  31.344  0.00  0.00    +0.185 C 
ATOM     15  C   UNL     1      16.328  -1.964  31.984  0.00  0.00    +0.185 C 
BRANCH  13   6
ATOM      4  O   UNL     1      17.401   1.408  34.411  0.00  0.00    -0.273 OA
ATOM      6  N   UNL     1      16.572   0.412  32.478  0.00  0.00    -0.306 N 
ATOM     16  C   UNL     1      16.736   1.456  33.379  0.00  0.00    +0.239 C 
ATOM     30  H   UNL     1      16.042   0.579  31.628  0.00  0.00    +0.149 HD
BRANCH  16  18
ATOM     18  C   UNL     1      15.990   2.698  32.943  0.00  0.00    +0.255 C 
BRANCH  18   5
ATOM      5  O   UNL     1      16.511   3.190  31.726  0.00  0.00    -0.374 OA
ATOM     23  C   UNL     1      17.293   4.365  31.921  0.00  0.00    +0.194 C 
ENDBRANCH  18   5
ENDBRANCH  16  18
ENDBRANCH  13   6
ENDBRANCH   7  12
BRANCH  19  22
ATOM      1  F   UNL     1      16.185  -0.856  22.410  0.00  0.00    -0.205 F 
ATOM     22  C   UNL     1      18.271  -2.071  25.136  0.00  0.00    +0.003 A 
ATOM     24  C   UNL     1      17.748  -1.233  24.149  0.00  0.00    +0.048 A 
ATOM     25  C   UNL     1      17.726  -3.343  25.325  0.00  0.00    +0.010 A 
ATOM     26  C   UNL     1      16.685  -1.663  23.356  0.00  0.00    +0.124 A 
ATOM     27  C   UNL     1      16.662  -3.774  24.531  0.00  0.00    +0.003 A 
ATOM     28  C   UNL     1      16.142  -2.934  23.546  0.00  0.00    +0.038 A 
ENDBRANCH  19  22
TORSDOF 5
ENDMDL
MODEL 7
REMARK VINA RESULT:      -6.0      3.801      9.402
REMARK  Name = 11913351
REMARK  6 active torsions:
REMARK  status: ('A' for Active; 'I' for Inactive)
REMARK    1  A    between atoms: O_5  and  C_18
REMARK    2  A    between atoms: O_5  and  C_23
REMARK    3  A    between atoms: N_6  and  C_13
REMARK    4  A    between atoms: N_7  and  C_12
REMARK    5  A    between atoms: C_16  and  C_18
REMARK    6  A    between atoms: C_19  and  C_22
REMARK                            x       y       z     vdW  Elec       q    Type
REMARK                         _______ _______ _______ _____ _____    ______ ____
ROOT
ATOM      7  N   UNL     1      -4.000  -9.788  11.143  0.00  0.00    -0.306 N 
ATOM      8  N   UNL     1      -4.406 -10.589   8.975  0.00  0.00    -0.214 NA
ATOM      9  N   UNL     1      -5.683  -8.754   9.875  0.00  0.00    -0.223 NA
ATOM     17  C   UNL     1      -4.718  -9.708   9.962  0.00  0.00    +0.216 A 
ATOM     19  C   UNL     1      -5.126 -10.483   7.838  0.00  0.00    +0.076 A 
ATOM     20  C   UNL     1      -6.363  -8.705   8.712  0.00  0.00    +0.116 A 
ATOM     21  C   UNL     1      -6.127  -9.551   7.648  0.00  0.00    +0.048 A 
ATOM     29  H   UNL     1      -4.275  -9.162  11.890  0.00  0.00    +0.149 HD
ENDROOT
BRANCH   7  12
ATOM      2  O   UNL     1      -1.719  -9.935  13.238  0.00  0.00    -0.370 OA
ATOM      3  O   UNL     1      -2.546 -12.839  12.531  0.00  0.00    -0.370 OA
ATOM     10  C   UNL     1      -3.281 -11.603  12.578  0.00  0.00    +0.171 C 
ATOM     11  C   UNL     1      -2.740 -10.810  13.751  0.00  0.00    +0.171 C 
ATOM     12  C   UNL     1      -2.948 -10.753  11.374  0.00  0.00    +0.130 C 
ATOM     13  C   UNL     1      -2.129 -11.857  14.657  0.00  0.00    +0.130 C 
ATOM     14  C   UNL     1      -1.674 -10.048  11.808  0.00  0.00    +0.185 C 
ATOM     15  C   UNL     1      -1.654 -12.897  13.654  0.00  0.00    +0.185 C 
BRANCH  13   6
ATOM      4  O   UNL     1      -3.670 -10.516  16.729  0.00  0.00    -0.273 OA
ATOM      6  N   UNL     1      -3.148 -12.439  15.527  0.00  0.00    -0.306 N 
ATOM     16  C   UNL     1      -3.831 -11.711  16.492  0.00  0.00    +0.239 C 
ATOM     30  H   UNL     1      -3.398 -13.413  15.381  0.00  0.00    +0.149 HD
BRANCH  16  18
ATOM     18  C   UNL     1      -4.826 -12.568  17.244  0.00  0.00    +0.255 C 
BRANCH  18   5
ATOM      5  O   UNL     1      -5.887 -11.779  17.740  0.00  0.00    -0.374 OA
ATOM     23  C   UNL     1      -5.956 -11.818  19.163  0.00  0.00    +0.194 C 
ENDBRANCH  18   5
ENDBRANCH  16  18
ENDBRANCH  13   6
ENDBRANCH   7  12
BRANCH  19  22
ATOM      1  F   UNL     1      -2.986 -14.573   6.417  0.00  0.00    -0.205 F 
ATOM     22  C   UNL     1      -4.780 -11.428   6.803  0.00  0.00    +0.003 A 
ATOM     24  C   UNL     1      -4.036 -12.567   7.115  0.00  0.00    +0.048 A 
ATOM     25  C   UNL     1      -5.189 -11.206   5.487  0.00  0.00    +0.010 A 
ATOM     26  C   UNL     1      -3.701 -13.481   6.115  0.00  0.00    +0.124 A 
ATOM     27  C   UNL     1      -4.855 -12.119   4.486  0.00  0.00    +0.003 A 
ATOM     28  C   UNL     1      -4.111 -13.257   4.801  0.00  0.00    +0.038 A 
ENDBRANCH  19  22
TORSDOF 5
ENDMDL
MODEL 8
REMARK VINA RESULT:      -6.0     29.654     32.086
REMARK  Name = 11913351
REMARK  6 active torsions:
REMARK  status: ('A' for Active; 'I' for Inactive)
REMARK    1  A    between atoms: O_5  and  C_18
REMARK    2  A    between atoms: O_5  and  C_23
REMARK    3  A    between atoms: N_6  and  C_13
REMARK    4  A    between atoms: N_7  and  C_12
REMARK    5  A    between atoms: C_16  and  C_18
REMARK    6  A    between atoms: C_19  and  C_22
REMARK                            x       y       z     vdW  Elec       q    Type
REMARK                         _______ _______ _______ _____ _____    ______ ____
ROOT
ATOM      7  N   UNL     1      -4.071  10.398  36.828  0.00  0.00    -0.306 N 
ATOM      8  N   UNL     1      -2.709   8.750  37.795  0.00  0.00    -0.214 NA
ATOM      9  N   UNL     1      -1.771  10.444  36.359  0.00  0.00    -0.223 NA
ATOM     17  C   UNL     1      -2.812   9.847  36.999  0.00  0.00    +0.216 A 
ATOM     19  C   UNL     1      -1.468   8.240  37.940  0.00  0.00    +0.076 A 
ATOM     20  C   UNL     1      -0.560   9.881  36.547  0.00  0.00    +0.116 A 
ATOM     21  C   UNL     1      -0.345   8.767  37.334  0.00  0.00    +0.048 A 
ATOM     29  H   UNL     1      -4.144  11.183  36.192  0.00  0.00    +0.149 HD
ENDROOT
BRANCH   7  12
ATOM      2  O   UNL     1      -6.856  11.635  37.398  0.00  0.00    -0.370 OA
ATOM      3  O   UNL     1      -7.251   8.601  36.894  0.00  0.00    -0.370 OA
ATOM     10  C   UNL     1      -6.299   9.555  36.389  0.00  0.00    +0.171 C 
ATOM     11  C   UNL     1      -7.041  10.862  36.198  0.00  0.00    +0.171 C 
ATOM     12  C   UNL     1      -5.266   9.868  37.446  0.00  0.00    +0.130 C 
ATOM     13  C   UNL     1      -8.490  10.450  36.057  0.00  0.00    +0.130 C 
ATOM     14  C   UNL     1      -5.951  10.943  38.272  0.00  0.00    +0.185 C 
ATOM     15  C   UNL     1      -8.549   9.211  36.938  0.00  0.00    +0.185 C 
BRANCH  13   6
ATOM      4  O   UNL     1     -11.084  10.457  34.738  0.00  0.00    -0.273 OA
ATOM      6  N   UNL     1      -8.787  10.086  34.674  0.00  0.00    -0.306 N 
ATOM     16  C   UNL     1     -10.067  10.122  34.135  0.00  0.00    +0.239 C 
ATOM     30  H   UNL     1      -8.008   9.843  34.068  0.00  0.00    +0.149 HD
BRANCH  16  18
ATOM     18  C   UNL     1     -10.078   9.696  32.683  0.00  0.00    +0.255 C 
BRANCH  18   5
ATOM      5  O   UNL     1     -11.252   8.969  32.387  0.00  0.00    -0.374 OA
ATOM     23  C   UNL     1     -11.848   9.400  31.167  0.00  0.00    +0.194 C 
ENDBRANCH  18   5
ENDBRANCH  16  18
ENDBRANCH  13   6
ENDBRANCH   7  12
BRANCH  19  22
ATOM      1  F   UNL     1       0.944   4.376  39.545  0.00  0.00    -0.205 F 
ATOM     22  C   UNL     1      -1.379   7.075  38.788  0.00  0.00    +0.003 A 
ATOM     24  C   UNL     1      -0.238   6.272  38.758  0.00  0.00    +0.048 A 
ATOM     25  C   UNL     1      -2.434   6.748  39.642  0.00  0.00    +0.010 A 
ATOM     26  C   UNL     1      -0.152   5.146  39.577  0.00  0.00    +0.124 A 
ATOM     27  C   UNL     1      -2.348   5.623  40.462  0.00  0.00    +0.003 A 
ATOM     28  C   UNL     1      -1.207   4.822  40.429  0.00  0.00    +0.038 A 
ENDBRANCH  19  22
TORSDOF 5
ENDMDL
MODEL 9
REMARK VINA RESULT:      -5.8     24.757     28.789
REMARK  Name = 11913351
REMARK  6 active torsions:
REMARK  status: ('A' for Active; 'I' for Inactive)
REMARK    1  A    between atoms: O_5  and  C_18
REMARK    2  A    between atoms: O_5  and  C_23
REMARK    3  A    between atoms: N_6  and  C_13
REMARK    4  A    between atoms: N_7  and  C_12
REMARK    5  A    between atoms: C_16  and  C_18
REMARK    6  A    between atoms: C_19  and  C_22
REMARK                            x       y       z     vdW  Elec       q    Type
REMARK                         _______ _______ _______ _____ _____    ______ ____
ROOT
ATOM      7  N   UNL     1     -14.144   7.705  32.067  0.00  0.00    -0.306 N 
ATOM      8  N   UNL     1     -12.310   8.678  33.161  0.00  0.00    -0.214 NA
ATOM      9  N   UNL     1     -13.101   9.551  31.058  0.00  0.00    -0.223 NA
ATOM     17  C   UNL     1     -13.155   8.674  32.097  0.00  0.00    +0.216 A 
ATOM     19  C   UNL     1     -11.358   9.635  33.157  0.00  0.00    +0.076 A 
ATOM     20  C   UNL     1     -12.126  10.480  31.118  0.00  0.00    +0.116 A 
ATOM     21  C   UNL     1     -11.216  10.572  32.152  0.00  0.00    +0.048 A 
ATOM     29  H   UNL     1     -14.735   7.679  31.245  0.00  0.00    +0.149 HD
ENDROOT
BRANCH   7  12
ATOM      2  O   UNL     1     -16.491   5.805  32.769  0.00  0.00    -0.370 OA
ATOM      3  O   UNL     1     -13.851   4.379  33.549  0.00  0.00    -0.370 OA
ATOM     10  C   UNL     1     -14.176   5.325  32.515  0.00  0.00    +0.171 C 
ATOM     11  C   UNL     1     -15.570   4.985  32.027  0.00  0.00    +0.171 C 
ATOM     12  C   UNL     1     -14.318   6.709  33.101  0.00  0.00    +0.130 C 
ATOM     13  C   UNL     1     -15.749   3.529  32.395  0.00  0.00    +0.130 C 
ATOM     14  C   UNL     1     -15.753   6.713  33.599  0.00  0.00    +0.185 C 
ATOM     15  C   UNL     1     -14.916   3.424  33.664  0.00  0.00    +0.185 C 
BRANCH  13   6
ATOM      4  O   UNL     1     -17.034   2.613  29.951  0.00  0.00    -0.273 OA
ATOM      6  N   UNL     1     -15.183   2.666  31.361  0.00  0.00    -0.306 N 
ATOM     16  C   UNL     1     -15.882   2.282  30.224  0.00  0.00    +0.239 C 
ATOM     30  H   UNL     1     -14.214   2.375  31.461  0.00  0.00    +0.149 HD
BRANCH  16  18
ATOM     18  C   UNL     1     -15.051   1.389  29.327  0.00  0.00    +0.255 C 
BRANCH  18   5
ATOM      5  O   UNL     1     -13.855   1.011  29.974  0.00  0.00    -0.374 OA
ATOM     23  C   UNL     1     -13.613  -0.389  29.866  0.00  0.00    +0.194 C 
ENDBRANCH  18   5
ENDBRANCH  16  18
ENDBRANCH  13   6
ENDBRANCH   7  12
BRANCH  19  22
ATOM      1  F   UNL     1      -6.992  10.338  35.097  0.00  0.00    -0.205 F 
ATOM     22  C   UNL     1     -10.471   9.622  34.295  0.00  0.00    +0.003 A 
ATOM     24  C   UNL     1      -9.133   9.994  34.144  0.00  0.00    +0.048 A 
ATOM     25  C   UNL     1     -10.946   9.238  35.550  0.00  0.00    +0.010 A 
ATOM     26  C   UNL     1      -8.275   9.982  35.244  0.00  0.00    +0.124 A 
ATOM     27  C   UNL     1     -10.088   9.226  36.650  0.00  0.00    +0.003 A 
ATOM     28  C   UNL     1      -8.753   9.598  36.497  0.00  0.00    +0.038 A 
ENDBRANCH  19  22
TORSDOF 5
ENDMDL
MODEL 10
REMARK VINA RESULT:      -5.7     26.333     28.695
REMARK  Name = 11913351
REMARK  6 active torsions:
REMARK  status: ('A' for Active; 'I' for Inactive)
REMARK    1  A    between atoms: O_5  and  C_18
REMARK    2  A    between atoms: O_5  and  C_23
REMARK    3  A    between atoms: N_6  and  C_13
REMARK    4  A    between atoms: N_7  and  C_12
REMARK    5  A    between atoms: C_16  and  C_18
REMARK    6  A    between atoms: C_19  and  C_22
REMARK                            x       y       z     vdW  Elec       q    Type
REMARK                         _______ _______ _______ _____ _____    ______ ____
ROOT
ATOM      7  N   UNL     1      20.276  -4.592  -1.367  0.00  0.00    -0.306 N 
ATOM      8  N   UNL     1      18.169  -5.030  -2.302  0.00  0.00    -0.214 NA
ATOM      9  N   UNL     1      18.841  -2.778  -1.765  0.00  0.00    -0.223 NA
ATOM     17  C   UNL     1      19.058  -4.119  -1.825  0.00  0.00    +0.216 A 
ATOM     19  C   UNL     1      16.993  -4.534  -2.741  0.00  0.00    +0.076 A 
ATOM     20  C   UNL     1      17.644  -2.352  -2.219  0.00  0.00    +0.116 A 
ATOM     21  C   UNL     1      16.672  -3.192  -2.724  0.00  0.00    +0.048 A 
ATOM     29  H   UNL     1      20.910  -3.912  -0.965  0.00  0.00    +0.149 HD
ENDROOT
BRANCH   7  12
ATOM      2  O   UNL     1      22.906  -6.068  -0.646  0.00  0.00    -0.370 OA
ATOM      3  O   UNL     1      20.541  -7.952   0.042  0.00  0.00    -0.370 OA
ATOM     10  C   UNL     1      20.676  -6.520   0.045  0.00  0.00    +0.171 C 
ATOM     11  C   UNL     1      22.079  -6.207   0.524  0.00  0.00    +0.171 C 
ATOM     12  C   UNL     1      20.642  -5.991  -1.369  0.00  0.00    +0.130 C 
ATOM     13  C   UNL     1      22.485  -7.434   1.311  0.00  0.00    +0.130 C 
ATOM     14  C   UNL     1      22.084  -6.156  -1.819  0.00  0.00    +0.185 C 
ATOM     15  C   UNL     1      21.739  -8.537   0.577  0.00  0.00    +0.185 C 
BRANCH  13   6
ATOM      4  O   UNL     1      24.071  -7.411   3.750  0.00  0.00    -0.273 OA
ATOM      6  N   UNL     1      22.002  -7.343   2.687  0.00  0.00    -0.306 N 
ATOM     16  C   UNL     1      22.846  -7.341   3.791  0.00  0.00    +0.239 C 
ATOM     30  H   UNL     1      21.004  -7.227   2.834  0.00  0.00    +0.149 HD
BRANCH  16  18
ATOM     18  C   UNL     1      22.073  -7.236   5.088  0.00  0.00    +0.255 C 
BRANCH  18   5
ATOM      5  O   UNL     1      22.466  -8.254   5.984  0.00  0.00    -0.374 OA
ATOM     23  C   UNL     1      22.124  -9.549   5.498  0.00  0.00    +0.194 C 
ENDBRANCH  18   5
ENDBRANCH  16  18
ENDBRANCH  13   6
ENDBRANCH   7  12
BRANCH  19  22
ATOM      1  F   UNL     1      15.958  -9.066  -4.051  0.00  0.00    -0.205 F 
ATOM     22  C   UNL     1      16.063  -5.517  -3.243  0.00  0.00    +0.003 A 
ATOM     24  C   UNL     1      16.466  -6.844  -3.407  0.00  0.00    +0.048 A 
ATOM     25  C   UNL     1      14.756  -5.145  -3.565  0.00  0.00    +0.010 A 
ATOM     26  C   UNL     1      15.567  -7.794  -3.893  0.00  0.00    +0.124 A 
ATOM     27  C   UNL     1      13.857  -6.095  -4.051  0.00  0.00    +0.003 A 
ATOM     28  C   UNL     1      14.263  -7.420  -4.214  0.00  0.00    +0.038 A 
ENDBRANCH  19  22
TORSDOF 5
ENDMDL
