MODEL 1
REMARK VINA RESULT:      -6.5      0.000      0.000
REMARK  Name = 71694018
REMARK  7 active torsions:
REMARK  status: ('A' for Active; 'I' for Inactive)
REMARK    1  A    between atoms: S_2  and  N_7
REMARK    2  A    between atoms: S_2  and  C_17
REMARK    3  A    between atoms: O_3  and  C_10
REMARK    4  A    between atoms: O_4  and  C_12
REMARK    5  A    between atoms: N_7  and  C_9
REMARK    6  A    between atoms: C_8  and  C_13
REMARK    7  A    between atoms: C_14  and  C_18
REMARK                            x       y       z     vdW  Elec       q    Type
REMARK                         _______ _______ _______ _____ _____    ______ ____
ROOT
ATOM      8  C   UNL     1      12.077   8.420  19.142  0.00  0.00    +0.043 C 
ATOM      9  C   UNL     1      13.483   8.874  18.658  0.00  0.00    +0.115 C 
ATOM     10  C   UNL     1      13.280   9.418  17.237  0.00  0.00    +0.162 C 
ATOM     11  C   UNL     1      11.105   8.842  18.028  0.00  0.00    +0.043 C 
ATOM     12  C   UNL     1      11.969   8.787  16.778  0.00  0.00    +0.145 C 
ENDROOT
BRANCH   8  13
ATOM     13  C   UNL     1      11.692   8.959  20.502  0.00  0.00    -0.040 A 
ATOM     14  C   UNL     1      11.272   8.104  21.520  0.00  0.00    -0.047 A 
ATOM     15  C   UNL     1      11.761  10.334  20.730  0.00  0.00    +0.004 A 
ATOM     16  C   UNL     1      10.921   8.623  22.767  0.00  0.00    +0.003 A 
ATOM     18  C   UNL     1      11.191   6.629  21.301  0.00  0.00    +0.044 C 
ATOM     19  C   UNL     1      11.409  10.853  21.976  0.00  0.00    +0.000 A 
ATOM     20  C   UNL     1      10.990   9.998  22.994  0.00  0.00    +0.000 A 
ENDBRANCH   8  13
BRANCH  10   3
ATOM      3  O   UNL     1      13.155  10.836  17.321  0.00  0.00    -0.388 OA
ATOM     27  H   UNL     1      13.915  11.167  17.829  0.00  0.00    +0.210 HD
ENDBRANCH  10   3
BRANCH  12   4
ATOM      4  O   UNL     1      11.372   9.487  15.705  0.00  0.00    -0.389 OA
ATOM     28  H   UNL     1      10.562   9.905  16.043  0.00  0.00    +0.210 HD
ENDBRANCH  12   4
BRANCH   9   7
ATOM      7  N   UNL     1      14.389   7.698  18.611  0.00  0.00    -0.184 NA
ATOM     26  H   UNL     1      14.251   7.014  17.857  0.00  0.00    +0.148 HD
BRANCH   7   2
ATOM      2  S   UNL     1      15.368   7.329  19.949  0.00  0.00    +0.059 S 
ATOM      5  O   UNL     1      16.724   7.075  19.500  0.00  0.00    -0.153 OA
ATOM      6  O   UNL     1      14.680   6.357  20.778  0.00  0.00    -0.153 OA
BRANCH   2  17
ATOM      1 CL   UNL     1      15.360  12.761  23.097  0.00  0.00    -0.084 Cl
ATOM     17  C   UNL     1      15.365   8.858  20.835  0.00  0.00    +0.105 A 
ATOM     21  C   UNL     1      15.880  10.010  20.240  0.00  0.00    +0.030 A 
ATOM     22  C   UNL     1      14.848   8.914  22.130  0.00  0.00    +0.030 A 
ATOM     23  C   UNL     1      15.878  11.217  20.939  0.00  0.00    +0.022 A 
ATOM     24  C   UNL     1      14.847  10.120  22.829  0.00  0.00    +0.022 A 
ATOM     25  C   UNL     1      15.361  11.272  22.234  0.00  0.00    +0.041 A 
ENDBRANCH   2  17
ENDBRANCH   7   2
ENDBRANCH   9   7
TORSDOF 6
ENDMDL
MODEL 2
REMARK VINA RESULT:      -6.4     27.851     29.926
REMARK  Name = 71694018
REMARK  7 active torsions:
REMARK  status: ('A' for Active; 'I' for Inactive)
REMARK    1  A    between atoms: S_2  and  N_7
REMARK    2  A    between atoms: S_2  and  C_17
REMARK    3  A    between atoms: O_3  and  C_10
REMARK    4  A    between atoms: O_4  and  C_12
REMARK    5  A    between atoms: N_7  and  C_9
REMARK    6  A    between atoms: C_8  and  C_13
REMARK    7  A    between atoms: C_14  and  C_18
REMARK                            x       y       z     vdW  Elec       q    Type
REMARK                         _______ _______ _______ _____ _____    ______ ____
ROOT
ATOM      8  C   UNL     1      -8.841 -12.149  18.698  0.00  0.00    +0.043 C 
ATOM      9  C   UNL     1      -9.476 -10.733  18.608  0.00  0.00    +0.115 C 
ATOM     10  C   UNL     1     -10.566 -10.693  19.688  0.00  0.00    +0.162 C 
ATOM     11  C   UNL     1      -9.507 -12.818  19.912  0.00  0.00    +0.043 C 
ATOM     12  C   UNL     1     -10.877 -12.162  19.960  0.00  0.00    +0.145 C 
ENDROOT
BRANCH   8  13
ATOM     13  C   UNL     1      -7.331 -12.142  18.777  0.00  0.00    -0.040 A 
ATOM     14  C   UNL     1      -6.568 -13.008  17.995  0.00  0.00    -0.047 A 
ATOM     15  C   UNL     1      -6.702 -11.253  19.649  0.00  0.00    +0.004 A 
ATOM     16  C   UNL     1      -5.176 -12.985  18.083  0.00  0.00    +0.003 A 
ATOM     18  C   UNL     1      -7.218 -13.969  17.054  0.00  0.00    +0.044 C 
ATOM     19  C   UNL     1      -5.311 -11.229  19.738  0.00  0.00    +0.000 A 
ATOM     20  C   UNL     1      -4.548 -12.096  18.956  0.00  0.00    +0.000 A 
ENDBRANCH   8  13
BRANCH  10   3
ATOM      3  O   UNL     1     -10.015 -10.071  20.847  0.00  0.00    -0.388 OA
ATOM     27  H   UNL     1      -9.050 -10.182  20.809  0.00  0.00    +0.210 HD
ENDBRANCH  10   3
BRANCH  12   4
ATOM      4  O   UNL     1     -11.505 -12.364  21.210  0.00  0.00    -0.389 OA
ATOM     28  H   UNL     1     -11.671 -11.489  21.599  0.00  0.00    +0.210 HD
ENDBRANCH  12   4
BRANCH   9   7
ATOM      7  N   UNL     1     -10.100 -10.559  17.271  0.00  0.00    -0.184 NA
ATOM     26  H   UNL     1     -10.704 -11.313  16.920  0.00  0.00    +0.148 HD
BRANCH   7   2
ATOM      2  S   UNL     1      -9.550  -9.333  16.233  0.00  0.00    +0.059 S 
ATOM      5  O   UNL     1      -9.454  -8.085  16.967  0.00  0.00    -0.153 OA
ATOM      6  O   UNL     1     -10.305  -9.394  14.995  0.00  0.00    -0.153 OA
BRANCH   2  17
ATOM      1 CL   UNL     1      -3.720 -11.261  14.926  0.00  0.00    -0.084 Cl
ATOM     17  C   UNL     1      -7.909  -9.875  15.865  0.00  0.00    +0.105 A 
ATOM     21  C   UNL     1      -7.701 -10.871  14.910  0.00  0.00    +0.030 A 
ATOM     22  C   UNL     1      -6.821  -9.307  16.528  0.00  0.00    +0.030 A 
ATOM     23  C   UNL     1      -6.406 -11.299  14.620  0.00  0.00    +0.022 A 
ATOM     24  C   UNL     1      -5.527  -9.736  16.239  0.00  0.00    +0.022 A 
ATOM     25  C   UNL     1      -5.318 -10.732  15.284  0.00  0.00    +0.041 A 
ENDBRANCH   2  17
ENDBRANCH   7   2
ENDBRANCH   9   7
TORSDOF 6
ENDMDL
MODEL 3
REMARK VINA RESULT:      -6.2      2.141      4.019
REMARK  Name = 71694018
REMARK  7 active torsions:
REMARK  status: ('A' for Active; 'I' for Inactive)
REMARK    1  A    between atoms: S_2  and  N_7
REMARK    2  A    between atoms: S_2  and  C_17
REMARK    3  A    between atoms: O_3  and  C_10
REMARK    4  A    between atoms: O_4  and  C_12
REMARK    5  A    between atoms: N_7  and  C_9
REMARK    6  A    between atoms: C_8  and  C_13
REMARK    7  A    between atoms: C_14  and  C_18
REMARK                            x       y       z     vdW  Elec       q    Type
REMARK                         _______ _______ _______ _____ _____    ______ ____
ROOT
ATOM      8  C   UNL     1      12.626   8.457  20.335  0.00  0.00    +0.043 C 
ATOM      9  C   UNL     1      13.108   7.018  20.670  0.00  0.00    +0.115 C 
ATOM     10  C   UNL     1      11.914   6.321  21.336  0.00  0.00    +0.162 C 
ATOM     11  C   UNL     1      11.134   8.485  20.707  0.00  0.00    +0.043 C 
ATOM     12  C   UNL     1      11.040   7.469  21.833  0.00  0.00    +0.145 C 
ENDROOT
BRANCH   8  13
ATOM     13  C   UNL     1      12.890   8.878  18.906  0.00  0.00    -0.040 A 
ATOM     14  C   UNL     1      13.167  10.207  18.589  0.00  0.00    -0.047 A 
ATOM     15  C   UNL     1      12.852   7.914  17.898  0.00  0.00    +0.004 A 
ATOM     16  C   UNL     1      13.408  10.573  17.264  0.00  0.00    +0.003 A 
ATOM     18  C   UNL     1      13.213  11.257  19.650  0.00  0.00    +0.044 C 
ATOM     19  C   UNL     1      13.092   8.279  16.574  0.00  0.00    +0.000 A 
ATOM     20  C   UNL     1      13.370   9.608  16.257  0.00  0.00    +0.000 A 
ENDBRANCH   8  13
BRANCH  10   3
ATOM      3  O   UNL     1      11.232   5.564  20.338  0.00  0.00    -0.388 OA
ATOM     27  H   UNL     1      10.370   5.986  20.188  0.00  0.00    +0.210 HD
ENDBRANCH  10   3
BRANCH  12   4
ATOM      4  O   UNL     1       9.703   7.076  22.066  0.00  0.00    -0.389 OA
ATOM     28  H   UNL     1       9.143   7.547  21.427  0.00  0.00    +0.210 HD
ENDBRANCH  12   4
BRANCH   9   7
ATOM      7  N   UNL     1      14.238   7.091  21.632  0.00  0.00    -0.184 NA
ATOM     26  H   UNL     1      14.013   7.139  22.634  0.00  0.00    +0.148 HD
BRANCH   7   2
ATOM      2  S   UNL     1      15.804   7.437  21.075  0.00  0.00    +0.059 S 
ATOM      5  O   UNL     1      15.860   7.242  19.639  0.00  0.00    -0.153 OA
ATOM      6  O   UNL     1      16.764   6.778  21.939  0.00  0.00    -0.153 OA
BRANCH   2  17
ATOM      1 CL   UNL     1      16.247  13.597  22.204  0.00  0.00    -0.084 Cl
ATOM     17  C   UNL     1      15.929   9.172  21.393  0.00  0.00    +0.105 A 
ATOM     21  C   UNL     1      15.235   9.736  22.464  0.00  0.00    +0.030 A 
ATOM     22  C   UNL     1      16.721   9.976  20.574  0.00  0.00    +0.030 A 
ATOM     23  C   UNL     1      15.334  11.104  22.714  0.00  0.00    +0.022 A 
ATOM     24  C   UNL     1      16.819  11.344  20.824  0.00  0.00    +0.022 A 
ATOM     25  C   UNL     1      16.126  11.909  21.895  0.00  0.00    +0.041 A 
ENDBRANCH   2  17
ENDBRANCH   7   2
ENDBRANCH   9   7
TORSDOF 6
ENDMDL
MODEL 4
REMARK VINA RESULT:      -6.2     14.346     16.821
REMARK  Name = 71694018
REMARK  7 active torsions:
REMARK  status: ('A' for Active; 'I' for Inactive)
REMARK    1  A    between atoms: S_2  and  N_7
REMARK    2  A    between atoms: S_2  and  C_17
REMARK    3  A    between atoms: O_3  and  C_10
REMARK    4  A    between atoms: O_4  and  C_12
REMARK    5  A    between atoms: N_7  and  C_9
REMARK    6  A    between atoms: C_8  and  C_13
REMARK    7  A    between atoms: C_14  and  C_18
REMARK                            x       y       z     vdW  Elec       q    Type
REMARK                         _______ _______ _______ _____ _____    ______ ____
ROOT
ATOM      8  C   UNL     1      11.113   5.315   3.000  0.00  0.00    +0.043 C 
ATOM      9  C   UNL     1      12.200   6.204   2.333  0.00  0.00    +0.115 C 
ATOM     10  C   UNL     1      12.396   5.637   0.921  0.00  0.00    +0.162 C 
ATOM     11  C   UNL     1      10.639   4.354   1.898  0.00  0.00    +0.043 C 
ATOM     12  C   UNL     1      11.867   4.208   1.015  0.00  0.00    +0.145 C 
ENDROOT
BRANCH   8  13
ATOM     13  C   UNL     1       9.984   6.096   3.635  0.00  0.00    -0.040 A 
ATOM     14  C   UNL     1       9.411   5.681   4.836  0.00  0.00    -0.047 A 
ATOM     15  C   UNL     1       9.515   7.246   2.999  0.00  0.00    +0.004 A 
ATOM     16  C   UNL     1       8.369   6.416   5.404  0.00  0.00    +0.003 A 
ATOM     18  C   UNL     1       9.895   4.453   5.535  0.00  0.00    +0.044 C 
ATOM     19  C   UNL     1       8.474   7.981   3.566  0.00  0.00    +0.000 A 
ATOM     20  C   UNL     1       7.901   7.566   4.768  0.00  0.00    +0.000 A 
ENDBRANCH   8  13
BRANCH  10   3
ATOM      3  O   UNL     1      11.604   6.410   0.021  0.00  0.00    -0.388 OA
ATOM     27  H   UNL     1      11.270   5.808  -0.666  0.00  0.00    +0.210 HD
ENDBRANCH  10   3
BRANCH  12   4
ATOM      4  O   UNL     1      11.536   3.665  -0.247  0.00  0.00    -0.389 OA
ATOM     28  H   UNL     1      11.950   4.225  -0.925  0.00  0.00    +0.210 HD
ENDBRANCH  12   4
BRANCH   9   7
ATOM      7  N   UNL     1      13.469   6.082   3.095  0.00  0.00    -0.184 NA
ATOM     26  H   UNL     1      13.800   5.138   3.330  0.00  0.00    +0.148 HD
BRANCH   7   2
ATOM      2  S   UNL     1      14.143   7.449   3.844  0.00  0.00    +0.059 S 
ATOM      5  O   UNL     1      14.239   8.529   2.879  0.00  0.00    -0.153 OA
ATOM      6  O   UNL     1      15.312   7.041   4.600  0.00  0.00    -0.153 OA
BRANCH   2  17
ATOM      1 CL   UNL     1       9.698   8.967   8.009  0.00  0.00    -0.084 Cl
ATOM     17  C   UNL     1      12.892   7.877   5.017  0.00  0.00    +0.105 A 
ATOM     21  C   UNL     1      12.658   7.054   6.118  0.00  0.00    +0.030 A 
ATOM     22  C   UNL     1      12.138   9.037   4.841  0.00  0.00    +0.030 A 
ATOM     23  C   UNL     1      11.671   7.391   7.043  0.00  0.00    +0.022 A 
ATOM     24  C   UNL     1      11.151   9.374   5.765  0.00  0.00    +0.022 A 
ATOM     25  C   UNL     1      10.917   8.551   6.867  0.00  0.00    +0.041 A 
ENDBRANCH   2  17
ENDBRANCH   7   2
ENDBRANCH   9   7
TORSDOF 6
ENDMDL
MODEL 5
REMARK VINA RESULT:      -6.1     26.051     27.939
REMARK  Name = 71694018
REMARK  7 active torsions:
REMARK  status: ('A' for Active; 'I' for Inactive)
REMARK    1  A    between atoms: S_2  and  N_7
REMARK    2  A    between atoms: S_2  and  C_17
REMARK    3  A    between atoms: O_3  and  C_10
REMARK    4  A    between atoms: O_4  and  C_12
REMARK    5  A    between atoms: N_7  and  C_9
REMARK    6  A    between atoms: C_8  and  C_13
REMARK    7  A    between atoms: C_14  and  C_18
REMARK                            x       y       z     vdW  Elec       q    Type
REMARK                         _______ _______ _______ _____ _____    ______ ____
ROOT
ATOM      8  C   UNL     1     -15.001   6.960  21.165  0.00  0.00    +0.043 C 
ATOM      9  C   UNL     1     -14.943   7.319  22.676  0.00  0.00    +0.115 C 
ATOM     10  C   UNL     1     -15.388   6.055  23.424  0.00  0.00    +0.162 C 
ATOM     11  C   UNL     1     -15.353   5.464  21.114  0.00  0.00    +0.043 C 
ATOM     12  C   UNL     1     -16.166   5.257  22.382  0.00  0.00    +0.145 C 
ENDROOT
BRANCH   8  13
ATOM     13  C   UNL     1     -13.739   7.300  20.403  0.00  0.00    -0.040 A 
ATOM     14  C   UNL     1     -13.799   7.798  19.102  0.00  0.00    -0.047 A 
ATOM     15  C   UNL     1     -12.503   7.107  21.021  0.00  0.00    +0.004 A 
ATOM     16  C   UNL     1     -12.622   8.105  18.418  0.00  0.00    +0.003 A 
ATOM     18  C   UNL     1     -15.110   8.013  18.421  0.00  0.00    +0.044 C 
ATOM     19  C   UNL     1     -11.326   7.413  20.337  0.00  0.00    +0.000 A 
ATOM     20  C   UNL     1     -11.386   7.911  19.036  0.00  0.00    +0.000 A 
ENDBRANCH   8  13
BRANCH  10   3
ATOM      3  O   UNL     1     -14.218   5.348  23.830  0.00  0.00    -0.388 OA
ATOM     27  H   UNL     1     -13.480   5.662  23.280  0.00  0.00    +0.210 HD
ENDBRANCH  10   3
BRANCH  12   4
ATOM      4  O   UNL     1     -16.273   3.887  22.711  0.00  0.00    -0.389 OA
ATOM     28  H   UNL     1     -15.441   3.458  22.451  0.00  0.00    +0.210 HD
ENDBRANCH  12   4
BRANCH   9   7
ATOM      7  N   UNL     1     -15.901   8.421  22.956  0.00  0.00    -0.184 NA
ATOM     26  H   UNL     1     -16.852   8.337  22.579  0.00  0.00    +0.148 HD
BRANCH   7   2
ATOM      2  S   UNL     1     -15.334   9.901  23.564  0.00  0.00    +0.059 S 
ATOM      5  O   UNL     1     -14.526   9.660  24.745  0.00  0.00    -0.153 OA
ATOM      6  O   UNL     1     -16.438  10.840  23.616  0.00  0.00    -0.153 OA
BRANCH   2  17
ATOM      1 CL   UNL     1     -11.511  11.816  18.967  0.00  0.00    -0.084 Cl
ATOM     17  C   UNL     1     -14.257  10.440  22.270  0.00  0.00    +0.105 A 
ATOM     21  C   UNL     1     -12.877  10.452  22.470  0.00  0.00    +0.030 A 
ATOM     22  C   UNL     1     -14.788  10.853  21.048  0.00  0.00    +0.030 A 
ATOM     23  C   UNL     1     -12.028  10.877  21.449  0.00  0.00    +0.022 A 
ATOM     24  C   UNL     1     -13.940  11.279  20.027  0.00  0.00    +0.022 A 
ATOM     25  C   UNL     1     -12.559  11.291  20.227  0.00  0.00    +0.041 A 
ENDBRANCH   2  17
ENDBRANCH   7   2
ENDBRANCH   9   7
TORSDOF 6
ENDMDL
MODEL 6
REMARK VINA RESULT:      -6.0     25.832     27.828
REMARK  Name = 71694018
REMARK  7 active torsions:
REMARK  status: ('A' for Active; 'I' for Inactive)
REMARK    1  A    between atoms: S_2  and  N_7
REMARK    2  A    between atoms: S_2  and  C_17
REMARK    3  A    between atoms: O_3  and  C_10
REMARK    4  A    between atoms: O_4  and  C_12
REMARK    5  A    between atoms: N_7  and  C_9
REMARK    6  A    between atoms: C_8  and  C_13
REMARK    7  A    between atoms: C_14  and  C_18
REMARK                            x       y       z     vdW  Elec       q    Type
REMARK                         _______ _______ _______ _____ _____    ______ ____
ROOT
ATOM      8  C   UNL     1     -13.304   6.695  20.838  0.00  0.00    +0.043 C 
ATOM      9  C   UNL     1     -14.805   6.876  21.198  0.00  0.00    +0.115 C 
ATOM     10  C   UNL     1     -15.046   6.006  22.439  0.00  0.00    +0.162 C 
ATOM     11  C   UNL     1     -12.716   5.828  21.964  0.00  0.00    +0.043 C 
ATOM     12  C   UNL     1     -13.904   4.994  22.414  0.00  0.00    +0.145 C 
ENDROOT
BRANCH   8  13
ATOM     13  C   UNL     1     -12.559   7.995  20.637  0.00  0.00    -0.040 A 
ATOM     14  C   UNL     1     -11.565   8.110  19.665  0.00  0.00    -0.047 A 
ATOM     15  C   UNL     1     -12.877   9.090  21.442  0.00  0.00    +0.004 A 
ATOM     16  C   UNL     1     -10.890   9.320  19.497  0.00  0.00    +0.003 A 
ATOM     18  C   UNL     1     -11.207   6.953  18.791  0.00  0.00    +0.044 C 
ATOM     19  C   UNL     1     -12.201  10.299  21.275  0.00  0.00    +0.000 A 
ATOM     20  C   UNL     1     -11.208  10.413  20.303  0.00  0.00    +0.000 A 
ENDBRANCH   8  13
BRANCH  10   3
ATOM      3  O   UNL     1     -14.953   6.843  23.590  0.00  0.00    -0.388 OA
ATOM     27  H   UNL     1     -14.812   7.753  23.279  0.00  0.00    +0.210 HD
ENDBRANCH  10   3
BRANCH  12   4
ATOM      4  O   UNL     1     -13.672   4.401  23.675  0.00  0.00    -0.389 OA
ATOM     28  H   UNL     1     -14.500   3.978  23.957  0.00  0.00    +0.210 HD
ENDBRANCH  12   4
BRANCH   9   7
ATOM      7  N   UNL     1     -15.643   6.378  20.076  0.00  0.00    -0.184 NA
ATOM     26  H   UNL     1     -15.441   5.443  19.704  0.00  0.00    +0.148 HD
BRANCH   7   2
ATOM      2  S   UNL     1     -16.647   7.453  19.227  0.00  0.00    +0.059 S 
ATOM      5  O   UNL     1     -17.434   8.226  20.170  0.00  0.00    -0.153 OA
ATOM      6  O   UNL     1     -17.300   6.733  18.151  0.00  0.00    -0.153 OA
BRANCH   2  17
ATOM      1 CL   UNL     1     -12.463  11.315  16.581  0.00  0.00    -0.084 Cl
ATOM     17  C   UNL     1     -15.469   8.541  18.482  0.00  0.00    +0.105 A 
ATOM     21  C   UNL     1     -14.646   8.078  17.456  0.00  0.00    +0.030 A 
ATOM     22  C   UNL     1     -15.364   9.861  18.920  0.00  0.00    +0.030 A 
ATOM     23  C   UNL     1     -13.716   8.936  16.868  0.00  0.00    +0.022 A 
ATOM     24  C   UNL     1     -14.435  10.718  18.333  0.00  0.00    +0.022 A 
ATOM     25  C   UNL     1     -13.611  10.256  17.306  0.00  0.00    +0.041 A 
ENDBRANCH   2  17
ENDBRANCH   7   2
ENDBRANCH   9   7
TORSDOF 6
ENDMDL
MODEL 7
REMARK VINA RESULT:      -6.0     13.428     16.011
REMARK  Name = 71694018
REMARK  7 active torsions:
REMARK  status: ('A' for Active; 'I' for Inactive)
REMARK    1  A    between atoms: S_2  and  N_7
REMARK    2  A    between atoms: S_2  and  C_17
REMARK    3  A    between atoms: O_3  and  C_10
REMARK    4  A    between atoms: O_4  and  C_12
REMARK    5  A    between atoms: N_7  and  C_9
REMARK    6  A    between atoms: C_8  and  C_13
REMARK    7  A    between atoms: C_14  and  C_18
REMARK                            x       y       z     vdW  Elec       q    Type
REMARK                         _______ _______ _______ _____ _____    ______ ____
ROOT
ATOM      8  C   UNL     1       9.615   6.353   6.044  0.00  0.00    +0.043 C 
ATOM      9  C   UNL     1      10.487   7.156   7.049  0.00  0.00    +0.115 C 
ATOM     10  C   UNL     1      10.937   6.146   8.113  0.00  0.00    +0.162 C 
ATOM     11  C   UNL     1       9.707   4.888   6.503  0.00  0.00    +0.043 C 
ATOM     12  C   UNL     1       9.924   5.010   8.003  0.00  0.00    +0.145 C 
ENDROOT
BRANCH   8  13
ATOM     13  C   UNL     1      10.008   6.547   4.596  0.00  0.00    -0.040 A 
ATOM     14  C   UNL     1       9.170   7.224   3.710  0.00  0.00    -0.047 A 
ATOM     15  C   UNL     1      11.228   6.038   4.151  0.00  0.00    +0.004 A 
ATOM     16  C   UNL     1       9.552   7.392   2.379  0.00  0.00    +0.003 A 
ATOM     18  C   UNL     1       7.860   7.779   4.163  0.00  0.00    +0.044 C 
ATOM     19  C   UNL     1      11.610   6.204   2.820  0.00  0.00    +0.000 A 
ATOM     20  C   UNL     1      10.772   6.881   1.934  0.00  0.00    +0.000 A 
ENDBRANCH   8  13
BRANCH  10   3
ATOM      3  O   UNL     1      12.244   5.692   7.766  0.00  0.00    -0.388 OA
ATOM     27  H   UNL     1      12.876   6.148   8.348  0.00  0.00    +0.210 HD
ENDBRANCH  10   3
BRANCH  12   4
ATOM      4  O   UNL     1      10.399   3.800   8.557  0.00  0.00    -0.389 OA
ATOM     28  H   UNL     1       9.780   3.097   8.299  0.00  0.00    +0.210 HD
ENDBRANCH  12   4
BRANCH   9   7
ATOM      7  N   UNL     1       9.656   8.209   7.688  0.00  0.00    -0.184 NA
ATOM     26  H   UNL     1       8.675   7.987   7.896  0.00  0.00    +0.148 HD
BRANCH   7   2
ATOM      2  S   UNL     1      10.213   9.813   7.739  0.00  0.00    +0.059 S 
ATOM      5  O   UNL     1      11.640   9.820   7.997  0.00  0.00    -0.153 OA
ATOM      6  O   UNL     1       9.317  10.593   8.571  0.00  0.00    -0.153 OA
BRANCH   2  17
ATOM      1 CL   UNL     1       9.311  11.685   1.814  0.00  0.00    -0.084 Cl
ATOM     17  C   UNL     1       9.959  10.340   6.071  0.00  0.00    +0.105 A 
ATOM     21  C   UNL     1       8.753  10.938   5.704  0.00  0.00    +0.030 A 
ATOM     22  C   UNL     1      10.964  10.158   5.121  0.00  0.00    +0.030 A 
ATOM     23  C   UNL     1       8.553  11.354   4.388  0.00  0.00    +0.022 A 
ATOM     24  C   UNL     1      10.764  10.573   3.806  0.00  0.00    +0.022 A 
ATOM     25  C   UNL     1       9.559  11.172   3.438  0.00  0.00    +0.041 A 
ENDBRANCH   2  17
ENDBRANCH   7   2
ENDBRANCH   9   7
TORSDOF 6
ENDMDL
MODEL 8
REMARK VINA RESULT:      -5.8     13.726     16.561
REMARK  Name = 71694018
REMARK  7 active torsions:
REMARK  status: ('A' for Active; 'I' for Inactive)
REMARK    1  A    between atoms: S_2  and  N_7
REMARK    2  A    between atoms: S_2  and  C_17
REMARK    3  A    between atoms: O_3  and  C_10
REMARK    4  A    between atoms: O_4  and  C_12
REMARK    5  A    between atoms: N_7  and  C_9
REMARK    6  A    between atoms: C_8  and  C_13
REMARK    7  A    between atoms: C_14  and  C_18
REMARK                            x       y       z     vdW  Elec       q    Type
REMARK                         _______ _______ _______ _____ _____    ______ ____
ROOT
ATOM      8  C   UNL     1      10.208   7.015   5.682  0.00  0.00    +0.043 C 
ATOM      9  C   UNL     1      11.475   6.793   6.555  0.00  0.00    +0.115 C 
ATOM     10  C   UNL     1      10.965   6.298   7.915  0.00  0.00    +0.162 C 
ATOM     11  C   UNL     1       9.031   6.515   6.536  0.00  0.00    +0.043 C 
ATOM     12  C   UNL     1       9.510   6.756   7.959  0.00  0.00    +0.145 C 
ENDROOT
BRANCH   8  13
ATOM     13  C   UNL     1      10.276   6.359   4.321  0.00  0.00    -0.040 A 
ATOM     14  C   UNL     1       9.810   7.017   3.183  0.00  0.00    -0.047 A 
ATOM     15  C   UNL     1      10.813   5.076   4.214  0.00  0.00    +0.004 A 
ATOM     16  C   UNL     1       9.882   6.393   1.937  0.00  0.00    +0.003 A 
ATOM     18  C   UNL     1       9.232   8.391   3.272  0.00  0.00    +0.044 C 
ATOM     19  C   UNL     1      10.884   4.451   2.969  0.00  0.00    +0.000 A 
ATOM     20  C   UNL     1      10.419   5.109   1.831  0.00  0.00    +0.000 A 
ENDBRANCH   8  13
BRANCH  10   3
ATOM      3  O   UNL     1      11.046   4.874   7.924  0.00  0.00    -0.388 OA
ATOM     27  H   UNL     1      11.458   4.610   8.765  0.00  0.00    +0.210 HD
ENDBRANCH  10   3
BRANCH  12   4
ATOM      4  O   UNL     1       8.738   6.032   8.895  0.00  0.00    -0.389 OA
ATOM     28  H   UNL     1       8.736   6.536   9.725  0.00  0.00    +0.210 HD
ENDBRANCH  12   4
BRANCH   9   7
ATOM      7  N   UNL     1      12.180   8.089   6.734  0.00  0.00    -0.184 NA
ATOM     26  H   UNL     1      11.623   8.904   7.017  0.00  0.00    +0.148 HD
BRANCH   7   2
ATOM      2  S   UNL     1      13.764   8.279   6.151  0.00  0.00    +0.059 S 
ATOM      5  O   UNL     1      14.573   7.153   6.578  0.00  0.00    -0.153 OA
ATOM      6  O   UNL     1      14.202   9.635   6.419  0.00  0.00    -0.153 OA
BRANCH   2  17
ATOM      1 CL   UNL     1      12.927   7.815  -0.054  0.00  0.00    -0.084 Cl
ATOM     17  C   UNL     1      13.528   8.148   4.404  0.00  0.00    +0.105 A 
ATOM     21  C   UNL     1      13.939   6.999   3.729  0.00  0.00    +0.030 A 
ATOM     22  C   UNL     1      12.930   9.194   3.701  0.00  0.00    +0.030 A 
ATOM     23  C   UNL     1      13.753   6.896   2.351  0.00  0.00    +0.022 A 
ATOM     24  C   UNL     1      12.744   9.091   2.323  0.00  0.00    +0.022 A 
ATOM     25  C   UNL     1      13.156   7.942   1.647  0.00  0.00    +0.041 A 
ENDBRANCH   2  17
ENDBRANCH   7   2
ENDBRANCH   9   7
TORSDOF 6
ENDMDL
MODEL 9
REMARK VINA RESULT:      -5.8     26.885     29.235
REMARK  Name = 71694018
REMARK  7 active torsions:
REMARK  status: ('A' for Active; 'I' for Inactive)
REMARK    1  A    between atoms: S_2  and  N_7
REMARK    2  A    between atoms: S_2  and  C_17
REMARK    3  A    between atoms: O_3  and  C_10
REMARK    4  A    between atoms: O_4  and  C_12
REMARK    5  A    between atoms: N_7  and  C_9
REMARK    6  A    between atoms: C_8  and  C_13
REMARK    7  A    between atoms: C_14  and  C_18
REMARK                            x       y       z     vdW  Elec       q    Type
REMARK                         _______ _______ _______ _____ _____    ______ ____
ROOT
ATOM      8  C   UNL     1      -4.401 -11.741  17.155  0.00  0.00    +0.043 C 
ATOM      9  C   UNL     1      -5.379 -12.933  17.353  0.00  0.00    +0.115 C 
ATOM     10  C   UNL     1      -6.284 -12.541  18.529  0.00  0.00    +0.162 C 
ATOM     11  C   UNL     1      -4.870 -10.660  18.143  0.00  0.00    +0.043 C 
ATOM     12  C   UNL     1      -5.491 -11.468  19.270  0.00  0.00    +0.145 C 
ENDROOT
BRANCH   8  13
ATOM     13  C   UNL     1      -4.317 -11.245  15.728  0.00  0.00    -0.040 A 
ATOM     14  C   UNL     1      -3.089 -10.912  15.156  0.00  0.00    -0.047 A 
ATOM     15  C   UNL     1      -5.490 -11.124  14.983  0.00  0.00    +0.004 A 
ATOM     16  C   UNL     1      -3.034 -10.457  13.838  0.00  0.00    +0.003 A 
ATOM     18  C   UNL     1      -1.820 -11.034  15.934  0.00  0.00    +0.044 C 
ATOM     19  C   UNL     1      -5.435 -10.668  13.665  0.00  0.00    +0.000 A 
ATOM     20  C   UNL     1      -4.208 -10.335  13.094  0.00  0.00    +0.000 A 
ENDBRANCH   8  13
BRANCH  10   3
ATOM      3  O   UNL     1      -7.490 -11.999  17.996  0.00  0.00    -0.388 OA
ATOM     27  H   UNL     1      -7.500 -12.189  17.042  0.00  0.00    +0.210 HD
ENDBRANCH  10   3
BRANCH  12   4
ATOM      4  O   UNL     1      -6.305 -10.663  20.098  0.00  0.00    -0.389 OA
ATOM     28  H   UNL     1      -6.683  -9.961  19.543  0.00  0.00    +0.210 HD
ENDBRANCH  12   4
BRANCH   9   7
ATOM      7  N   UNL     1      -4.603 -14.149  17.710  0.00  0.00    -0.184 NA
ATOM     26  H   UNL     1      -3.844 -14.050  18.395  0.00  0.00    +0.148 HD
BRANCH   7   2
ATOM      2  S   UNL     1      -4.742 -15.551  16.762  0.00  0.00    +0.059 S 
ATOM      5  O   UNL     1      -6.120 -16.003  16.769  0.00  0.00    -0.153 OA
ATOM      6  O   UNL     1      -3.673 -16.465  17.119  0.00  0.00    -0.153 OA
BRANCH   2  17
ATOM      1 CL   UNL     1      -3.450 -13.367  11.020  0.00  0.00    -0.084 Cl
ATOM     17  C   UNL     1      -4.378 -14.936  15.146  0.00  0.00    +0.105 A 
ATOM     21  C   UNL     1      -5.409 -14.740  14.226  0.00  0.00    +0.030 A 
ATOM     22  C   UNL     1      -3.061 -14.647  14.789  0.00  0.00    +0.030 A 
ATOM     23  C   UNL     1      -5.122 -14.254  12.951  0.00  0.00    +0.022 A 
ATOM     24  C   UNL     1      -2.774 -14.162  13.514  0.00  0.00    +0.022 A 
ATOM     25  C   UNL     1      -3.804 -13.965  12.594  0.00  0.00    +0.041 A 
ENDBRANCH   2  17
ENDBRANCH   7   2
ENDBRANCH   9   7
TORSDOF 6
ENDMDL
MODEL 10
REMARK VINA RESULT:      -5.8     10.988     14.503
REMARK  Name = 71694018
REMARK  7 active torsions:
REMARK  status: ('A' for Active; 'I' for Inactive)
REMARK    1  A    between atoms: S_2  and  N_7
REMARK    2  A    between atoms: S_2  and  C_17
REMARK    3  A    between atoms: O_3  and  C_10
REMARK    4  A    between atoms: O_4  and  C_12
REMARK    5  A    between atoms: N_7  and  C_9
REMARK    6  A    between atoms: C_8  and  C_13
REMARK    7  A    between atoms: C_14  and  C_18
REMARK                            x       y       z     vdW  Elec       q    Type
REMARK                         _______ _______ _______ _____ _____    ______ ____
ROOT
ATOM      8  C   UNL     1       9.489   6.358   6.078  0.00  0.00    +0.043 C 
ATOM      9  C   UNL     1      10.456   7.180   6.975  0.00  0.00    +0.115 C 
ATOM     10  C   UNL     1      10.907   6.226   8.089  0.00  0.00    +0.162 C 
ATOM     11  C   UNL     1       9.525   4.928   6.642  0.00  0.00    +0.043 C 
ATOM     12  C   UNL     1       9.829   5.145   8.115  0.00  0.00    +0.145 C 
ENDROOT
BRANCH   8  13
ATOM     13  C   UNL     1       9.814   6.423   4.602  0.00  0.00    -0.040 A 
ATOM     14  C   UNL     1       9.081   7.241   3.742  0.00  0.00    -0.047 A 
ATOM     15  C   UNL     1      10.863   5.650   4.105  0.00  0.00    +0.004 A 
ATOM     16  C   UNL     1       9.398   7.286   2.384  0.00  0.00    +0.003 A 
ATOM     18  C   UNL     1       7.954   8.078   4.251  0.00  0.00    +0.044 C 
ATOM     19  C   UNL     1      11.179   5.694   2.747  0.00  0.00    +0.000 A 
ATOM     20  C   UNL     1      10.447   6.512   1.887  0.00  0.00    +0.000 A 
ENDBRANCH   8  13
BRANCH  10   3
ATOM      3  O   UNL     1      12.167   5.673   7.714  0.00  0.00    -0.388 OA
ATOM     27  H   UNL     1      12.330   4.902   8.284  0.00  0.00    +0.210 HD
ENDBRANCH  10   3
BRANCH  12   4
ATOM      4  O   UNL     1      10.267   3.953   8.735  0.00  0.00    -0.389 OA
ATOM     28  H   UNL     1       9.785   3.216   8.325  0.00  0.00    +0.210 HD
ENDBRANCH  12   4
BRANCH   9   7
ATOM      7  N   UNL     1       9.719   8.323   7.573  0.00  0.00    -0.184 NA
ATOM     26  H   UNL     1       8.838   8.124   8.063  0.00  0.00    +0.148 HD
BRANCH   7   2
ATOM      2  S   UNL     1      10.137   9.914   7.152  0.00  0.00    +0.059 S 
ATOM      5  O   UNL     1       9.054  10.515   6.396  0.00  0.00    -0.153 OA
ATOM      6  O   UNL     1      11.487   9.918   6.620  0.00  0.00    -0.153 OA
BRANCH   2  17
ATOM      1 CL   UNL     1      10.366  12.723  12.762  0.00  0.00    -0.084 Cl
ATOM     17  C   UNL     1      10.202  10.705   8.731  0.00  0.00    +0.105 A 
ATOM     21  C   UNL     1       9.043  10.829   9.496  0.00  0.00    +0.030 A 
ATOM     22  C   UNL     1      11.412  11.204   9.213  0.00  0.00    +0.030 A 
ATOM     23  C   UNL     1       9.093  11.453  10.743  0.00  0.00    +0.022 A 
ATOM     24  C   UNL     1      11.463  11.828  10.458  0.00  0.00    +0.022 A 
ATOM     25  C   UNL     1      10.304  11.953  11.224  0.00  0.00    +0.041 A 
ENDBRANCH   2  17
ENDBRANCH   7   2
ENDBRANCH   9   7
TORSDOF 6
ENDMDL
