MODEL 1
REMARK VINA RESULT:      -6.7      0.000      0.000
REMARK  Name = 11882950
REMARK  13 active torsions:
REMARK  status: ('A' for Active; 'I' for Inactive)
REMARK    1  A    between atoms: O_2  and  C_15
REMARK    2  A    between atoms: O_3  and  C_20
REMARK    3  A    between atoms: O_6  and  C_30
REMARK    4  A    between atoms: O_6  and  C_32
REMARK    5  A    between atoms: N_8  and  C_26
REMARK    6  A    between atoms: N_8  and  C_27
REMARK    7  A    between atoms: C_10  and  C_18
REMARK    8  A    between atoms: C_12  and  C_20
REMARK    9  A    between atoms: C_12  and  C_21
REMARK   10  A    between atoms: C_13  and  C_23
REMARK   11  A    between atoms: C_23  and  C_24
REMARK   12  A    between atoms: C_26  and  C_29
REMARK   13  A    between atoms: C_28  and  C_30
REMARK                            x       y       z     vdW  Elec       q    Type
REMARK                         _______ _______ _______ _____ _____    ______ ____
ROOT
ATOM      1  S   UNL     1      -6.649 -10.339  10.915  0.00  0.00    -0.057 S 
ATOM      5  O   UNL     1     -10.920  -8.809  11.999  0.00  0.00    -0.272 OA
ATOM      7  N   UNL     1      -8.230  -9.721  12.867  0.00  0.00    -0.229 NA
ATOM      9  N   UNL     1      -9.114  -9.488  10.637  0.00  0.00    -0.262 N 
ATOM     10  C   UNL     1      -5.526 -11.011  15.294  0.00  0.00    -0.019 C 
ATOM     11  C   UNL     1      -4.340 -10.603  14.313  0.00  0.00    +0.011 C 
ATOM     12  C   UNL     1      -2.880 -11.018  14.744  0.00  0.00    +0.021 C 
ATOM     13  C   UNL     1      -6.807 -10.139  14.907  0.00  0.00    +0.054 C 
ATOM     14  C   UNL     1      -5.126 -10.676  16.754  0.00  0.00    +0.010 C 
ATOM     15  C   UNL     1      -2.664 -10.653  16.240  0.00  0.00    +0.123 C 
ATOM     16  C   UNL     1      -4.679 -10.950  12.834  0.00  0.00    +0.049 C 
ATOM     17  C   UNL     1      -3.755 -11.198  17.155  0.00  0.00    +0.032 C 
ATOM     18  C   UNL     1      -5.884 -12.517  15.211  0.00  0.00    +0.012 C 
ATOM     19  C   UNL     1      -7.031 -10.134  13.417  0.00  0.00    +0.058 A 
ATOM     21  C   UNL     1      -1.854 -10.194  13.915  0.00  0.00    +0.016 C 
ATOM     22  C   UNL     1      -6.057 -10.484  12.504  0.00  0.00    +0.015 A 
ATOM     25  C   UNL     1      -8.147  -9.796  11.557  0.00  0.00    +0.165 A 
ATOM     28  C   UNL     1     -10.415  -9.024  10.902  0.00  0.00    +0.256 C 
ATOM     40  H   UNL     1      -8.840  -9.617   9.666  0.00  0.00    +0.157 HD
ENDROOT
BRANCH  15   2
ATOM      2  O   UNL     1      -1.400 -11.131  16.697  0.00  0.00    -0.391 OA
ATOM     38  H   UNL     1      -0.765 -11.050  15.965  0.00  0.00    +0.210 HD
ENDBRANCH  15   2
BRANCH  12  20
ATOM     20  C   UNL     1      -2.531 -12.499  14.483  0.00  0.00    +0.165 C 
BRANCH  20   3
ATOM      3  O   UNL     1      -1.173 -12.563  14.108  0.00  0.00    -0.394 OA
ATOM     39  H   UNL     1      -1.062 -13.318  13.506  0.00  0.00    +0.209 HD
ENDBRANCH  20   3
ENDBRANCH  12  20
BRANCH  13  23
ATOM     23  C   UNL     1      -8.087 -10.514  15.666  0.00  0.00    +0.106 C 
BRANCH  23  24
ATOM      4  O   UNL     1      -7.852  -8.807  17.333  0.00  0.00    -0.276 OA
ATOM      8  N   UNL     1      -9.939  -9.031  16.347  0.00  0.00    -0.301 N 
ATOM     24  C   UNL     1      -8.596  -9.376  16.529  0.00  0.00    +0.216 C 
ATOM     27  C   UNL     1     -10.800  -9.718  15.392  0.00  0.00    +0.132 C 
BRANCH   8  26
ATOM     26  C   UNL     1     -10.580  -7.956  17.101  0.00  0.00    +0.134 C 
BRANCH  26  29
ATOM     29  C   UNL     1     -10.694  -6.749  16.230  0.00  0.00    -0.016 C 
ATOM     31  C   UNL     1     -11.848  -6.127  15.964  0.00  0.00    +0.005 C 
ENDBRANCH  26  29
ENDBRANCH   8  26
ENDBRANCH  23  24
ENDBRANCH  13  23
BRANCH  28  30
ATOM     30  C   UNL     1     -11.192  -8.795   9.617  0.00  0.00    +0.324 C 
BRANCH  30   6
ATOM      6  O   UNL     1     -10.500  -7.912   8.761  0.00  0.00    -0.483 OA
BRANCH   6  32
ATOM     32  C   UNL     1     -10.660  -6.565   8.986  0.00  0.00    +0.121 A 
ATOM     33  C   UNL     1      -9.685  -5.679   8.548  0.00  0.00    +0.045 A 
ATOM     34  C   UNL     1     -11.792  -6.111   9.647  0.00  0.00    +0.045 A 
ATOM     35  C   UNL     1      -9.846  -4.313   8.777  0.00  0.00    +0.004 A 
ATOM     36  C   UNL     1     -11.954  -4.745   9.876  0.00  0.00    +0.004 A 
ATOM     37  C   UNL     1     -10.981  -3.845   9.441  0.00  0.00    +0.000 A 
ENDBRANCH   6  32
ENDBRANCH  30   6
ENDBRANCH  28  30
TORSDOF 10
ENDMDL
MODEL 2
REMARK VINA RESULT:      -6.3     24.188     27.276
REMARK  Name = 11882950
REMARK  13 active torsions:
REMARK  status: ('A' for Active; 'I' for Inactive)
REMARK    1  A    between atoms: O_2  and  C_15
REMARK    2  A    between atoms: O_3  and  C_20
REMARK    3  A    between atoms: O_6  and  C_30
REMARK    4  A    between atoms: O_6  and  C_32
REMARK    5  A    between atoms: N_8  and  C_26
REMARK    6  A    between atoms: N_8  and  C_27
REMARK    7  A    between atoms: C_10  and  C_18
REMARK    8  A    between atoms: C_12  and  C_20
REMARK    9  A    between atoms: C_12  and  C_21
REMARK   10  A    between atoms: C_13  and  C_23
REMARK   11  A    between atoms: C_23  and  C_24
REMARK   12  A    between atoms: C_26  and  C_29
REMARK   13  A    between atoms: C_28  and  C_30
REMARK                            x       y       z     vdW  Elec       q    Type
REMARK                         _______ _______ _______ _____ _____    ______ ____
ROOT
ATOM      1  S   UNL     1      10.269   7.420  -0.234  0.00  0.00    -0.057 S 
ATOM      5  O   UNL     1      12.400   4.195   2.377  0.00  0.00    -0.272 OA
ATOM      7  N   UNL     1      10.438   6.413   2.143  0.00  0.00    -0.229 NA
ATOM      9  N   UNL     1      11.861   5.452   0.452  0.00  0.00    -0.262 N 
ATOM     10  C   UNL     1       8.058   9.195   3.351  0.00  0.00    -0.019 C 
ATOM     11  C   UNL     1       7.309   9.271   1.948  0.00  0.00    +0.011 C 
ATOM     12  C   UNL     1       6.219  10.399   1.779  0.00  0.00    +0.021 C 
ATOM     13  C   UNL     1       8.762   7.765   3.456  0.00  0.00    +0.054 C 
ATOM     14  C   UNL     1       7.020   9.316   4.496  0.00  0.00    +0.010 C 
ATOM     15  C   UNL     1       5.296  10.412   3.029  0.00  0.00    +0.123 C 
ATOM     16  C   UNL     1       8.312   9.186   0.761  0.00  0.00    +0.049 C 
ATOM     17  C   UNL     1       6.065  10.490   4.344  0.00  0.00    +0.032 C 
ATOM     18  C   UNL     1       9.122  10.307   3.525  0.00  0.00    +0.012 C 
ATOM     19  C   UNL     1       9.504   7.430   2.188  0.00  0.00    +0.058 A 
ATOM     21  C   UNL     1       5.327  10.063   0.549  0.00  0.00    +0.016 C 
ATOM     22  C   UNL     1       9.274   8.068   0.986  0.00  0.00    +0.015 A 
ATOM     25  C   UNL     1      10.913   6.322   0.920  0.00  0.00    +0.165 A 
ATOM     28  C   UNL     1      12.536   4.461   1.188  0.00  0.00    +0.256 C 
ATOM     40  H   UNL     1      12.085   5.551  -0.536  0.00  0.00    +0.157 HD
ENDROOT
BRANCH  15   2
ATOM      2  O   UNL     1       4.380  11.504   2.967  0.00  0.00    -0.391 OA
ATOM     38  H   UNL     1       4.347  11.919   3.845  0.00  0.00    +0.210 HD
ENDBRANCH  15   2
BRANCH  12  20
ATOM     20  C   UNL     1       6.791  11.807   1.503  0.00  0.00    +0.165 C 
BRANCH  20   3
ATOM      3  O   UNL     1       5.896  12.477   0.645  0.00  0.00    -0.394 OA
ATOM     39  H   UNL     1       5.206  12.890   1.191  0.00  0.00    +0.209 HD
ENDBRANCH  20   3
ENDBRANCH  12  20
BRANCH  13  23
ATOM     23  C   UNL     1       9.652   7.582   4.692  0.00  0.00    +0.106 C 
BRANCH  23  24
ATOM      4  O   UNL     1       8.023   6.012   5.484  0.00  0.00    -0.276 OA
ATOM      8  N   UNL     1      10.106   5.964   6.502  0.00  0.00    -0.301 N 
ATOM     24  C   UNL     1       9.170   6.453   5.583  0.00  0.00    +0.216 C 
ATOM     27  C   UNL     1      11.458   6.502   6.602  0.00  0.00    +0.132 C 
BRANCH   8  26
ATOM     26  C   UNL     1       9.798   4.878   7.430  0.00  0.00    +0.134 C 
BRANCH  26  29
ATOM     29  C   UNL     1       9.752   5.422   8.819  0.00  0.00    -0.016 C 
ATOM     31  C   UNL     1       9.166   4.796   9.847  0.00  0.00    +0.005 C 
ENDBRANCH  26  29
ENDBRANCH   8  26
ENDBRANCH  23  24
ENDBRANCH  13  23
BRANCH  28  30
ATOM     30  C   UNL     1      13.516   3.697   0.315  0.00  0.00    +0.324 C 
BRANCH  30   6
ATOM      6  O   UNL     1      12.834   2.860  -0.595  0.00  0.00    -0.483 OA
BRANCH   6  32
ATOM     32  C   UNL     1      12.901   3.193  -1.927  0.00  0.00    +0.121 A 
ATOM     33  C   UNL     1      12.006   2.620  -2.820  0.00  0.00    +0.045 A 
ATOM     34  C   UNL     1      13.861   4.096  -2.358  0.00  0.00    +0.045 A 
ATOM     35  C   UNL     1      12.074   2.957  -4.172  0.00  0.00    +0.004 A 
ATOM     36  C   UNL     1      13.930   4.434  -3.710  0.00  0.00    +0.004 A 
ATOM     37  C   UNL     1      13.036   3.864  -4.617  0.00  0.00    +0.000 A 
ENDBRANCH   6  32
ENDBRANCH  30   6
ENDBRANCH  28  30
TORSDOF 10
ENDMDL
MODEL 3
REMARK VINA RESULT:      -6.3      3.349      4.336
REMARK  Name = 11882950
REMARK  13 active torsions:
REMARK  status: ('A' for Active; 'I' for Inactive)
REMARK    1  A    between atoms: O_2  and  C_15
REMARK    2  A    between atoms: O_3  and  C_20
REMARK    3  A    between atoms: O_6  and  C_30
REMARK    4  A    between atoms: O_6  and  C_32
REMARK    5  A    between atoms: N_8  and  C_26
REMARK    6  A    between atoms: N_8  and  C_27
REMARK    7  A    between atoms: C_10  and  C_18
REMARK    8  A    between atoms: C_12  and  C_20
REMARK    9  A    between atoms: C_12  and  C_21
REMARK   10  A    between atoms: C_13  and  C_23
REMARK   11  A    between atoms: C_23  and  C_24
REMARK   12  A    between atoms: C_26  and  C_29
REMARK   13  A    between atoms: C_28  and  C_30
REMARK                            x       y       z     vdW  Elec       q    Type
REMARK                         _______ _______ _______ _____ _____    ______ ____
ROOT
ATOM      1  S   UNL     1      -9.159  -9.180  14.272  0.00  0.00    -0.057 S 
ATOM      5  O   UNL     1     -13.363  -8.791  16.254  0.00  0.00    -0.272 OA
ATOM      7  N   UNL     1     -10.541  -9.708  16.395  0.00  0.00    -0.229 NA
ATOM      9  N   UNL     1     -11.686  -8.567  14.607  0.00  0.00    -0.262 N 
ATOM     10  C   UNL     1      -7.504 -11.675  17.726  0.00  0.00    -0.019 C 
ATOM     11  C   UNL     1      -6.465 -10.736  16.970  0.00  0.00    +0.011 C 
ATOM     12  C   UNL     1      -4.943 -11.143  17.048  0.00  0.00    +0.021 C 
ATOM     13  C   UNL     1      -8.872 -10.865  17.889  0.00  0.00    +0.054 C 
ATOM     14  C   UNL     1      -6.962 -12.011  19.139  0.00  0.00    +0.010 C 
ATOM     15  C   UNL     1      -4.581 -11.490  18.519  0.00  0.00    +0.123 C 
ATOM     16  C   UNL     1      -6.949 -10.394  15.530  0.00  0.00    +0.049 C 
ATOM     17  C   UNL     1      -5.525 -12.510  19.147  0.00  0.00    +0.032 C 
ATOM     18  C   UNL     1      -7.778 -13.000  16.971  0.00  0.00    +0.012 C 
ATOM     19  C   UNL     1      -9.264 -10.197  16.598  0.00  0.00    +0.058 A 
ATOM     21  C   UNL     1      -4.070  -9.925  16.632  0.00  0.00    +0.016 C 
ATOM     22  C   UNL     1      -8.381  -9.979  15.559  0.00  0.00    +0.015 A 
ATOM     25  C   UNL     1     -10.604  -9.159  15.201  0.00  0.00    +0.165 A 
ATOM     28  C   UNL     1     -12.975  -8.420  15.152  0.00  0.00    +0.256 C 
ATOM     40  H   UNL     1     -11.518  -8.202  13.672  0.00  0.00    +0.157 HD
ENDROOT
BRANCH  15   2
ATOM      2  O   UNL     1      -3.246 -11.987  18.605  0.00  0.00    -0.391 OA
ATOM     38  H   UNL     1      -2.720 -11.348  19.114  0.00  0.00    +0.210 HD
ENDBRANCH  15   2
BRANCH  12  20
ATOM     20  C   UNL     1      -4.537 -12.290  16.096  0.00  0.00    +0.165 C 
BRANCH  20   3
ATOM      3  O   UNL     1      -3.179 -12.113  15.763  0.00  0.00    -0.394 OA
ATOM     39  H   UNL     1      -3.130 -11.504  15.007  0.00  0.00    +0.209 HD
ENDBRANCH  20   3
ENDBRANCH  12  20
BRANCH  13  23
ATOM     23  C   UNL     1     -10.032 -11.683  18.473  0.00  0.00    +0.106 C 
BRANCH  23  24
ATOM      4  O   UNL     1      -9.947 -10.389  20.489  0.00  0.00    -0.276 OA
ATOM      8  N   UNL     1     -12.028 -11.174  19.834  0.00  0.00    -0.301 N 
ATOM     24  C   UNL     1     -10.645 -11.020  19.691  0.00  0.00    +0.216 C 
ATOM     27  C   UNL     1     -12.833 -11.925  18.878  0.00  0.00    +0.132 C 
BRANCH   8  26
ATOM     26  C   UNL     1     -12.769 -10.595  20.953  0.00  0.00    +0.134 C 
BRANCH  26  29
ATOM     29  C   UNL     1     -13.557  -9.426  20.463  0.00  0.00    -0.016 C 
ATOM     31  C   UNL     1     -14.865  -9.260  20.690  0.00  0.00    +0.005 C 
ENDBRANCH  26  29
ENDBRANCH   8  26
ENDBRANCH  23  24
ENDBRANCH  13  23
BRANCH  28  30
ATOM     30  C   UNL     1     -13.905  -7.708  14.186  0.00  0.00    +0.324 C 
BRANCH  30   6
ATOM      6  O   UNL     1     -14.176  -6.393  14.623  0.00  0.00    -0.483 OA
BRANCH   6  32
ATOM     32  C   UNL     1     -13.908  -5.371  13.743  0.00  0.00    +0.121 A 
ATOM     33  C   UNL     1     -12.590  -5.059  13.439  0.00  0.00    +0.045 A 
ATOM     34  C   UNL     1     -14.959  -4.667  13.173  0.00  0.00    +0.045 A 
ATOM     35  C   UNL     1     -12.319  -4.022  12.547  0.00  0.00    +0.004 A 
ATOM     36  C   UNL     1     -14.687  -3.630  12.281  0.00  0.00    +0.004 A 
ATOM     37  C   UNL     1     -13.367  -3.307  11.968  0.00  0.00    +0.000 A 
ENDBRANCH   6  32
ENDBRANCH  30   6
ENDBRANCH  28  30
TORSDOF 10
ENDMDL
MODEL 4
REMARK VINA RESULT:      -6.2     24.645     27.489
REMARK  Name = 11882950
REMARK  13 active torsions:
REMARK  status: ('A' for Active; 'I' for Inactive)
REMARK    1  A    between atoms: O_2  and  C_15
REMARK    2  A    between atoms: O_3  and  C_20
REMARK    3  A    between atoms: O_6  and  C_30
REMARK    4  A    between atoms: O_6  and  C_32
REMARK    5  A    between atoms: N_8  and  C_26
REMARK    6  A    between atoms: N_8  and  C_27
REMARK    7  A    between atoms: C_10  and  C_18
REMARK    8  A    between atoms: C_12  and  C_20
REMARK    9  A    between atoms: C_12  and  C_21
REMARK   10  A    between atoms: C_13  and  C_23
REMARK   11  A    between atoms: C_23  and  C_24
REMARK   12  A    between atoms: C_26  and  C_29
REMARK   13  A    between atoms: C_28  and  C_30
REMARK                            x       y       z     vdW  Elec       q    Type
REMARK                         _______ _______ _______ _____ _____    ______ ____
ROOT
ATOM      1  S   UNL     1      10.166   8.848   2.259  0.00  0.00    -0.057 S 
ATOM      5  O   UNL     1      10.428   4.633   4.240  0.00  0.00    -0.272 OA
ATOM      7  N   UNL     1      10.007   7.562   4.499  0.00  0.00    -0.229 NA
ATOM      9  N   UNL     1      10.468   6.257   2.525  0.00  0.00    -0.262 N 
ATOM     10  C   UNL     1       9.709  10.967   6.283  0.00  0.00    -0.019 C 
ATOM     11  C   UNL     1       8.980  11.643   5.040  0.00  0.00    +0.011 C 
ATOM     12  C   UNL     1       8.684  13.190   5.138  0.00  0.00    +0.021 C 
ATOM     13  C   UNL     1       9.512   9.385   6.169  0.00  0.00    +0.054 C 
ATOM     14  C   UNL     1       9.042  11.450   7.597  0.00  0.00    +0.010 C 
ATOM     15  C   UNL     1       8.064  13.506   6.527  0.00  0.00    +0.123 C 
ATOM     16  C   UNL     1       9.633  11.214   3.693  0.00  0.00    +0.049 C 
ATOM     17  C   UNL     1       8.885  12.960   7.691  0.00  0.00    +0.032 C 
ATOM     18  C   UNL     1      11.222  11.294   6.344  0.00  0.00    +0.012 C 
ATOM     19  C   UNL     1       9.802   8.902   4.772  0.00  0.00    +0.058 A 
ATOM     21  C   UNL     1       7.628  13.573   4.062  0.00  0.00    +0.016 C 
ATOM     22  C   UNL     1       9.834   9.736   3.673  0.00  0.00    +0.015 A 
ATOM     25  C   UNL     1      10.217   7.417   3.208  0.00  0.00    +0.165 A 
ATOM     28  C   UNL     1      10.559   4.961   3.066  0.00  0.00    +0.256 C 
ATOM     40  H   UNL     1      10.601   6.368   1.523  0.00  0.00    +0.157 HD
ENDROOT
BRANCH  15   2
ATOM      2  O   UNL     1       7.904  14.913   6.698  0.00  0.00    -0.391 OA
ATOM     38  H   UNL     1       7.001  15.149   6.425  0.00  0.00    +0.210 HD
ENDBRANCH  15   2
BRANCH  12  20
ATOM     20  C   UNL     1       9.905  14.094   4.861  0.00  0.00    +0.165 C 
BRANCH  20   3
ATOM      3  O   UNL     1       9.443  15.258   4.213  0.00  0.00    -0.394 OA
ATOM     39  H   UNL     1       9.895  16.023   4.606  0.00  0.00    +0.209 HD
ENDBRANCH  20   3
ENDBRANCH  12  20
BRANCH  13  23
ATOM     23  C   UNL     1      10.280   8.570   7.217  0.00  0.00    +0.106 C 
BRANCH  23  24
ATOM      4  O   UNL     1       8.326   7.328   7.836  0.00  0.00    -0.276 OA
ATOM      8  N   UNL     1      10.321   6.152   7.717  0.00  0.00    -0.301 N 
ATOM     24  C   UNL     1       9.540   7.309   7.618  0.00  0.00    +0.216 C 
ATOM     27  C   UNL     1      11.756   6.154   7.456  0.00  0.00    +0.132 C 
BRANCH   8  26
ATOM     26  C   UNL     1       9.758   4.857   8.092  0.00  0.00    +0.134 C 
BRANCH  26  29
ATOM     29  C   UNL     1       9.775   4.729   9.579  0.00  0.00    -0.016 C 
ATOM     31  C   UNL     1       8.674   4.703  10.339  0.00  0.00    +0.005 C 
ENDBRANCH  26  29
ENDBRANCH   8  26
ENDBRANCH  23  24
ENDBRANCH  13  23
BRANCH  28  30
ATOM     30  C   UNL     1      10.851   3.933   1.987  0.00  0.00    +0.324 C 
BRANCH  30   6
ATOM      6  O   UNL     1      12.092   3.301   2.216  0.00  0.00    -0.483 OA
BRANCH   6  32
ATOM     32  C   UNL     1      13.087   3.518   1.292  0.00  0.00    +0.121 A 
ATOM     33  C   UNL     1      14.408   3.578   1.714  0.00  0.00    +0.045 A 
ATOM     34  C   UNL     1      12.756   3.674  -0.046  0.00  0.00    +0.045 A 
ATOM     35  C   UNL     1      15.418   3.799   0.777  0.00  0.00    +0.004 A 
ATOM     36  C   UNL     1      13.766   3.895  -0.983  0.00  0.00    +0.004 A 
ATOM     37  C   UNL     1      15.097   3.957  -0.571  0.00  0.00    +0.000 A 
ENDBRANCH   6  32
ENDBRANCH  30   6
ENDBRANCH  28  30
TORSDOF 10
ENDMDL
MODEL 5
REMARK VINA RESULT:      -6.2     26.925     30.141
REMARK  Name = 11882950
REMARK  13 active torsions:
REMARK  status: ('A' for Active; 'I' for Inactive)
REMARK    1  A    between atoms: O_2  and  C_15
REMARK    2  A    between atoms: O_3  and  C_20
REMARK    3  A    between atoms: O_6  and  C_30
REMARK    4  A    between atoms: O_6  and  C_32
REMARK    5  A    between atoms: N_8  and  C_26
REMARK    6  A    between atoms: N_8  and  C_27
REMARK    7  A    between atoms: C_10  and  C_18
REMARK    8  A    between atoms: C_12  and  C_20
REMARK    9  A    between atoms: C_12  and  C_21
REMARK   10  A    between atoms: C_13  and  C_23
REMARK   11  A    between atoms: C_23  and  C_24
REMARK   12  A    between atoms: C_26  and  C_29
REMARK   13  A    between atoms: C_28  and  C_30
REMARK                            x       y       z     vdW  Elec       q    Type
REMARK                         _______ _______ _______ _____ _____    ______ ____
ROOT
ATOM      1  S   UNL     1      16.369   7.470   1.685  0.00  0.00    -0.057 S 
ATOM      5  O   UNL     1      15.986   8.515   6.215  0.00  0.00    -0.272 OA
ATOM      7  N   UNL     1      14.790   7.404   3.734  0.00  0.00    -0.229 NA
ATOM      9  N   UNL     1      16.984   8.339   4.082  0.00  0.00    -0.262 N 
ATOM     10  C   UNL     1      12.001   6.158   1.381  0.00  0.00    -0.019 C 
ATOM     11  C   UNL     1      13.033   5.412   0.425  0.00  0.00    +0.011 C 
ATOM     12  C   UNL     1      12.450   4.758  -0.887  0.00  0.00    +0.021 C 
ATOM     13  C   UNL     1      12.697   6.345   2.807  0.00  0.00    +0.054 C 
ATOM     14  C   UNL     1      10.738   5.277   1.563  0.00  0.00    +0.010 C 
ATOM     15  C   UNL     1      11.168   3.953  -0.532  0.00  0.00    +0.123 C 
ATOM     16  C   UNL     1      14.309   6.271   0.183  0.00  0.00    +0.049 C 
ATOM     17  C   UNL     1      10.148   4.766   0.258  0.00  0.00    +0.032 C 
ATOM     18  C   UNL     1      11.567   7.541   0.834  0.00  0.00    +0.012 C 
ATOM     19  C   UNL     1      14.102   6.869   2.660  0.00  0.00    +0.058 A 
ATOM     21  C   UNL     1      13.487   3.747  -1.454  0.00  0.00    +0.016 C 
ATOM     22  C   UNL     1      14.813   6.810   1.479  0.00  0.00    +0.015 A 
ATOM     25  C   UNL     1      15.991   7.762   3.335  0.00  0.00    +0.165 A 
ATOM     28  C   UNL     1      16.928   8.676   5.446  0.00  0.00    +0.256 C 
ATOM     40  H   UNL     1      17.844   8.536   3.575  0.00  0.00    +0.157 HD
ENDROOT
BRANCH  15   2
ATOM      2  O   UNL     1      10.543   3.456  -1.714  0.00  0.00    -0.391 OA
ATOM     38  H   UNL     1       9.928   4.135  -2.038  0.00  0.00    +0.210 HD
ENDBRANCH  15   2
BRANCH  12  20
ATOM     20  C   UNL     1      12.173   5.756  -2.033  0.00  0.00    +0.165 C 
BRANCH  20   3
ATOM      3  O   UNL     1      12.427   5.095  -3.252  0.00  0.00    -0.394 OA
ATOM     39  H   UNL     1      11.714   5.321  -3.872  0.00  0.00    +0.209 HD
ENDBRANCH  20   3
ENDBRANCH  12  20
BRANCH  13  23
ATOM     23  C   UNL     1      11.887   7.180   3.807  0.00  0.00    +0.106 C 
BRANCH  23  24
ATOM      4  O   UNL     1      10.803   5.292   4.811  0.00  0.00    -0.276 OA
ATOM      8  N   UNL     1      11.693   6.878   6.250  0.00  0.00    -0.301 N 
ATOM     24  C   UNL     1      11.405   6.354   4.985  0.00  0.00    +0.216 C 
ATOM     27  C   UNL     1      12.407   8.136   6.431  0.00  0.00    +0.132 C 
BRANCH   8  26
ATOM     26  C   UNL     1      11.298   6.203   7.485  0.00  0.00    +0.134 C 
BRANCH  26  29
ATOM     29  C   UNL     1      10.141   6.929   8.089  0.00  0.00    -0.016 C 
ATOM     31  C   UNL     1       8.891   6.864   7.616  0.00  0.00    +0.005 C 
ENDBRANCH  26  29
ENDBRANCH   8  26
ENDBRANCH  23  24
ENDBRANCH  13  23
BRANCH  28  30
ATOM     30  C   UNL     1      18.231   9.299   5.915  0.00  0.00    +0.324 C 
BRANCH  30   6
ATOM      6  O   UNL     1      19.093   8.320   6.452  0.00  0.00    -0.483 OA
BRANCH   6  32
ATOM     32  C   UNL     1      20.274   8.088   5.787  0.00  0.00    +0.121 A 
ATOM     33  C   UNL     1      21.409   8.805   6.139  0.00  0.00    +0.045 A 
ATOM     34  C   UNL     1      20.313   7.142   4.773  0.00  0.00    +0.045 A 
ATOM     35  C   UNL     1      22.606   8.570   5.464  0.00  0.00    +0.004 A 
ATOM     36  C   UNL     1      21.510   6.907   4.097  0.00  0.00    +0.004 A 
ATOM     37  C   UNL     1      22.658   7.621   4.442  0.00  0.00    +0.000 A 
ENDBRANCH   6  32
ENDBRANCH  30   6
ENDBRANCH  28  30
TORSDOF 10
ENDMDL
MODEL 6
REMARK VINA RESULT:      -6.1     26.945     29.955
REMARK  Name = 11882950
REMARK  13 active torsions:
REMARK  status: ('A' for Active; 'I' for Inactive)
REMARK    1  A    between atoms: O_2  and  C_15
REMARK    2  A    between atoms: O_3  and  C_20
REMARK    3  A    between atoms: O_6  and  C_30
REMARK    4  A    between atoms: O_6  and  C_32
REMARK    5  A    between atoms: N_8  and  C_26
REMARK    6  A    between atoms: N_8  and  C_27
REMARK    7  A    between atoms: C_10  and  C_18
REMARK    8  A    between atoms: C_12  and  C_20
REMARK    9  A    between atoms: C_12  and  C_21
REMARK   10  A    between atoms: C_13  and  C_23
REMARK   11  A    between atoms: C_23  and  C_24
REMARK   12  A    between atoms: C_26  and  C_29
REMARK   13  A    between atoms: C_28  and  C_30
REMARK                            x       y       z     vdW  Elec       q    Type
REMARK                         _______ _______ _______ _____ _____    ______ ____
ROOT
ATOM      1  S   UNL     1      14.279   7.773   6.196  0.00  0.00    -0.057 S 
ATOM      5  O   UNL     1      11.565   5.865   2.917  0.00  0.00    -0.272 OA
ATOM      7  N   UNL     1      14.155   7.088   3.704  0.00  0.00    -0.229 NA
ATOM      9  N   UNL     1      12.200   6.662   5.048  0.00  0.00    -0.262 N 
ATOM     10  C   UNL     1      17.593   8.761   3.207  0.00  0.00    -0.019 C 
ATOM     11  C   UNL     1      18.056   8.431   4.694  0.00  0.00    +0.011 C 
ATOM     12  C   UNL     1      19.448   9.013   5.156  0.00  0.00    +0.021 C 
ATOM     13  C   UNL     1      16.423   7.744   2.818  0.00  0.00    +0.054 C 
ATOM     14  C   UNL     1      18.780   8.536   2.236  0.00  0.00    +0.010 C 
ATOM     15  C   UNL     1      20.508   8.743   4.052  0.00  0.00    +0.123 C 
ATOM     16  C   UNL     1      16.905   8.672   5.715  0.00  0.00    +0.049 C 
ATOM     17  C   UNL     1      20.070   9.215   2.670  0.00  0.00    +0.032 C 
ATOM     18  C   UNL     1      17.086  10.216   3.043  0.00  0.00    +0.012 C 
ATOM     19  C   UNL     1      15.401   7.647   3.920  0.00  0.00    +0.058 A 
ATOM     21  C   UNL     1      19.911   8.262   6.436  0.00  0.00    +0.016 C 
ATOM     22  C   UNL     1      15.644   8.052   5.217  0.00  0.00    +0.015 A 
ATOM     25  C   UNL     1      13.476   7.110   4.830  0.00  0.00    +0.165 A 
ATOM     28  C   UNL     1      11.336   6.079   4.102  0.00  0.00    +0.256 C 
ATOM     40  H   UNL     1      11.862   6.772   6.001  0.00  0.00    +0.157 HD
ENDROOT
BRANCH  15   2
ATOM      2  O   UNL     1      21.747   9.369   4.381  0.00  0.00    -0.391 OA
ATOM     38  H   UNL     1      22.392   8.671   4.586  0.00  0.00    +0.210 HD
ENDBRANCH  15   2
BRANCH  12  20
ATOM     20  C   UNL     1      19.422  10.509   5.540  0.00  0.00    +0.165 C 
BRANCH  20   3
ATOM      3  O   UNL     1      20.307  10.693   6.621  0.00  0.00    -0.394 OA
ATOM     39  H   UNL     1      21.136  11.062   6.274  0.00  0.00    +0.209 HD
ENDBRANCH  20   3
ENDBRANCH  12  20
BRANCH  13  23
ATOM     23  C   UNL     1      15.762   8.021   1.462  0.00  0.00    +0.106 C 
BRANCH  23  24
ATOM      4  O   UNL     1      16.749   6.143   0.345  0.00  0.00    -0.276 OA
ATOM      8  N   UNL     1      14.466   6.445   0.072  0.00  0.00    -0.301 N 
ATOM     24  C   UNL     1      15.724   6.787   0.581  0.00  0.00    +0.216 C 
ATOM     27  C   UNL     1      13.267   7.221   0.364  0.00  0.00    +0.132 C 
BRANCH   8  26
ATOM     26  C   UNL     1      14.260   5.284  -0.792  0.00  0.00    +0.134 C 
BRANCH  26  29
ATOM     29  C   UNL     1      13.507   4.240  -0.035  0.00  0.00    -0.016 C 
ATOM     31  C   UNL     1      14.001   3.578   1.017  0.00  0.00    +0.005 C 
ENDBRANCH  26  29
ENDBRANCH   8  26
ENDBRANCH  23  24
ENDBRANCH  13  23
BRANCH  28  30
ATOM     30  C   UNL     1      10.001   5.712   4.727  0.00  0.00    +0.324 C 
BRANCH  30   6
ATOM      6  O   UNL     1      10.158   4.684   5.682  0.00  0.00    -0.483 OA
BRANCH   6  32
ATOM     32  C   UNL     1       9.789   4.967   6.976  0.00  0.00    +0.121 A 
ATOM     33  C   UNL     1       9.793   3.953   7.924  0.00  0.00    +0.045 A 
ATOM     34  C   UNL     1       9.418   6.261   7.314  0.00  0.00    +0.045 A 
ATOM     35  C   UNL     1       9.418   4.240   9.237  0.00  0.00    +0.004 A 
ATOM     36  C   UNL     1       9.043   6.547   8.627  0.00  0.00    +0.004 A 
ATOM     37  C   UNL     1       9.043   5.537   9.589  0.00  0.00    +0.000 A 
ENDBRANCH   6  32
ENDBRANCH  30   6
ENDBRANCH  28  30
TORSDOF 10
ENDMDL
MODEL 7
REMARK VINA RESULT:      -6.0      4.009      9.656
REMARK  Name = 11882950
REMARK  13 active torsions:
REMARK  status: ('A' for Active; 'I' for Inactive)
REMARK    1  A    between atoms: O_2  and  C_15
REMARK    2  A    between atoms: O_3  and  C_20
REMARK    3  A    between atoms: O_6  and  C_30
REMARK    4  A    between atoms: O_6  and  C_32
REMARK    5  A    between atoms: N_8  and  C_26
REMARK    6  A    between atoms: N_8  and  C_27
REMARK    7  A    between atoms: C_10  and  C_18
REMARK    8  A    between atoms: C_12  and  C_20
REMARK    9  A    between atoms: C_12  and  C_21
REMARK   10  A    between atoms: C_13  and  C_23
REMARK   11  A    between atoms: C_23  and  C_24
REMARK   12  A    between atoms: C_26  and  C_29
REMARK   13  A    between atoms: C_28  and  C_30
REMARK                            x       y       z     vdW  Elec       q    Type
REMARK                         _______ _______ _______ _____ _____    ______ ____
ROOT
ATOM      1  S   UNL     1      -9.747 -11.298  19.275  0.00  0.00    -0.057 S 
ATOM      5  O   UNL     1      -6.575  -9.218  16.561  0.00  0.00    -0.272 OA
ATOM      7  N   UNL     1      -9.406  -9.556  17.393  0.00  0.00    -0.229 NA
ATOM      9  N   UNL     1      -7.432 -10.665  18.219  0.00  0.00    -0.262 N 
ATOM     10  C   UNL     1     -13.243  -9.262  17.149  0.00  0.00    -0.019 C 
ATOM     11  C   UNL     1     -13.444  -9.582  18.695  0.00  0.00    +0.011 C 
ATOM     12  C   UNL     1     -14.929  -9.725  19.209  0.00  0.00    +0.021 C 
ATOM     13  C   UNL     1     -11.748  -8.735  16.946  0.00  0.00    +0.054 C 
ATOM     14  C   UNL     1     -14.221  -8.137  16.723  0.00  0.00    +0.010 C 
ATOM     15  C   UNL     1     -15.779  -8.547  18.656  0.00  0.00    +0.123 C 
ATOM     16  C   UNL     1     -12.504 -10.730  19.166  0.00  0.00    +0.049 C 
ATOM     17  C   UNL     1     -15.663  -8.380  17.144  0.00  0.00    +0.032 C 
ATOM     18  C   UNL     1     -13.481 -10.496  16.243  0.00  0.00    +0.012 C 
ATOM     19  C   UNL     1     -10.760  -9.614  17.667  0.00  0.00    +0.058 A 
ATOM     21  C   UNL     1     -14.941  -9.615  20.760  0.00  0.00    +0.016 C 
ATOM     22  C   UNL     1     -11.118 -10.489  18.673  0.00  0.00    +0.015 A 
ATOM     25  C   UNL     1      -8.776 -10.406  18.174  0.00  0.00    +0.165 A 
ATOM     28  C   UNL     1      -6.430 -10.072  17.428  0.00  0.00    +0.256 C 
ATOM     40  H   UNL     1      -7.151 -11.364  18.902  0.00  0.00    +0.157 HD
ENDROOT
BRANCH  15   2
ATOM      2  O   UNL     1     -17.154  -8.716  18.995  0.00  0.00    -0.391 OA
ATOM     38  H   UNL     1     -17.579  -7.842  18.974  0.00  0.00    +0.210 HD
ENDBRANCH  15   2
BRANCH  12  20
ATOM     20  C   UNL     1     -15.592 -11.082  18.884  0.00  0.00    +0.165 C 
BRANCH  20   3
ATOM      3  O   UNL     1     -16.585 -11.322  19.855  0.00  0.00    -0.394 OA
ATOM     39  H   UNL     1     -17.348 -10.755  19.653  0.00  0.00    +0.209 HD
ENDBRANCH  20   3
ENDBRANCH  12  20
BRANCH  13  23
ATOM     23  C   UNL     1     -11.343  -8.516  15.482  0.00  0.00    +0.106 C 
BRANCH  23  24
ATOM      4  O   UNL     1     -10.642  -6.239  15.744  0.00  0.00    -0.276 OA
ATOM      8  N   UNL     1     -12.111  -6.691  14.007  0.00  0.00    -0.301 N 
ATOM     24  C   UNL     1     -11.321  -7.047  15.106  0.00  0.00    +0.216 C 
ATOM     27  C   UNL     1     -12.907  -7.664  13.268  0.00  0.00    +0.132 C 
BRANCH   8  26
ATOM     26  C   UNL     1     -12.198  -5.317  13.519  0.00  0.00    +0.134 C 
BRANCH  26  29
ATOM     29  C   UNL     1     -13.606  -4.838  13.656  0.00  0.00    -0.016 C 
ATOM     31  C   UNL     1     -14.125  -3.834  12.941  0.00  0.00    +0.005 C 
ENDBRANCH  26  29
ENDBRANCH   8  26
ENDBRANCH  23  24
ENDBRANCH  13  23
BRANCH  28  30
ATOM     30  C   UNL     1      -5.058 -10.623  17.773  0.00  0.00    +0.324 C 
BRANCH  30   6
ATOM      6  O   UNL     1      -4.623 -11.542  16.794  0.00  0.00    -0.483 OA
BRANCH   6  32
ATOM     32  C   UNL     1      -3.663 -11.111  15.910  0.00  0.00    +0.121 A 
ATOM     33  C   UNL     1      -2.402 -10.772  16.382  0.00  0.00    +0.045 A 
ATOM     34  C   UNL     1      -3.968 -11.020  14.560  0.00  0.00    +0.045 A 
ATOM     35  C   UNL     1      -1.428 -10.333  15.486  0.00  0.00    +0.004 A 
ATOM     36  C   UNL     1      -2.994 -10.581  13.663  0.00  0.00    +0.004 A 
ATOM     37  C   UNL     1      -1.724 -10.238  14.125  0.00  0.00    +0.000 A 
ENDBRANCH   6  32
ENDBRANCH  30   6
ENDBRANCH  28  30
TORSDOF 10
ENDMDL
MODEL 8
REMARK VINA RESULT:      -6.0      3.039      5.403
REMARK  Name = 11882950
REMARK  13 active torsions:
REMARK  status: ('A' for Active; 'I' for Inactive)
REMARK    1  A    between atoms: O_2  and  C_15
REMARK    2  A    between atoms: O_3  and  C_20
REMARK    3  A    between atoms: O_6  and  C_30
REMARK    4  A    between atoms: O_6  and  C_32
REMARK    5  A    between atoms: N_8  and  C_26
REMARK    6  A    between atoms: N_8  and  C_27
REMARK    7  A    between atoms: C_10  and  C_18
REMARK    8  A    between atoms: C_12  and  C_20
REMARK    9  A    between atoms: C_12  and  C_21
REMARK   10  A    between atoms: C_13  and  C_23
REMARK   11  A    between atoms: C_23  and  C_24
REMARK   12  A    between atoms: C_26  and  C_29
REMARK   13  A    between atoms: C_28  and  C_30
REMARK                            x       y       z     vdW  Elec       q    Type
REMARK                         _______ _______ _______ _____ _____    ______ ____
ROOT
ATOM      1  S   UNL     1     -10.038  -8.204  17.420  0.00  0.00    -0.057 S 
ATOM      5  O   UNL     1     -11.824  -7.408  13.185  0.00  0.00    -0.272 OA
ATOM      7  N   UNL     1      -9.843  -8.796  14.909  0.00  0.00    -0.229 NA
ATOM      9  N   UNL     1     -11.566  -7.227  15.525  0.00  0.00    -0.262 N 
ATOM     10  C   UNL     1      -6.670 -10.812  15.764  0.00  0.00    -0.019 C 
ATOM     11  C   UNL     1      -7.201 -11.181  17.218  0.00  0.00    +0.011 C 
ATOM     12  C   UNL     1      -6.211 -11.962  18.166  0.00  0.00    +0.021 C 
ATOM     13  C   UNL     1      -7.932 -10.441  14.857  0.00  0.00    +0.054 C 
ATOM     14  C   UNL     1      -5.966 -12.046  15.143  0.00  0.00    +0.010 C 
ATOM     15  C   UNL     1      -5.562 -13.133  17.376  0.00  0.00    +0.123 C 
ATOM     16  C   UNL     1      -7.889  -9.962  17.900  0.00  0.00    +0.049 C 
ATOM     17  C   UNL     1      -4.936 -12.694  16.056  0.00  0.00    +0.032 C 
ATOM     18  C   UNL     1      -5.674  -9.625  15.771  0.00  0.00    +0.012 C 
ATOM     19  C   UNL     1      -8.861  -9.500  15.580  0.00  0.00    +0.058 A 
ATOM     21  C   UNL     1      -7.018 -12.587  19.339  0.00  0.00    +0.016 C 
ATOM     22  C   UNL     1      -8.837  -9.314  16.948  0.00  0.00    +0.015 A 
ATOM     25  C   UNL     1     -10.518  -8.073  15.775  0.00  0.00    +0.165 A 
ATOM     28  C   UNL     1     -12.146  -6.948  14.274  0.00  0.00    +0.256 C 
ATOM     40  H   UNL     1     -11.949  -6.763  16.345  0.00  0.00    +0.157 HD
ENDROOT
BRANCH  15   2
ATOM      2  O   UNL     1      -4.565 -13.781  18.164  0.00  0.00    -0.391 OA
ATOM     38  H   UNL     1      -4.796 -13.659  19.100  0.00  0.00    +0.210 HD
ENDBRANCH  15   2
BRANCH  12  20
ATOM     20  C   UNL     1      -5.129 -11.081  18.830  0.00  0.00    +0.165 C 
BRANCH  20   3
ATOM      3  O   UNL     1      -4.769 -11.687  20.050  0.00  0.00    -0.394 OA
ATOM     39  H   UNL     1      -3.893 -12.093  19.938  0.00  0.00    +0.209 HD
ENDBRANCH  20   3
ENDBRANCH  12  20
BRANCH  13  23
ATOM     23  C   UNL     1      -7.580  -9.919  13.458  0.00  0.00    +0.106 C 
BRANCH  23  24
ATOM      4  O   UNL     1      -8.633 -11.909  12.634  0.00  0.00    -0.276 OA
ATOM      8  N   UNL     1      -7.778 -10.443  11.053  0.00  0.00    -0.301 N 
ATOM     24  C   UNL     1      -8.050 -10.856  12.362  0.00  0.00    +0.216 C 
ATOM     27  C   UNL     1      -7.087  -9.194  10.756  0.00  0.00    +0.132 C 
BRANCH   8  26
ATOM     26  C   UNL     1      -8.165 -11.233   9.887  0.00  0.00    +0.134 C 
BRANCH  26  29
ATOM     29  C   UNL     1      -6.999 -12.051   9.442  0.00  0.00    -0.016 C 
ATOM     31  C   UNL     1      -6.362 -11.873   8.278  0.00  0.00    +0.005 C 
ENDBRANCH  26  29
ENDBRANCH   8  26
ENDBRANCH  23  24
ENDBRANCH  13  23
BRANCH  28  30
ATOM     30  C   UNL     1     -13.289  -5.956  14.406  0.00  0.00    +0.324 C 
BRANCH  30   6
ATOM      6  O   UNL     1     -12.859  -4.648  14.099  0.00  0.00    -0.483 OA
BRANCH   6  32
ATOM     32  C   UNL     1     -13.272  -4.115  12.901  0.00  0.00    +0.121 A 
ATOM     33  C   UNL     1     -14.567  -3.628  12.781  0.00  0.00    +0.045 A 
ATOM     34  C   UNL     1     -12.391  -4.074  11.830  0.00  0.00    +0.045 A 
ATOM     35  C   UNL     1     -14.986  -3.089  11.565  0.00  0.00    +0.004 A 
ATOM     36  C   UNL     1     -12.811  -3.535  10.615  0.00  0.00    +0.004 A 
ATOM     37  C   UNL     1     -14.109  -3.041  10.481  0.00  0.00    +0.000 A 
ENDBRANCH   6  32
ENDBRANCH  30   6
ENDBRANCH  28  30
TORSDOF 10
ENDMDL
MODEL 9
REMARK VINA RESULT:      -6.0      3.351      4.725
REMARK  Name = 11882950
REMARK  13 active torsions:
REMARK  status: ('A' for Active; 'I' for Inactive)
REMARK    1  A    between atoms: O_2  and  C_15
REMARK    2  A    between atoms: O_3  and  C_20
REMARK    3  A    between atoms: O_6  and  C_30
REMARK    4  A    between atoms: O_6  and  C_32
REMARK    5  A    between atoms: N_8  and  C_26
REMARK    6  A    between atoms: N_8  and  C_27
REMARK    7  A    between atoms: C_10  and  C_18
REMARK    8  A    between atoms: C_12  and  C_20
REMARK    9  A    between atoms: C_12  and  C_21
REMARK   10  A    between atoms: C_13  and  C_23
REMARK   11  A    between atoms: C_23  and  C_24
REMARK   12  A    between atoms: C_26  and  C_29
REMARK   13  A    between atoms: C_28  and  C_30
REMARK                            x       y       z     vdW  Elec       q    Type
REMARK                         _______ _______ _______ _____ _____    ______ ____
ROOT
ATOM      1  S   UNL     1      -5.390 -10.989  12.656  0.00  0.00    -0.057 S 
ATOM      5  O   UNL     1      -8.491  -8.421  10.301  0.00  0.00    -0.272 OA
ATOM      7  N   UNL     1      -7.556  -9.590  12.866  0.00  0.00    -0.229 NA
ATOM      9  N   UNL     1      -6.588  -9.771  10.666  0.00  0.00    -0.262 N 
ATOM     10  C   UNL     1      -7.772 -10.716  16.547  0.00  0.00    -0.019 C 
ATOM     11  C   UNL     1      -6.189 -10.817  16.691  0.00  0.00    +0.011 C 
ATOM     12  C   UNL     1      -5.629 -11.385  18.052  0.00  0.00    +0.021 C 
ATOM     13  C   UNL     1      -8.094  -9.739  15.326  0.00  0.00    +0.054 C 
ATOM     14  C   UNL     1      -8.369 -10.101  17.839  0.00  0.00    +0.010 C 
ATOM     15  C   UNL     1      -6.364 -10.697  19.236  0.00  0.00    +0.123 C 
ATOM     16  C   UNL     1      -5.543 -11.460  15.429  0.00  0.00    +0.049 C 
ATOM     17  C   UNL     1      -7.883 -10.762  19.120  0.00  0.00    +0.032 C 
ATOM     18  C   UNL     1      -8.441 -12.091  16.297  0.00  0.00    +0.012 C 
ATOM     19  C   UNL     1      -7.250 -10.074  14.124  0.00  0.00    +0.058 A 
ATOM     21  C   UNL     1      -4.121 -11.022  18.170  0.00  0.00    +0.016 C 
ATOM     22  C   UNL     1      -6.099 -10.833  14.196  0.00  0.00    +0.015 A 
ATOM     25  C   UNL     1      -6.651 -10.015  12.013  0.00  0.00    +0.165 A 
ATOM     28  C   UNL     1      -7.490  -9.007   9.903  0.00  0.00    +0.256 C 
ATOM     40  H   UNL     1      -5.798 -10.197  10.188  0.00  0.00    +0.157 HD
ENDROOT
BRANCH  15   2
ATOM      2  O   UNL     1      -5.973 -11.280  20.478  0.00  0.00    -0.391 OA
ATOM     38  H   UNL     1      -6.445 -12.124  20.576  0.00  0.00    +0.210 HD
ENDBRANCH  15   2
BRANCH  12  20
ATOM     20  C   UNL     1      -5.697 -12.923  18.181  0.00  0.00    +0.165 C 
BRANCH  20   3
ATOM      3  O   UNL     1      -4.427 -13.378  18.589  0.00  0.00    -0.394 OA
ATOM     39  H   UNL     1      -3.764 -12.733  18.290  0.00  0.00    +0.209 HD
ENDBRANCH  20   3
ENDBRANCH  12  20
BRANCH  13  23
ATOM     23  C   UNL     1      -9.581  -9.646  14.959  0.00  0.00    +0.106 C 
BRANCH  23  24
ATOM      4  O   UNL     1      -9.606  -7.482  15.991  0.00  0.00    -0.276 OA
ATOM      8  N   UNL     1     -11.293  -7.936  14.464  0.00  0.00    -0.301 N 
ATOM     24  C   UNL     1     -10.145  -8.258  15.197  0.00  0.00    +0.216 C 
ATOM     27  C   UNL     1     -11.912  -8.869  13.532  0.00  0.00    +0.132 C 
BRANCH   8  26
ATOM     26  C   UNL     1     -11.956  -6.639  14.579  0.00  0.00    +0.134 C 
BRANCH  26  29
ATOM     29  C   UNL     1     -12.787  -6.624  15.819  0.00  0.00    -0.016 C 
ATOM     31  C   UNL     1     -14.091  -6.924  15.847  0.00  0.00    +0.005 C 
ENDBRANCH  26  29
ENDBRANCH   8  26
ENDBRANCH  23  24
ENDBRANCH  13  23
BRANCH  28  30
ATOM     30  C   UNL     1      -7.082  -8.969   8.441  0.00  0.00    +0.324 C 
BRANCH  30   6
ATOM      6  O   UNL     1      -5.820  -9.574   8.255  0.00  0.00    -0.483 OA
BRANCH   6  32
ATOM     32  C   UNL     1      -5.640 -10.309   7.107  0.00  0.00    +0.121 A 
ATOM     33  C   UNL     1      -6.461 -10.078   6.012  0.00  0.00    +0.045 A 
ATOM     34  C   UNL     1      -4.641 -11.271   7.061  0.00  0.00    +0.045 A 
ATOM     35  C   UNL     1      -6.279 -10.824   4.848  0.00  0.00    +0.004 A 
ATOM     36  C   UNL     1      -4.459 -12.017   5.897  0.00  0.00    +0.004 A 
ATOM     37  C   UNL     1      -5.278 -11.794   4.789  0.00  0.00    +0.000 A 
ENDBRANCH   6  32
ENDBRANCH  30   6
ENDBRANCH  28  30
TORSDOF 10
ENDMDL
MODEL 10
REMARK VINA RESULT:      -5.8     26.684     30.923
REMARK  Name = 11882950
REMARK  13 active torsions:
REMARK  status: ('A' for Active; 'I' for Inactive)
REMARK    1  A    between atoms: O_2  and  C_15
REMARK    2  A    between atoms: O_3  and  C_20
REMARK    3  A    between atoms: O_6  and  C_30
REMARK    4  A    between atoms: O_6  and  C_32
REMARK    5  A    between atoms: N_8  and  C_26
REMARK    6  A    between atoms: N_8  and  C_27
REMARK    7  A    between atoms: C_10  and  C_18
REMARK    8  A    between atoms: C_12  and  C_20
REMARK    9  A    between atoms: C_12  and  C_21
REMARK   10  A    between atoms: C_13  and  C_23
REMARK   11  A    between atoms: C_23  and  C_24
REMARK   12  A    between atoms: C_26  and  C_29
REMARK   13  A    between atoms: C_28  and  C_30
REMARK                            x       y       z     vdW  Elec       q    Type
REMARK                         _______ _______ _______ _____ _____    ______ ____
ROOT
ATOM      1  S   UNL     1      17.977  -9.453  -2.099  0.00  0.00    -0.057 S 
ATOM      5  O   UNL     1      20.343 -10.869   1.662  0.00  0.00    -0.272 OA
ATOM      7  N   UNL     1      19.544  -8.688  -0.188  0.00  0.00    -0.229 NA
ATOM      9  N   UNL     1      18.942 -11.021  -0.232  0.00  0.00    -0.262 N 
ATOM     10  C   UNL     1      19.687  -5.220  -1.869  0.00  0.00    -0.019 C 
ATOM     11  C   UNL     1      18.214  -5.358  -2.457  0.00  0.00    +0.011 C 
ATOM     12  C   UNL     1      17.713  -4.204  -3.409  0.00  0.00    +0.021 C 
ATOM     13  C   UNL     1      19.818  -6.219  -0.629  0.00  0.00    +0.054 C 
ATOM     14  C   UNL     1      19.905  -3.773  -1.357  0.00  0.00    +0.010 C 
ATOM     15  C   UNL     1      18.050  -2.828  -2.769  0.00  0.00    +0.123 C 
ATOM     16  C   UNL     1      17.955  -6.788  -3.014  0.00  0.00    +0.049 C 
ATOM     17  C   UNL     1      19.513  -2.698  -2.359  0.00  0.00    +0.032 C 
ATOM     18  C   UNL     1      20.784  -5.549  -2.912  0.00  0.00    +0.012 C 
ATOM     19  C   UNL     1      19.267  -7.580  -0.968  0.00  0.00    +0.058 A 
ATOM     21  C   UNL     1      16.165  -4.288  -3.536  0.00  0.00    +0.016 C 
ATOM     22  C   UNL     1      18.418  -7.810  -2.032  0.00  0.00    +0.015 A 
ATOM     25  C   UNL     1      18.925  -9.732  -0.694  0.00  0.00    +0.165 A 
ATOM     28  C   UNL     1      19.634 -11.507   0.892  0.00  0.00    +0.256 C 
ATOM     40  H   UNL     1      18.389 -11.680  -0.775  0.00  0.00    +0.157 HD
ENDROOT
BRANCH  15   2
ATOM      2  O   UNL     1      17.726  -1.765  -3.663  0.00  0.00    -0.391 OA
ATOM     38  H   UNL     1      16.885  -1.374  -3.373  0.00  0.00    +0.210 HD
ENDBRANCH  15   2
BRANCH  12  20
ATOM     20  C   UNL     1      18.253  -4.286  -4.854  0.00  0.00    +0.165 C 
BRANCH  20   3
ATOM      3  O   UNL     1      17.267  -3.761  -5.714  0.00  0.00    -0.394 OA
ATOM     39  H   UNL     1      17.675  -3.607  -6.583  0.00  0.00    +0.209 HD
ENDBRANCH  20   3
ENDBRANCH  12  20
BRANCH  13  23
ATOM     23  C   UNL     1      21.229  -6.317  -0.034  0.00  0.00    +0.106 C 
BRANCH  23  24
ATOM      4  O   UNL     1      20.677  -4.842   1.774  0.00  0.00    -0.276 OA
ATOM      8  N   UNL     1      22.026  -6.660   2.278  0.00  0.00    -0.301 N 
ATOM     24  C   UNL     1      21.274  -5.859   1.411  0.00  0.00    +0.216 C 
ATOM     27  C   UNL     1      22.723  -7.858   1.827  0.00  0.00    +0.132 C 
BRANCH   8  26
ATOM     26  C   UNL     1      22.168  -6.356   3.700  0.00  0.00    +0.134 C 
BRANCH  26  29
ATOM     29  C   UNL     1      22.066  -7.623   4.483  0.00  0.00    -0.016 C 
ATOM     31  C   UNL     1      21.793  -7.671   5.792  0.00  0.00    +0.005 C 
ENDBRANCH  26  29
ENDBRANCH   8  26
ENDBRANCH  23  24
ENDBRANCH  13  23
BRANCH  28  30
ATOM     30  C   UNL     1      19.403 -12.996   1.081  0.00  0.00    +0.324 C 
BRANCH  30   6
ATOM      6  O   UNL     1      18.092 -13.355   0.704  0.00  0.00    -0.483 OA
BRANCH   6  32
ATOM     32  C   UNL     1      17.145 -13.411   1.700  0.00  0.00    +0.121 A 
ATOM     33  C   UNL     1      16.973 -14.591   2.411  0.00  0.00    +0.045 A 
ATOM     34  C   UNL     1      16.377 -12.290   1.978  0.00  0.00    +0.045 A 
ATOM     35  C   UNL     1      16.012 -14.649   3.421  0.00  0.00    +0.004 A 
ATOM     36  C   UNL     1      15.417 -12.348   2.988  0.00  0.00    +0.004 A 
ATOM     37  C   UNL     1      15.234 -13.527   3.710  0.00  0.00    +0.000 A 
ENDBRANCH   6  32
ENDBRANCH  30   6
ENDBRANCH  28  30
TORSDOF 10
ENDMDL
