MODEL 1
REMARK VINA RESULT:      -7.2      0.000      0.000
REMARK  Name = 40780076
REMARK  7 active torsions:
REMARK  status: ('A' for Active; 'I' for Inactive)
REMARK    1  A    between atoms: O_2  and  C_16
REMARK    2  A    between atoms: O_2  and  C_21
REMARK    3  A    between atoms: N_5  and  C_19
REMARK    4  A    between atoms: N_7  and  C_25
REMARK    5  A    between atoms: C_9  and  C_15
REMARK    6  A    between atoms: C_10  and  C_16
REMARK    7  A    between atoms: C_18  and  C_20
REMARK                            x       y       z     vdW  Elec       q    Type
REMARK                         _______ _______ _______ _____ _____    ______ ____
ROOT
ATOM      4  N   UNL     1      -5.847 -10.368  17.955  0.00  0.00    -0.296 NA
ATOM      8  C   UNL     1      -4.731 -12.395  16.760  0.00  0.00    +0.002 C 
ATOM      9  C   UNL     1      -3.979 -11.080  16.416  0.00  0.00    +0.055 C 
ATOM     10  C   UNL     1      -6.878 -11.169  17.246  0.00  0.00    +0.095 C 
ATOM     11  C   UNL     1      -6.217 -12.251  16.365  0.00  0.00    +0.026 C 
ATOM     12  C   UNL     1      -4.683 -12.547  18.295  0.00  0.00    +0.019 C 
ATOM     13  C   UNL     1      -4.814  -9.903  16.994  0.00  0.00    +0.094 C 
ATOM     14  C   UNL     1      -5.190 -11.249  18.949  0.00  0.00    +0.085 C 
ENDROOT
BRANCH   9  15
ATOM      5  N   UNL     1      -2.281 -10.624  14.585  0.00  0.00    -0.270 N 
ATOM      6  N   UNL     1      -2.132 -10.435  13.263  0.00  0.00    -0.171 NA
ATOM     15  C   UNL     1      -3.572 -10.842  14.968  0.00  0.00    +0.044 A 
ATOM     17  C   UNL     1      -4.319 -10.792  13.817  0.00  0.00    +0.053 A 
ATOM     18  C   UNL     1      -3.381 -10.538  12.799  0.00  0.00    +0.100 A 
ATOM     19  C   UNL     1      -1.116 -10.583  15.439  0.00  0.00    +0.172 C 
BRANCH  18  20
ATOM      1  S   UNL     1      -4.243 -11.685  10.383  0.00  0.00    -0.095 S 
ATOM     20  C   UNL     1      -3.690 -10.396  11.365  0.00  0.00    +0.039 A 
ATOM     22  C   UNL     1      -3.569  -9.220  10.657  0.00  0.00    +0.018 A 
ATOM     23  C   UNL     1      -3.937  -9.381   9.289  0.00  0.00    +0.008 A 
ATOM     24  C   UNL     1      -4.323 -10.671   9.005  0.00  0.00    +0.046 A 
ENDBRANCH  18  20
ENDBRANCH   9  15
BRANCH  10  16
ATOM     16  C   UNL     1      -7.846 -10.296  16.445  0.00  0.00    +0.252 C 
BRANCH  16   2
ATOM      2  O   UNL     1      -7.985  -9.056  17.111  0.00  0.00    -0.449 OA
BRANCH   2  21
ATOM      3  O   UNL     1      -9.754  -7.609  17.168  0.00  0.00    -0.226 OA
ATOM      7  N   UNL     1      -9.841  -9.705  18.208  0.00  0.00    -0.251 N 
ATOM     21  C   UNL     1      -9.260  -8.687  17.475  0.00  0.00    +0.405 C 
ATOM     31  H   UNL     1      -9.268 -10.532  18.361  0.00  0.00    +0.158 HD
BRANCH   7  25
ATOM     25  C   UNL     1     -11.136  -9.741  18.772  0.00  0.00    +0.036 A 
ATOM     26  C   UNL     1     -11.291  -9.893  20.150  0.00  0.00    +0.023 A 
ATOM     27  C   UNL     1     -12.258  -9.623  17.952  0.00  0.00    +0.023 A 
ATOM     28  C   UNL     1     -12.569  -9.929  20.708  0.00  0.00    +0.002 A 
ATOM     29  C   UNL     1     -13.536  -9.657  18.511  0.00  0.00    +0.002 A 
ATOM     30  C   UNL     1     -13.691  -9.810  19.888  0.00  0.00    +0.000 A 
ENDBRANCH   7  25
ENDBRANCH   2  21
ENDBRANCH  16   2
ENDBRANCH  10  16
TORSDOF 6
ENDMDL
MODEL 2
REMARK VINA RESULT:      -7.1      1.893      2.293
REMARK  Name = 40780076
REMARK  7 active torsions:
REMARK  status: ('A' for Active; 'I' for Inactive)
REMARK    1  A    between atoms: O_2  and  C_16
REMARK    2  A    between atoms: O_2  and  C_21
REMARK    3  A    between atoms: N_5  and  C_19
REMARK    4  A    between atoms: N_7  and  C_25
REMARK    5  A    between atoms: C_9  and  C_15
REMARK    6  A    between atoms: C_10  and  C_16
REMARK    7  A    between atoms: C_18  and  C_20
REMARK                            x       y       z     vdW  Elec       q    Type
REMARK                         _______ _______ _______ _____ _____    ______ ____
ROOT
ATOM      4  N   UNL     1      -6.579 -10.684  17.958  0.00  0.00    -0.296 NA
ATOM      8  C   UNL     1      -4.386 -12.021  17.525  0.00  0.00    +0.002 C 
ATOM      9  C   UNL     1      -4.351 -10.662  16.774  0.00  0.00    +0.055 C 
ATOM     10  C   UNL     1      -6.905 -12.073  17.541  0.00  0.00    +0.095 C 
ATOM     11  C   UNL     1      -5.633 -12.817  17.081  0.00  0.00    +0.026 C 
ATOM     12  C   UNL     1      -4.565 -11.698  19.023  0.00  0.00    +0.019 C 
ATOM     13  C   UNL     1      -5.760 -10.018  16.914  0.00  0.00    +0.094 C 
ATOM     14  C   UNL     1      -5.772 -10.760  19.199  0.00  0.00    +0.085 C 
ENDROOT
BRANCH   9  15
ATOM      5  N   UNL     1      -2.527 -10.597  15.010  0.00  0.00    -0.270 N 
ATOM      6  N   UNL     1      -2.294 -10.591  13.687  0.00  0.00    -0.171 NA
ATOM     15  C   UNL     1      -3.851 -10.646  15.336  0.00  0.00    +0.044 A 
ATOM     17  C   UNL     1      -4.530 -10.676  14.143  0.00  0.00    +0.053 A 
ATOM     18  C   UNL     1      -3.522 -10.639  13.162  0.00  0.00    +0.100 A 
ATOM     19  C   UNL     1      -1.408 -10.553  15.923  0.00  0.00    +0.172 C 
BRANCH  18  20
ATOM      1  S   UNL     1      -3.808 -12.085  10.770  0.00  0.00    -0.095 S 
ATOM     20  C   UNL     1      -3.742 -10.652  11.705  0.00  0.00    +0.039 A 
ATOM     22  C   UNL     1      -3.919  -9.523  10.935  0.00  0.00    +0.018 A 
ATOM     23  C   UNL     1      -4.112  -9.840   9.558  0.00  0.00    +0.008 A 
ATOM     24  C   UNL     1      -4.074 -11.198   9.330  0.00  0.00    +0.046 A 
ENDBRANCH  18  20
ENDBRANCH   9  15
BRANCH  10  16
ATOM     16  C   UNL     1      -8.007 -12.119  16.480  0.00  0.00    +0.252 C 
BRANCH  16   2
ATOM      2  O   UNL     1      -9.138 -11.432  16.980  0.00  0.00    -0.449 OA
BRANCH   2  21
ATOM      3  O   UNL     1      -9.236 -10.166  15.078  0.00  0.00    -0.226 OA
ATOM      7  N   UNL     1     -10.515  -9.651  16.971  0.00  0.00    -0.251 N 
ATOM     21  C   UNL     1      -9.605 -10.378  16.227  0.00  0.00    +0.405 C 
ATOM     31  H   UNL     1     -10.694  -9.987  17.914  0.00  0.00    +0.158 HD
BRANCH   7  25
ATOM     25  C   UNL     1     -11.231  -8.497  16.582  0.00  0.00    +0.036 A 
ATOM     26  C   UNL     1     -12.558  -8.608  16.164  0.00  0.00    +0.023 A 
ATOM     27  C   UNL     1     -10.613  -7.247  16.617  0.00  0.00    +0.023 A 
ATOM     28  C   UNL     1     -13.266  -7.469  15.780  0.00  0.00    +0.002 A 
ATOM     29  C   UNL     1     -11.322  -6.108  16.234  0.00  0.00    +0.002 A 
ATOM     30  C   UNL     1     -12.647  -6.219  15.815  0.00  0.00    +0.000 A 
ENDBRANCH   7  25
ENDBRANCH   2  21
ENDBRANCH  16   2
ENDBRANCH  10  16
TORSDOF 6
ENDMDL
MODEL 3
REMARK VINA RESULT:      -7.0      2.845      5.994
REMARK  Name = 40780076
REMARK  7 active torsions:
REMARK  status: ('A' for Active; 'I' for Inactive)
REMARK    1  A    between atoms: O_2  and  C_16
REMARK    2  A    between atoms: O_2  and  C_21
REMARK    3  A    between atoms: N_5  and  C_19
REMARK    4  A    between atoms: N_7  and  C_25
REMARK    5  A    between atoms: C_9  and  C_15
REMARK    6  A    between atoms: C_10  and  C_16
REMARK    7  A    between atoms: C_18  and  C_20
REMARK                            x       y       z     vdW  Elec       q    Type
REMARK                         _______ _______ _______ _____ _____    ______ ____
ROOT
ATOM      4  N   UNL     1      -6.130 -10.510   9.492  0.00  0.00    -0.296 NA
ATOM      8  C   UNL     1      -4.184  -9.075  10.460  0.00  0.00    +0.002 C 
ATOM      9  C   UNL     1      -4.159 -10.505  11.067  0.00  0.00    +0.055 C 
ATOM     10  C   UNL     1      -6.654  -9.205   9.975  0.00  0.00    +0.095 C 
ATOM     11  C   UNL     1      -5.558  -8.427  10.737  0.00  0.00    +0.026 C 
ATOM     12  C   UNL     1      -4.060  -9.238   8.931  0.00  0.00    +0.019 C 
ATOM     13  C   UNL     1      -5.454 -11.229  10.602  0.00  0.00    +0.094 C 
ATOM     14  C   UNL     1      -5.125 -10.235   8.439  0.00  0.00    +0.085 C 
ENDROOT
BRANCH   9  15
ATOM      5  N   UNL     1      -2.698 -10.502  13.143  0.00  0.00    -0.270 N 
ATOM      6  N   UNL     1      -2.704 -10.667  14.476  0.00  0.00    -0.171 NA
ATOM     15  C   UNL     1      -3.925 -10.646  12.565  0.00  0.00    +0.044 A 
ATOM     17  C   UNL     1      -4.794 -10.923  13.591  0.00  0.00    +0.053 A 
ATOM     18  C   UNL     1      -3.987 -10.924  14.745  0.00  0.00    +0.100 A 
ATOM     19  C   UNL     1      -1.452 -10.202  12.475  0.00  0.00    +0.172 C 
BRANCH  18  20
ATOM      1  S   UNL     1      -4.668 -12.738  16.780  0.00  0.00    -0.095 S 
ATOM     20  C   UNL     1      -4.457 -11.173  16.120  0.00  0.00    +0.039 A 
ATOM     22  C   UNL     1      -4.778 -10.183  17.022  0.00  0.00    +0.018 A 
ATOM     23  C   UNL     1      -5.202 -10.718  18.274  0.00  0.00    +0.008 A 
ATOM     24  C   UNL     1      -5.190 -12.095  18.278  0.00  0.00    +0.046 A 
ENDBRANCH  18  20
ENDBRANCH   9  15
BRANCH  10  16
ATOM     16  C   UNL     1      -7.927  -9.360  10.809  0.00  0.00    +0.252 C 
BRANCH  16   2
ATOM      2  O   UNL     1      -7.618  -9.058  12.156  0.00  0.00    -0.449 OA
BRANCH   2  21
ATOM      3  O   UNL     1      -9.439 -10.242  12.869  0.00  0.00    -0.226 OA
ATOM      7  N   UNL     1      -7.764  -9.546  14.349  0.00  0.00    -0.251 N 
ATOM     21  C   UNL     1      -8.382  -9.676  13.120  0.00  0.00    +0.405 C 
ATOM     31  H   UNL     1      -6.882  -9.039  14.357  0.00  0.00    +0.158 HD
BRANCH   7  25
ATOM     25  C   UNL     1      -8.205 -10.033  15.600  0.00  0.00    +0.036 A 
ATOM     26  C   UNL     1      -8.668  -9.143  16.570  0.00  0.00    +0.023 A 
ATOM     27  C   UNL     1      -8.179 -11.402  15.865  0.00  0.00    +0.023 A 
ATOM     28  C   UNL     1      -9.103  -9.623  17.806  0.00  0.00    +0.002 A 
ATOM     29  C   UNL     1      -8.615 -11.881  17.100  0.00  0.00    +0.002 A 
ATOM     30  C   UNL     1      -9.077 -10.992  18.070  0.00  0.00    +0.000 A 
ENDBRANCH   7  25
ENDBRANCH   2  21
ENDBRANCH  16   2
ENDBRANCH  10  16
TORSDOF 6
ENDMDL
MODEL 4
REMARK VINA RESULT:      -7.0      2.825      8.020
REMARK  Name = 40780076
REMARK  7 active torsions:
REMARK  status: ('A' for Active; 'I' for Inactive)
REMARK    1  A    between atoms: O_2  and  C_16
REMARK    2  A    between atoms: O_2  and  C_21
REMARK    3  A    between atoms: N_5  and  C_19
REMARK    4  A    between atoms: N_7  and  C_25
REMARK    5  A    between atoms: C_9  and  C_15
REMARK    6  A    between atoms: C_10  and  C_16
REMARK    7  A    between atoms: C_18  and  C_20
REMARK                            x       y       z     vdW  Elec       q    Type
REMARK                         _______ _______ _______ _____ _____    ______ ____
ROOT
ATOM      4  N   UNL     1      -5.242 -12.730  17.045  0.00  0.00    -0.296 NA
ATOM      8  C   UNL     1      -5.575 -10.643  18.566  0.00  0.00    +0.002 C 
ATOM      9  C   UNL     1      -6.932 -11.360  18.324  0.00  0.00    +0.055 C 
ATOM     10  C   UNL     1      -4.591 -11.545  16.429  0.00  0.00    +0.095 C 
ATOM     11  C   UNL     1      -4.951 -10.260  17.207  0.00  0.00    +0.026 C 
ATOM     12  C   UNL     1      -4.635 -11.676  19.221  0.00  0.00    +0.019 C 
ATOM     13  C   UNL     1      -6.688 -12.464  17.256  0.00  0.00    +0.094 C 
ATOM     14  C   UNL     1      -4.616 -12.957  18.369  0.00  0.00    +0.085 C 
ENDROOT
BRANCH   9  15
ATOM      5  N   UNL     1      -9.304 -10.555  18.728  0.00  0.00    -0.270 N 
ATOM      6  N   UNL     1     -10.262  -9.725  18.283  0.00  0.00    -0.171 NA
ATOM     15  C   UNL     1      -8.150 -10.506  18.003  0.00  0.00    +0.044 A 
ATOM     17  C   UNL     1      -8.367  -9.578  17.015  0.00  0.00    +0.053 A 
ATOM     18  C   UNL     1      -9.683  -9.130  17.235  0.00  0.00    +0.100 A 
ATOM     19  C   UNL     1      -9.572 -11.386  19.881  0.00  0.00    +0.172 C 
BRANCH  18  20
ATOM      1  S   UNL     1     -10.890  -8.373  14.813  0.00  0.00    -0.095 S 
ATOM     20  C   UNL     1     -10.390  -8.117  16.431  0.00  0.00    +0.039 A 
ATOM     22  C   UNL     1     -10.726  -6.860  16.883  0.00  0.00    +0.018 A 
ATOM     23  C   UNL     1     -11.404  -6.097  15.888  0.00  0.00    +0.008 A 
ATOM     24  C   UNL     1     -11.559  -6.800  14.714  0.00  0.00    +0.046 A 
ENDBRANCH  18  20
ENDBRANCH   9  15
BRANCH  10  16
ATOM     16  C   UNL     1      -4.906 -11.415  14.938  0.00  0.00    +0.252 C 
BRANCH  16   2
ATOM      2  O   UNL     1      -5.569 -10.184  14.726  0.00  0.00    -0.449 OA
BRANCH   2  21
ATOM      3  O   UNL     1      -7.085  -9.493  13.161  0.00  0.00    -0.226 OA
ATOM      7  N   UNL     1      -4.924 -10.169  12.569  0.00  0.00    -0.251 N 
ATOM     21  C   UNL     1      -5.967  -9.907  13.437  0.00  0.00    +0.405 C 
ATOM     31  H   UNL     1      -4.063 -10.510  12.991  0.00  0.00    +0.158 HD
BRANCH   7  25
ATOM     25  C   UNL     1      -4.904 -10.021  11.164  0.00  0.00    +0.036 A 
ATOM     26  C   UNL     1      -4.072  -9.068  10.575  0.00  0.00    +0.023 A 
ATOM     27  C   UNL     1      -5.714 -10.828  10.366  0.00  0.00    +0.023 A 
ATOM     28  C   UNL     1      -4.052  -8.921   9.189  0.00  0.00    +0.002 A 
ATOM     29  C   UNL     1      -5.692 -10.682   8.979  0.00  0.00    +0.002 A 
ATOM     30  C   UNL     1      -4.862  -9.729   8.390  0.00  0.00    +0.000 A 
ENDBRANCH   7  25
ENDBRANCH   2  21
ENDBRANCH  16   2
ENDBRANCH  10  16
TORSDOF 6
ENDMDL
MODEL 5
REMARK VINA RESULT:      -6.8      3.023      7.384
REMARK  Name = 40780076
REMARK  7 active torsions:
REMARK  status: ('A' for Active; 'I' for Inactive)
REMARK    1  A    between atoms: O_2  and  C_16
REMARK    2  A    between atoms: O_2  and  C_21
REMARK    3  A    between atoms: N_5  and  C_19
REMARK    4  A    between atoms: N_7  and  C_25
REMARK    5  A    between atoms: C_9  and  C_15
REMARK    6  A    between atoms: C_10  and  C_16
REMARK    7  A    between atoms: C_18  and  C_20
REMARK                            x       y       z     vdW  Elec       q    Type
REMARK                         _______ _______ _______ _____ _____    ______ ____
ROOT
ATOM      4  N   UNL     1      -4.685 -12.501  17.091  0.00  0.00    -0.296 NA
ATOM      8  C   UNL     1      -5.815 -10.185  17.463  0.00  0.00    +0.002 C 
ATOM      9  C   UNL     1      -6.773 -11.140  16.699  0.00  0.00    +0.055 C 
ATOM     10  C   UNL     1      -3.769 -11.414  16.658  0.00  0.00    +0.095 C 
ATOM     11  C   UNL     1      -4.494 -10.050  16.676  0.00  0.00    +0.026 C 
ATOM     12  C   UNL     1      -5.478 -10.870  18.803  0.00  0.00    +0.019 C 
ATOM     13  C   UNL     1      -5.963 -12.418  16.340  0.00  0.00    +0.094 C 
ATOM     14  C   UNL     1      -4.981 -12.301  18.529  0.00  0.00    +0.085 C 
ENDROOT
BRANCH   9  15
ATOM      5  N   UNL     1      -8.803 -10.086  15.599  0.00  0.00    -0.270 N 
ATOM      6  N   UNL     1      -9.303  -9.649  14.431  0.00  0.00    -0.171 NA
ATOM     15  C   UNL     1      -7.538 -10.587  15.505  0.00  0.00    +0.044 A 
ATOM     17  C   UNL     1      -7.186 -10.469  14.183  0.00  0.00    +0.053 A 
ATOM     18  C   UNL     1      -8.310  -9.886  13.569  0.00  0.00    +0.100 A 
ATOM     19  C   UNL     1      -9.613  -9.989  16.792  0.00  0.00    +0.172 C 
BRANCH  18  20
ATOM      1  S   UNL     1      -9.909  -9.582  11.278  0.00  0.00    -0.095 S 
ATOM     20  C   UNL     1      -8.429  -9.551  12.138  0.00  0.00    +0.039 A 
ATOM     22  C   UNL     1      -7.372  -9.181  11.336  0.00  0.00    +0.018 A 
ATOM     23  C   UNL     1      -7.784  -8.917   9.997  0.00  0.00    +0.008 A 
ATOM     24  C   UNL     1      -9.139  -9.097   9.828  0.00  0.00    +0.046 A 
ENDBRANCH  18  20
ENDBRANCH   9  15
BRANCH  10  16
ATOM     16  C   UNL     1      -3.126 -11.699  15.300  0.00  0.00    +0.252 C 
BRANCH  16   2
ATOM      2  O   UNL     1      -2.771 -10.466  14.705  0.00  0.00    -0.449 OA
BRANCH   2  21
ATOM      3  O   UNL     1      -1.457 -10.545  12.836  0.00  0.00    -0.226 OA
ATOM      7  N   UNL     1      -3.788 -10.380  12.698  0.00  0.00    -0.251 N 
ATOM     21  C   UNL     1      -2.569 -10.470  13.343  0.00  0.00    +0.405 C 
ATOM     31  H   UNL     1      -4.610 -10.327  13.296  0.00  0.00    +0.158 HD
BRANCH   7  25
ATOM     25  C   UNL     1      -4.036 -10.354  11.307  0.00  0.00    +0.036 A 
ATOM     26  C   UNL     1      -3.835  -9.177  10.586  0.00  0.00    +0.023 A 
ATOM     27  C   UNL     1      -4.479 -11.505  10.656  0.00  0.00    +0.023 A 
ATOM     28  C   UNL     1      -4.080  -9.150   9.213  0.00  0.00    +0.002 A 
ATOM     29  C   UNL     1      -4.722 -11.478   9.282  0.00  0.00    +0.002 A 
ATOM     30  C   UNL     1      -4.523 -10.302   8.561  0.00  0.00    +0.000 A 
ENDBRANCH   7  25
ENDBRANCH   2  21
ENDBRANCH  16   2
ENDBRANCH  10  16
TORSDOF 6
ENDMDL
MODEL 6
REMARK VINA RESULT:      -6.7     24.331     27.676
REMARK  Name = 40780076
REMARK  7 active torsions:
REMARK  status: ('A' for Active; 'I' for Inactive)
REMARK    1  A    between atoms: O_2  and  C_16
REMARK    2  A    between atoms: O_2  and  C_21
REMARK    3  A    between atoms: N_5  and  C_19
REMARK    4  A    between atoms: N_7  and  C_25
REMARK    5  A    between atoms: C_9  and  C_15
REMARK    6  A    between atoms: C_10  and  C_16
REMARK    7  A    between atoms: C_18  and  C_20
REMARK                            x       y       z     vdW  Elec       q    Type
REMARK                         _______ _______ _______ _____ _____    ______ ____
ROOT
ATOM      4  N   UNL     1      13.722   5.752   1.398  0.00  0.00    -0.296 NA
ATOM      8  C   UNL     1      12.524   3.483   0.957  0.00  0.00    +0.002 C 
ATOM      9  C   UNL     1      12.710   4.266  -0.372  0.00  0.00    +0.055 C 
ATOM     10  C   UNL     1      12.580   5.590   2.336  0.00  0.00    +0.095 C 
ATOM     11  C   UNL     1      11.735   4.355   1.957  0.00  0.00    +0.026 C 
ATOM     12  C   UNL     1      13.932   3.272   1.551  0.00  0.00    +0.019 C 
ATOM     13  C   UNL     1      13.241   5.681  -0.005  0.00  0.00    +0.094 C 
ATOM     14  C   UNL     1      14.659   4.627   1.623  0.00  0.00    +0.085 C 
ENDROOT
BRANCH   9  15
ATOM      5  N   UNL     1      11.214   3.295  -2.178  0.00  0.00    -0.270 N 
ATOM      6  N   UNL     1      10.149   3.545  -2.957  0.00  0.00    -0.171 NA
ATOM     15  C   UNL     1      11.539   4.324  -1.343  0.00  0.00    +0.044 A 
ATOM     17  C   UNL     1      10.622   5.314  -1.593  0.00  0.00    +0.053 A 
ATOM     18  C   UNL     1       9.790   4.780  -2.596  0.00  0.00    +0.100 A 
ATOM     19  C   UNL     1      11.887   2.021  -2.290  0.00  0.00    +0.172 C 
BRANCH  18  20
ATOM      1  S   UNL     1       8.103   5.169  -4.809  0.00  0.00    -0.095 S 
ATOM     20  C   UNL     1       8.639   5.465  -3.210  0.00  0.00    +0.039 A 
ATOM     22  C   UNL     1       7.869   6.414  -2.573  0.00  0.00    +0.018 A 
ATOM     23  C   UNL     1       6.825   6.904  -3.411  0.00  0.00    +0.008 A 
ATOM     24  C   UNL     1       6.837   6.311  -4.654  0.00  0.00    +0.046 A 
ENDBRANCH  18  20
ENDBRANCH   9  15
BRANCH  10  16
ATOM     16  C   UNL     1      11.726   6.855   2.439  0.00  0.00    +0.252 C 
BRANCH  16   2
ATOM      2  O   UNL     1      10.587   6.562   3.225  0.00  0.00    -0.449 OA
BRANCH   2  21
ATOM      3  O   UNL     1      11.555   7.404   5.118  0.00  0.00    -0.226 OA
ATOM      7  N   UNL     1       9.830   5.823   5.213  0.00  0.00    -0.251 N 
ATOM     21  C   UNL     1      10.734   6.664   4.591  0.00  0.00    +0.405 C 
ATOM     31  H   UNL     1       9.224   5.283   4.600  0.00  0.00    +0.158 HD
BRANCH   7  25
ATOM     25  C   UNL     1       9.643   5.621   6.599  0.00  0.00    +0.036 A 
ATOM     26  C   UNL     1       9.946   4.384   7.169  0.00  0.00    +0.023 A 
ATOM     27  C   UNL     1       9.157   6.656   7.396  0.00  0.00    +0.023 A 
ATOM     28  C   UNL     1       9.761   4.183   8.537  0.00  0.00    +0.002 A 
ATOM     29  C   UNL     1       8.973   6.455   8.764  0.00  0.00    +0.002 A 
ATOM     30  C   UNL     1       9.275   5.220   9.334  0.00  0.00    +0.000 A 
ENDBRANCH   7  25
ENDBRANCH   2  21
ENDBRANCH  16   2
ENDBRANCH  10  16
TORSDOF 6
ENDMDL
MODEL 7
REMARK VINA RESULT:      -6.7      2.890      6.844
REMARK  Name = 40780076
REMARK  7 active torsions:
REMARK  status: ('A' for Active; 'I' for Inactive)
REMARK    1  A    between atoms: O_2  and  C_16
REMARK    2  A    between atoms: O_2  and  C_21
REMARK    3  A    between atoms: N_5  and  C_19
REMARK    4  A    between atoms: N_7  and  C_25
REMARK    5  A    between atoms: C_9  and  C_15
REMARK    6  A    between atoms: C_10  and  C_16
REMARK    7  A    between atoms: C_18  and  C_20
REMARK                            x       y       z     vdW  Elec       q    Type
REMARK                         _______ _______ _______ _____ _____    ______ ____
ROOT
ATOM      4  N   UNL     1      -6.797 -12.786  18.333  0.00  0.00    -0.296 NA
ATOM      8  C   UNL     1      -7.719 -10.360  18.123  0.00  0.00    +0.002 C 
ATOM      9  C   UNL     1      -8.212 -11.233  16.936  0.00  0.00    +0.055 C 
ATOM     10  C   UNL     1      -5.689 -11.807  18.488  0.00  0.00    +0.095 C 
ATOM     11  C   UNL     1      -6.176 -10.378  18.162  0.00  0.00    +0.026 C 
ATOM     12  C   UNL     1      -8.214 -11.043  19.415  0.00  0.00    +0.019 C 
ATOM     13  C   UNL     1      -7.465 -12.594  17.021  0.00  0.00    +0.094 C 
ATOM     14  C   UNL     1      -7.790 -12.522  19.400  0.00  0.00    +0.085 C 
ENDROOT
BRANCH   9  15
ATOM      5  N   UNL     1      -9.218  -9.967  14.980  0.00  0.00    -0.270 N 
ATOM      6  N   UNL     1      -8.978  -9.519  13.736  0.00  0.00    -0.171 NA
ATOM     15  C   UNL     1      -8.168 -10.637  15.536  0.00  0.00    +0.044 A 
ATOM     17  C   UNL     1      -7.172 -10.626  14.591  0.00  0.00    +0.053 A 
ATOM     18  C   UNL     1      -7.726  -9.925  13.503  0.00  0.00    +0.100 A 
ATOM     19  C   UNL     1     -10.504  -9.710  15.585  0.00  0.00    +0.172 C 
BRANCH  18  20
ATOM      1  S   UNL     1      -7.505 -10.333  10.732  0.00  0.00    -0.095 S 
ATOM     20  C   UNL     1      -7.043  -9.641  12.229  0.00  0.00    +0.039 A 
ATOM     22  C   UNL     1      -5.964  -8.796  12.097  0.00  0.00    +0.018 A 
ATOM     23  C   UNL     1      -5.511  -8.714  10.747  0.00  0.00    +0.008 A 
ATOM     24  C   UNL     1      -6.260  -9.500   9.902  0.00  0.00    +0.046 A 
ENDBRANCH  18  20
ENDBRANCH   9  15
BRANCH  10  16
ATOM     16  C   UNL     1      -4.454 -12.189  17.670  0.00  0.00    +0.252 C 
BRANCH  16   2
ATOM      2  O   UNL     1      -3.723 -11.011  17.388  0.00  0.00    -0.449 OA
BRANCH   2  21
ATOM      3  O   UNL     1      -1.789 -10.876  16.177  0.00  0.00    -0.226 OA
ATOM      7  N   UNL     1      -3.876 -11.124  15.145  0.00  0.00    -0.251 N 
ATOM     21  C   UNL     1      -3.008 -10.992  16.212  0.00  0.00    +0.405 C 
ATOM     31  H   UNL     1      -4.863 -11.211  15.377  0.00  0.00    +0.158 HD
BRANCH   7  25
ATOM     25  C   UNL     1      -3.562 -11.155  13.767  0.00  0.00    +0.036 A 
ATOM     26  C   UNL     1      -2.589 -10.296  13.255  0.00  0.00    +0.023 A 
ATOM     27  C   UNL     1      -4.224 -12.044  12.921  0.00  0.00    +0.023 A 
ATOM     28  C   UNL     1      -2.279 -10.325  11.896  0.00  0.00    +0.002 A 
ATOM     29  C   UNL     1      -3.912 -12.074  11.561  0.00  0.00    +0.002 A 
ATOM     30  C   UNL     1      -2.941 -11.215  11.049  0.00  0.00    +0.000 A 
ENDBRANCH   7  25
ENDBRANCH   2  21
ENDBRANCH  16   2
ENDBRANCH  10  16
TORSDOF 6
ENDMDL
MODEL 8
REMARK VINA RESULT:      -6.6      2.599      6.737
REMARK  Name = 40780076
REMARK  7 active torsions:
REMARK  status: ('A' for Active; 'I' for Inactive)
REMARK    1  A    between atoms: O_2  and  C_16
REMARK    2  A    between atoms: O_2  and  C_21
REMARK    3  A    between atoms: N_5  and  C_19
REMARK    4  A    between atoms: N_7  and  C_25
REMARK    5  A    between atoms: C_9  and  C_15
REMARK    6  A    between atoms: C_10  and  C_16
REMARK    7  A    between atoms: C_18  and  C_20
REMARK                            x       y       z     vdW  Elec       q    Type
REMARK                         _______ _______ _______ _____ _____    ______ ____
ROOT
ATOM      4  N   UNL     1      -9.608  -8.672  16.722  0.00  0.00    -0.296 NA
ATOM      8  C   UNL     1      -9.146 -11.113  17.504  0.00  0.00    +0.002 C 
ATOM      9  C   UNL     1      -7.931 -10.200  17.828  0.00  0.00    +0.055 C 
ATOM     10  C   UNL     1      -9.904  -9.623  15.619  0.00  0.00    +0.095 C 
ATOM     11  C   UNL     1      -9.442 -11.049  15.990  0.00  0.00    +0.026 C 
ATOM     12  C   UNL     1     -10.365 -10.508  18.230  0.00  0.00    +0.019 C 
ATOM     13  C   UNL     1      -8.196  -8.822  17.158  0.00  0.00    +0.094 C 
ATOM     14  C   UNL     1     -10.483  -9.018  17.867  0.00  0.00    +0.085 C 
ENDROOT
BRANCH   9  15
ATOM      5  N   UNL     1      -5.696 -11.199  18.498  0.00  0.00    -0.270 N 
ATOM      6  N   UNL     1      -4.508 -11.617  18.031  0.00  0.00    -0.171 NA
ATOM     15  C   UNL     1      -6.535 -10.727  17.531  0.00  0.00    +0.044 A 
ATOM     17  C   UNL     1      -5.847 -10.846  16.348  0.00  0.00    +0.053 A 
ATOM     18  C   UNL     1      -4.606 -11.399  16.716  0.00  0.00    +0.100 A 
ATOM     19  C   UNL     1      -5.965 -11.283  19.916  0.00  0.00    +0.172 C 
BRANCH  18  20
ATOM      1  S   UNL     1      -2.066 -10.800  15.673  0.00  0.00    -0.095 S 
ATOM     20  C   UNL     1      -3.504 -11.722  15.792  0.00  0.00    +0.039 A 
ATOM     22  C   UNL     1      -3.506 -12.793  14.925  0.00  0.00    +0.018 A 
ATOM     23  C   UNL     1      -2.308 -12.858  14.154  0.00  0.00    +0.008 A 
ATOM     24  C   UNL     1      -1.440 -11.834  14.460  0.00  0.00    +0.046 A 
ENDBRANCH  18  20
ENDBRANCH   9  15
BRANCH  10  16
ATOM     16  C   UNL     1      -9.318  -9.164  14.282  0.00  0.00    +0.252 C 
BRANCH  16   2
ATOM      2  O   UNL     1      -9.529 -10.187  13.328  0.00  0.00    -0.449 OA
BRANCH   2  21
ATOM      3  O   UNL     1      -8.556 -11.304  11.585  0.00  0.00    -0.226 OA
ATOM      7  N   UNL     1      -7.422  -9.630  12.765  0.00  0.00    -0.251 N 
ATOM     21  C   UNL     1      -8.489 -10.455  12.466  0.00  0.00    +0.405 C 
ATOM     31  H   UNL     1      -7.557  -8.983  13.538  0.00  0.00    +0.158 HD
BRANCH   7  25
ATOM     25  C   UNL     1      -6.161  -9.574  12.129  0.00  0.00    +0.036 A 
ATOM     26  C   UNL     1      -5.993  -8.794  10.984  0.00  0.00    +0.023 A 
ATOM     27  C   UNL     1      -5.086 -10.295  12.646  0.00  0.00    +0.023 A 
ATOM     28  C   UNL     1      -4.749  -8.737  10.355  0.00  0.00    +0.002 A 
ATOM     29  C   UNL     1      -3.842 -10.238  12.017  0.00  0.00    +0.002 A 
ATOM     30  C   UNL     1      -3.673  -9.460  10.872  0.00  0.00    +0.000 A 
ENDBRANCH   7  25
ENDBRANCH   2  21
ENDBRANCH  16   2
ENDBRANCH  10  16
TORSDOF 6
ENDMDL
MODEL 9
REMARK VINA RESULT:      -6.5     27.051     29.898
REMARK  Name = 40780076
REMARK  7 active torsions:
REMARK  status: ('A' for Active; 'I' for Inactive)
REMARK    1  A    between atoms: O_2  and  C_16
REMARK    2  A    between atoms: O_2  and  C_21
REMARK    3  A    between atoms: N_5  and  C_19
REMARK    4  A    between atoms: N_7  and  C_25
REMARK    5  A    between atoms: C_9  and  C_15
REMARK    6  A    between atoms: C_10  and  C_16
REMARK    7  A    between atoms: C_18  and  C_20
REMARK                            x       y       z     vdW  Elec       q    Type
REMARK                         _______ _______ _______ _____ _____    ______ ____
ROOT
ATOM      4  N   UNL     1      10.427  12.246  23.826  0.00  0.00    -0.296 NA
ATOM      8  C   UNL     1      13.002  12.627  23.875  0.00  0.00    +0.002 C 
ATOM      9  C   UNL     1      12.347  13.485  22.758  0.00  0.00    +0.055 C 
ATOM     10  C   UNL     1      11.133  10.938  23.826  0.00  0.00    +0.095 C 
ATOM     11  C   UNL     1      12.654  11.141  23.647  0.00  0.00    +0.026 C 
ATOM     12  C   UNL     1      12.343  13.048  25.205  0.00  0.00    +0.019 C 
ATOM     13  C   UNL     1      10.856  13.056  22.658  0.00  0.00    +0.094 C 
ATOM     14  C   UNL     1      10.813  12.972  25.059  0.00  0.00    +0.085 C 
ENDROOT
BRANCH   9  15
ATOM      5  N   UNL     1      13.938  14.488  21.053  0.00  0.00    -0.270 N 
ATOM      6  N   UNL     1      14.419  14.356  19.806  0.00  0.00    -0.171 NA
ATOM     15  C   UNL     1      13.026  13.534  21.396  0.00  0.00    +0.044 A 
ATOM     17  C   UNL     1      12.902  12.720  20.297  0.00  0.00    +0.053 A 
ATOM     18  C   UNL     1      13.783  13.274  19.348  0.00  0.00    +0.100 A 
ATOM     19  C   UNL     1      14.408  15.578  21.879  0.00  0.00    +0.172 C 
BRANCH  18  20
ATOM      1  S   UNL     1      14.486  13.737  16.667  0.00  0.00    -0.095 S 
ATOM     20  C   UNL     1      14.015  12.755  17.988  0.00  0.00    +0.039 A 
ATOM     22  C   UNL     1      13.880  11.432  17.628  0.00  0.00    +0.018 A 
ATOM     23  C   UNL     1      14.169  11.223  16.248  0.00  0.00    +0.008 A 
ATOM     24  C   UNL     1      14.512  12.393  15.608  0.00  0.00    +0.046 A 
ENDBRANCH  18  20
ENDBRANCH   9  15
BRANCH  10  16
ATOM     16  C   UNL     1      10.562   9.966  22.793  0.00  0.00    +0.252 C 
BRANCH  16   2
ATOM      2  O   UNL     1      11.100   8.682  23.041  0.00  0.00    -0.449 OA
BRANCH   2  21
ATOM      3  O   UNL     1      11.151   6.766  21.795  0.00  0.00    -0.226 OA
ATOM      7  N   UNL     1      12.212   8.728  21.084  0.00  0.00    -0.251 N 
ATOM     21  C   UNL     1      11.467   7.940  21.941  0.00  0.00    +0.405 C 
ATOM     31  H   UNL     1      12.370   9.688  21.381  0.00  0.00    +0.158 HD
BRANCH   7  25
ATOM     25  C   UNL     1      12.784   8.364  19.844  0.00  0.00    +0.036 A 
ATOM     26  C   UNL     1      14.140   8.045  19.769  0.00  0.00    +0.023 A 
ATOM     27  C   UNL     1      11.992   8.324  18.697  0.00  0.00    +0.023 A 
ATOM     28  C   UNL     1      14.705   7.686  18.545  0.00  0.00    +0.002 A 
ATOM     29  C   UNL     1      12.558   7.964  17.473  0.00  0.00    +0.002 A 
ATOM     30  C   UNL     1      13.913   7.645  17.397  0.00  0.00    +0.000 A 
ENDBRANCH   7  25
ENDBRANCH   2  21
ENDBRANCH  16   2
ENDBRANCH  10  16
TORSDOF 6
ENDMDL
MODEL 10
REMARK VINA RESULT:      -6.4     25.648     29.283
REMARK  Name = 40780076
REMARK  7 active torsions:
REMARK  status: ('A' for Active; 'I' for Inactive)
REMARK    1  A    between atoms: O_2  and  C_16
REMARK    2  A    between atoms: O_2  and  C_21
REMARK    3  A    between atoms: N_5  and  C_19
REMARK    4  A    between atoms: N_7  and  C_25
REMARK    5  A    between atoms: C_9  and  C_15
REMARK    6  A    between atoms: C_10  and  C_16
REMARK    7  A    between atoms: C_18  and  C_20
REMARK                            x       y       z     vdW  Elec       q    Type
REMARK                         _______ _______ _______ _____ _____    ______ ____
ROOT
ATOM      4  N   UNL     1      14.769   3.974  -0.374  0.00  0.00    -0.296 NA
ATOM      8  C   UNL     1      15.101   6.556  -0.416  0.00  0.00    +0.002 C 
ATOM      9  C   UNL     1      15.459   5.985   0.984  0.00  0.00    +0.055 C 
ATOM     10  C   UNL     1      13.557   4.632  -0.928  0.00  0.00    +0.095 C 
ATOM     11  C   UNL     1      13.650   6.166  -0.771  0.00  0.00    +0.026 C 
ATOM     12  C   UNL     1      16.022   5.851  -1.434  0.00  0.00    +0.019 C 
ATOM     13  C   UNL     1      15.046   4.486   0.992  0.00  0.00    +0.094 C 
ATOM     14  C   UNL     1      15.916   4.328  -1.242  0.00  0.00    +0.085 C 
ENDROOT
BRANCH   9  15
ATOM      5  N   UNL     1      15.653   7.739   2.808  0.00  0.00    -0.270 N 
ATOM      6  N   UNL     1      15.040   8.265   3.881  0.00  0.00    -0.171 NA
ATOM     15  C   UNL     1      14.957   6.728   2.214  0.00  0.00    +0.044 A 
ATOM     17  C   UNL     1      13.806   6.583   2.949  0.00  0.00    +0.053 A 
ATOM     18  C   UNL     1      13.911   7.554   3.963  0.00  0.00    +0.100 A 
ATOM     19  C   UNL     1      16.935   8.268   2.400  0.00  0.00    +0.172 C 
BRANCH  18  20
ATOM      1  S   UNL     1      11.816   9.114   4.998  0.00  0.00    -0.095 S 
ATOM     20  C   UNL     1      12.914   7.801   5.020  0.00  0.00    +0.039 A 
ATOM     22  C   UNL     1      12.753   7.011   6.137  0.00  0.00    +0.018 A 
ATOM     23  C   UNL     1      11.713   7.490   6.985  0.00  0.00    +0.008 A 
ATOM     24  C   UNL     1      11.120   8.628   6.485  0.00  0.00    +0.046 A 
ENDBRANCH  18  20
ENDBRANCH   9  15
BRANCH  10  16
ATOM     16  C   UNL     1      12.264   4.076  -0.329  0.00  0.00    +0.252 C 
BRANCH  16   2
ATOM      2  O   UNL     1      11.478   5.161   0.124  0.00  0.00    -0.449 OA
BRANCH   2  21
ATOM      3  O   UNL     1       9.788   3.950   1.076  0.00  0.00    -0.226 OA
ATOM      7  N   UNL     1      10.699   5.834   2.126  0.00  0.00    -0.251 N 
ATOM     21  C   UNL     1      10.568   4.893   1.122  0.00  0.00    +0.405 C 
ATOM     31  H   UNL     1      11.410   6.547   1.984  0.00  0.00    +0.158 HD
BRANCH   7  25
ATOM     25  C   UNL     1       9.965   5.929   3.330  0.00  0.00    +0.036 A 
ATOM     26  C   UNL     1       9.048   6.966   3.507  0.00  0.00    +0.023 A 
ATOM     27  C   UNL     1      10.154   4.985   4.339  0.00  0.00    +0.023 A 
ATOM     28  C   UNL     1       8.323   7.061   4.695  0.00  0.00    +0.002 A 
ATOM     29  C   UNL     1       9.428   5.079   5.526  0.00  0.00    +0.002 A 
ATOM     30  C   UNL     1       8.513   6.116   5.704  0.00  0.00    +0.000 A 
ENDBRANCH   7  25
ENDBRANCH   2  21
ENDBRANCH  16   2
ENDBRANCH  10  16
TORSDOF 6
ENDMDL
