MODEL 1
REMARK VINA RESULT:      -6.9      0.000      0.000
REMARK  Name = 45783440
REMARK  9 active torsions:
REMARK  status: ('A' for Active; 'I' for Inactive)
REMARK    1  A    between atoms: O_3  and  C_24
REMARK    2  A    between atoms: O_3  and  C_27
REMARK    3  A    between atoms: O_4  and  C_28
REMARK    4  A    between atoms: O_4  and  C_29
REMARK    5  A    between atoms: N_5  and  C_13
REMARK    6  A    between atoms: C_9  and  C_14
REMARK    7  A    between atoms: C_13  and  C_15
REMARK    8  A    between atoms: C_18  and  C_21
REMARK    9  A    between atoms: C_27  and  C_28
REMARK                            x       y       z     vdW  Elec       q    Type
REMARK                         _______ _______ _______ _____ _____    ______ ____
ROOT
ATOM      2  O   UNL     1      -4.038 -11.087  17.921  0.00  0.00    -0.336 OA
ATOM      6  N   UNL     1      -5.454 -10.616  16.251  0.00  0.00    -0.189 NA
ATOM      7  N   UNL     1      -5.264 -10.783  18.525  0.00  0.00    -0.054 NA
ATOM     14  C   UNL     1      -4.236 -10.964  16.583  0.00  0.00    +0.245 A 
ATOM     18  C   UNL     1      -6.048 -10.516  17.476  0.00  0.00    +0.221 A 
ENDROOT
BRANCH  18  21
ATOM      8  N   UNL     1      -8.171 -10.954  18.404  0.00  0.00    -0.252 NA
ATOM     21  C   UNL     1      -7.426 -10.145  17.617  0.00  0.00    +0.115 A 
ATOM     23  C   UNL     1      -7.919  -9.025  16.970  0.00  0.00    +0.077 A 
ATOM     24  C   UNL     1      -9.263  -8.711  17.140  0.00  0.00    +0.124 A 
ATOM     25  C   UNL     1      -9.473 -10.618  18.547  0.00  0.00    +0.115 A 
ATOM     26  C   UNL     1     -10.062  -9.518  17.942  0.00  0.00    +0.065 A 
BRANCH  24   3
ATOM      3  O   UNL     1      -9.794  -7.621  16.526  0.00  0.00    -0.490 OA
BRANCH   3  27
ATOM     27  C   UNL     1     -11.189  -7.387  16.708  0.00  0.00    +0.257 C 
BRANCH  27  28
ATOM     28  C   UNL     1     -11.510  -5.960  16.302  0.00  0.00    +0.200 C 
BRANCH  28   4
ATOM      4  O   UNL     1     -11.070  -5.749  14.966  0.00  0.00    -0.380 OA
ATOM     29  C   UNL     1     -12.145  -5.368  14.119  0.00  0.00    +0.194 C 
ENDBRANCH  28   4
ENDBRANCH  27  28
ENDBRANCH   3  27
ENDBRANCH  24   3
ENDBRANCH  18  21
BRANCH  14   9
ATOM      5  N   UNL     1      -3.097 -10.505  14.419  0.00  0.00    -0.287 NA
ATOM      9  C   UNL     1      -3.043 -11.246  15.694  0.00  0.00    +0.146 C 
ATOM     10  C   UNL     1      -1.709 -10.822  16.338  0.00  0.00    +0.030 C 
ATOM     11  C   UNL     1      -1.058  -9.891  15.325  0.00  0.00    +0.017 C 
ATOM     12  C   UNL     1      -1.709 -10.279  14.013  0.00  0.00    +0.085 C 
BRANCH   5  13
ATOM     13  C   UNL     1      -3.865 -11.191  13.388  0.00  0.00    +0.123 C 
BRANCH  13  15
ATOM      1  F   UNL     1      -6.102  -9.456  13.265  0.00  0.00    -0.205 F 
ATOM     15  C   UNL     1      -4.148 -10.296  12.211  0.00  0.00    +0.002 A 
ATOM     16  C   UNL     1      -5.268  -9.466  12.215  0.00  0.00    +0.128 A 
ATOM     17  C   UNL     1      -3.285 -10.297  11.115  0.00  0.00    +0.008 A 
ATOM     19  C   UNL     1      -5.528  -8.638  11.124  0.00  0.00    +0.038 A 
ATOM     20  C   UNL     1      -3.545  -9.468  10.022  0.00  0.00    +0.000 A 
ATOM     22  C   UNL     1      -4.665  -8.639  10.027  0.00  0.00    +0.003 A 
ENDBRANCH  13  15
ENDBRANCH   5  13
ENDBRANCH  14   9
TORSDOF 8
ENDMDL
MODEL 2
REMARK VINA RESULT:      -6.9     18.098     19.659
REMARK  Name = 45783440
REMARK  9 active torsions:
REMARK  status: ('A' for Active; 'I' for Inactive)
REMARK    1  A    between atoms: O_3  and  C_24
REMARK    2  A    between atoms: O_3  and  C_27
REMARK    3  A    between atoms: O_4  and  C_28
REMARK    4  A    between atoms: O_4  and  C_29
REMARK    5  A    between atoms: N_5  and  C_13
REMARK    6  A    between atoms: C_9  and  C_14
REMARK    7  A    between atoms: C_13  and  C_15
REMARK    8  A    between atoms: C_18  and  C_21
REMARK    9  A    between atoms: C_27  and  C_28
REMARK                            x       y       z     vdW  Elec       q    Type
REMARK                         _______ _______ _______ _____ _____    ______ ____
ROOT
ATOM      2  O   UNL     1     -16.834   2.630  22.616  0.00  0.00    -0.336 OA
ATOM      6  N   UNL     1     -17.340   4.196  24.136  0.00  0.00    -0.189 NA
ATOM      7  N   UNL     1     -16.513   2.080  23.864  0.00  0.00    -0.054 NA
ATOM     14  C   UNL     1     -17.314   3.876  22.866  0.00  0.00    +0.245 A 
ATOM     18  C   UNL     1     -16.839   3.063  24.708  0.00  0.00    +0.221 A 
ENDROOT
BRANCH  18  21
ATOM      8  N   UNL     1     -16.592   4.114  26.806  0.00  0.00    -0.252 NA
ATOM     21  C   UNL     1     -16.676   2.946  26.129  0.00  0.00    +0.115 A 
ATOM     23  C   UNL     1     -16.613   1.698  26.725  0.00  0.00    +0.077 A 
ATOM     24  C   UNL     1     -16.454   1.642  28.106  0.00  0.00    +0.124 A 
ATOM     25  C   UNL     1     -16.439   4.021  28.146  0.00  0.00    +0.115 A 
ATOM     26  C   UNL     1     -16.364   2.822  28.837  0.00  0.00    +0.065 A 
BRANCH  24   3
ATOM      3  O   UNL     1     -16.386   0.441  28.738  0.00  0.00    -0.490 OA
BRANCH   3  27
ATOM     27  C   UNL     1     -15.801   0.422  30.039  0.00  0.00    +0.257 C 
BRANCH  27  28
ATOM     28  C   UNL     1     -14.371  -0.072  29.932  0.00  0.00    +0.200 C 
BRANCH  28   4
ATOM      4  O   UNL     1     -13.488   1.037  30.047  0.00  0.00    -0.380 OA
ATOM     29  C   UNL     1     -13.739   1.781  31.231  0.00  0.00    +0.194 C 
ENDBRANCH  28   4
ENDBRANCH  27  28
ENDBRANCH   3  27
ENDBRANCH  24   3
ENDBRANCH  18  21
BRANCH  14   9
ATOM      5  N   UNL     1     -16.592   5.190  20.881  0.00  0.00    -0.287 NA
ATOM      9  C   UNL     1     -17.740   4.690  21.662  0.00  0.00    +0.146 C 
ATOM     10  C   UNL     1     -18.572   3.872  20.657  0.00  0.00    +0.030 C 
ATOM     11  C   UNL     1     -17.847   4.022  19.326  0.00  0.00    +0.017 C 
ATOM     12  C   UNL     1     -17.051   5.300  19.496  0.00  0.00    +0.085 C 
BRANCH   5  13
ATOM     13  C   UNL     1     -16.059   6.450  21.384  0.00  0.00    +0.123 C 
BRANCH  13  15
ATOM      1  F   UNL     1     -14.091   4.886  22.690  0.00  0.00    -0.205 F 
ATOM     15  C   UNL     1     -14.585   6.585  21.108  0.00  0.00    +0.002 A 
ATOM     16  C   UNL     1     -13.670   5.783  21.788  0.00  0.00    +0.128 A 
ATOM     17  C   UNL     1     -14.137   7.515  20.170  0.00  0.00    +0.008 A 
ATOM     19  C   UNL     1     -12.305   5.910  21.531  0.00  0.00    +0.038 A 
ATOM     20  C   UNL     1     -12.771   7.642  19.913  0.00  0.00    +0.000 A 
ATOM     22  C   UNL     1     -11.856   6.840  20.592  0.00  0.00    +0.003 A 
ENDBRANCH  13  15
ENDBRANCH   5  13
ENDBRANCH  14   9
TORSDOF 8
ENDMDL
MODEL 3
REMARK VINA RESULT:      -6.7     26.157     29.667
REMARK  Name = 45783440
REMARK  9 active torsions:
REMARK  status: ('A' for Active; 'I' for Inactive)
REMARK    1  A    between atoms: O_3  and  C_24
REMARK    2  A    between atoms: O_3  and  C_27
REMARK    3  A    between atoms: O_4  and  C_28
REMARK    4  A    between atoms: O_4  and  C_29
REMARK    5  A    between atoms: N_5  and  C_13
REMARK    6  A    between atoms: C_9  and  C_14
REMARK    7  A    between atoms: C_13  and  C_15
REMARK    8  A    between atoms: C_18  and  C_21
REMARK    9  A    between atoms: C_27  and  C_28
REMARK                            x       y       z     vdW  Elec       q    Type
REMARK                         _______ _______ _______ _____ _____    ______ ____
ROOT
ATOM      2  O   UNL     1      14.480   6.666  19.931  0.00  0.00    -0.336 OA
ATOM      6  N   UNL     1      15.694   7.999  21.260  0.00  0.00    -0.189 NA
ATOM      7  N   UNL     1      15.815   6.279  19.755  0.00  0.00    -0.054 NA
ATOM     14  C   UNL     1      14.498   7.683  20.832  0.00  0.00    +0.245 A 
ATOM     18  C   UNL     1      16.469   7.111  20.572  0.00  0.00    +0.221 A 
ENDROOT
BRANCH  18  21
ATOM      8  N   UNL     1      18.453   8.208  21.221  0.00  0.00    -0.252 NA
ATOM     21  C   UNL     1      17.895   7.082  20.722  0.00  0.00    +0.115 A 
ATOM     23  C   UNL     1      18.613   5.953  20.366  0.00  0.00    +0.077 A 
ATOM     24  C   UNL     1      19.993   5.979  20.532  0.00  0.00    +0.124 A 
ATOM     25  C   UNL     1      19.797   8.197  21.369  0.00  0.00    +0.115 A 
ATOM     26  C   UNL     1      20.605   7.119  21.043  0.00  0.00    +0.065 A 
BRANCH  24   3
ATOM      3  O   UNL     1      20.742   4.894  20.197  0.00  0.00    -0.490 OA
BRANCH   3  27
ATOM     27  C   UNL     1      21.945   4.682  20.935  0.00  0.00    +0.257 C 
BRANCH  27  28
ATOM     28  C   UNL     1      21.825   3.387  21.716  0.00  0.00    +0.200 C 
BRANCH  28   4
ATOM      4  O   UNL     1      22.033   3.659  23.097  0.00  0.00    -0.380 OA
ATOM     29  C   UNL     1      22.670   2.570  23.751  0.00  0.00    +0.194 C 
ENDBRANCH  28   4
ENDBRANCH  27  28
ENDBRANCH   3  27
ENDBRANCH  24   3
ENDBRANCH  18  21
BRANCH  14   9
ATOM      5  N   UNL     1      12.384   8.712  20.015  0.00  0.00    -0.287 NA
ATOM      9  C   UNL     1      13.156   8.284  21.198  0.00  0.00    +0.146 C 
ATOM     10  C   UNL     1      12.237   7.285  21.926  0.00  0.00    +0.030 C 
ATOM     11  C   UNL     1      10.950   7.265  21.113  0.00  0.00    +0.017 C 
ATOM     12  C   UNL     1      10.972   8.590  20.378  0.00  0.00    +0.085 C 
BRANCH   5  13
ATOM     13  C   UNL     1      12.720  10.057  19.565  0.00  0.00    +0.123 C 
BRANCH  13  15
ATOM      1  F   UNL     1      15.134  11.333  18.809  0.00  0.00    -0.205 F 
ATOM     15  C   UNL     1      13.240  10.062  18.152  0.00  0.00    +0.002 A 
ATOM     16  C   UNL     1      14.436  10.711  17.849  0.00  0.00    +0.128 A 
ATOM     17  C   UNL     1      12.521   9.416  17.147  0.00  0.00    +0.008 A 
ATOM     19  C   UNL     1      14.915  10.714  16.540  0.00  0.00    +0.038 A 
ATOM     20  C   UNL     1      13.001   9.419  15.836  0.00  0.00    +0.000 A 
ATOM     22  C   UNL     1      14.197  10.068  15.532  0.00  0.00    +0.003 A 
ENDBRANCH  13  15
ENDBRANCH   5  13
ENDBRANCH  14   9
TORSDOF 8
ENDMDL
MODEL 4
REMARK VINA RESULT:      -6.6     18.365     19.791
REMARK  Name = 45783440
REMARK  9 active torsions:
REMARK  status: ('A' for Active; 'I' for Inactive)
REMARK    1  A    between atoms: O_3  and  C_24
REMARK    2  A    between atoms: O_3  and  C_27
REMARK    3  A    between atoms: O_4  and  C_28
REMARK    4  A    between atoms: O_4  and  C_29
REMARK    5  A    between atoms: N_5  and  C_13
REMARK    6  A    between atoms: C_9  and  C_14
REMARK    7  A    between atoms: C_13  and  C_15
REMARK    8  A    between atoms: C_18  and  C_21
REMARK    9  A    between atoms: C_27  and  C_28
REMARK                            x       y       z     vdW  Elec       q    Type
REMARK                         _______ _______ _______ _____ _____    ______ ____
ROOT
ATOM      2  O   UNL     1     -16.260   4.002  21.979  0.00  0.00    -0.336 OA
ATOM      6  N   UNL     1     -15.911   4.780  24.051  0.00  0.00    -0.189 NA
ATOM      7  N   UNL     1     -16.479   2.921  22.843  0.00  0.00    -0.054 NA
ATOM     14  C   UNL     1     -15.930   5.056  22.771  0.00  0.00    +0.245 A 
ATOM     18  C   UNL     1     -16.253   3.459  24.046  0.00  0.00    +0.221 A 
ENDROOT
BRANCH  18  21
ATOM      8  N   UNL     1     -16.736   1.413  25.116  0.00  0.00    -0.252 NA
ATOM     21  C   UNL     1     -16.360   2.704  25.261  0.00  0.00    +0.115 A 
ATOM     23  C   UNL     1     -16.087   3.299  26.481  0.00  0.00    +0.077 A 
ATOM     24  C   UNL     1     -16.207   2.522  27.627  0.00  0.00    +0.124 A 
ATOM     25  C   UNL     1     -16.842   0.688  26.252  0.00  0.00    +0.115 A 
ATOM     26  C   UNL     1     -16.591   1.190  27.519  0.00  0.00    +0.065 A 
BRANCH  24   3
ATOM      3  O   UNL     1     -15.950   3.061  28.848  0.00  0.00    -0.490 OA
BRANCH   3  27
ATOM     27  C   UNL     1     -15.594   2.159  29.895  0.00  0.00    +0.257 C 
BRANCH  27  28
ATOM     28  C   UNL     1     -14.128   2.352  30.238  0.00  0.00    +0.200 C 
BRANCH  28   4
ATOM      4  O   UNL     1     -13.480   1.085  30.226  0.00  0.00    -0.380 OA
ATOM     29  C   UNL     1     -14.418   0.020  30.292  0.00  0.00    +0.194 C 
ENDBRANCH  28   4
ENDBRANCH  27  28
ENDBRANCH   3  27
ENDBRANCH  24   3
ENDBRANCH  18  21
BRANCH  14   9
ATOM      5  N   UNL     1     -14.602   6.236  21.029  0.00  0.00    -0.287 NA
ATOM      9  C   UNL     1     -15.643   6.366  22.067  0.00  0.00    +0.146 C 
ATOM     10  C   UNL     1     -16.872   6.922  21.322  0.00  0.00    +0.030 C 
ATOM     11  C   UNL     1     -16.406   7.129  19.888  0.00  0.00    +0.017 C 
ATOM     12  C   UNL     1     -14.901   7.248  20.015  0.00  0.00    +0.085 C 
BRANCH   5  13
ATOM     13  C   UNL     1     -13.248   6.368  21.553  0.00  0.00    +0.123 C 
BRANCH  13  15
ATOM      1  F   UNL     1     -13.546   9.035  22.459  0.00  0.00    -0.205 F 
ATOM     15  C   UNL     1     -12.519   7.531  20.936  0.00  0.00    +0.002 A 
ATOM     16  C   UNL     1     -12.712   8.820  21.432  0.00  0.00    +0.128 A 
ATOM     17  C   UNL     1     -11.649   7.317  19.868  0.00  0.00    +0.008 A 
ATOM     19  C   UNL     1     -12.036   9.896  20.859  0.00  0.00    +0.038 A 
ATOM     20  C   UNL     1     -10.972   8.394  19.294  0.00  0.00    +0.000 A 
ATOM     22  C   UNL     1     -11.165   9.683  19.789  0.00  0.00    +0.003 A 
ENDBRANCH  13  15
ENDBRANCH   5  13
ENDBRANCH  14   9
TORSDOF 8
ENDMDL
MODEL 5
REMARK VINA RESULT:      -6.5     26.316     29.818
REMARK  Name = 45783440
REMARK  9 active torsions:
REMARK  status: ('A' for Active; 'I' for Inactive)
REMARK    1  A    between atoms: O_3  and  C_24
REMARK    2  A    between atoms: O_3  and  C_27
REMARK    3  A    between atoms: O_4  and  C_28
REMARK    4  A    between atoms: O_4  and  C_29
REMARK    5  A    between atoms: N_5  and  C_13
REMARK    6  A    between atoms: C_9  and  C_14
REMARK    7  A    between atoms: C_13  and  C_15
REMARK    8  A    between atoms: C_18  and  C_21
REMARK    9  A    between atoms: C_27  and  C_28
REMARK                            x       y       z     vdW  Elec       q    Type
REMARK                         _______ _______ _______ _____ _____    ______ ____
ROOT
ATOM      2  O   UNL     1      16.130   5.941  18.509  0.00  0.00    -0.336 OA
ATOM      6  N   UNL     1      16.020   7.732  19.851  0.00  0.00    -0.189 NA
ATOM      7  N   UNL     1      17.297   5.920  19.283  0.00  0.00    -0.054 NA
ATOM     14  C   UNL     1      15.434   7.039  18.907  0.00  0.00    +0.245 A 
ATOM     18  C   UNL     1      17.159   7.007  20.048  0.00  0.00    +0.221 A 
ENDROOT
BRANCH  18  21
ATOM      8  N   UNL     1      18.190   8.719  21.302  0.00  0.00    -0.252 NA
ATOM     21  C   UNL     1      18.141   7.398  21.019  0.00  0.00    +0.115 A 
ATOM     23  C   UNL     1      18.963   6.448  21.603  0.00  0.00    +0.077 A 
ATOM     24  C   UNL     1      19.897   6.881  22.537  0.00  0.00    +0.124 A 
ATOM     25  C   UNL     1      19.110   9.103  22.215  0.00  0.00    +0.115 A 
ATOM     26  C   UNL     1      19.979   8.233  22.855  0.00  0.00    +0.065 A 
BRANCH  24   3
ATOM      3  O   UNL     1      20.727   5.988  23.138  0.00  0.00    -0.490 OA
BRANCH   3  27
ATOM     27  C   UNL     1      21.528   5.170  22.287  0.00  0.00    +0.257 C 
BRANCH  27  28
ATOM     28  C   UNL     1      22.485   4.356  23.138  0.00  0.00    +0.200 C 
BRANCH  28   4
ATOM      4  O   UNL     1      23.606   3.983  22.346  0.00  0.00    -0.380 OA
ATOM     29  C   UNL     1      23.469   4.433  21.005  0.00  0.00    +0.194 C 
ENDBRANCH  28   4
ENDBRANCH  27  28
ENDBRANCH   3  27
ENDBRANCH  24   3
ENDBRANCH  18  21
BRANCH  14   9
ATOM      5  N   UNL     1      13.275   8.275  18.923  0.00  0.00    -0.287 NA
ATOM      9  C   UNL     1      14.112   7.289  18.212  0.00  0.00    +0.146 C 
ATOM     10  C   UNL     1      14.285   7.871  16.796  0.00  0.00    +0.030 C 
ATOM     11  C   UNL     1      13.461   9.150  16.789  0.00  0.00    +0.017 C 
ATOM     12  C   UNL     1      12.457   8.934  17.904  0.00  0.00    +0.085 C 
BRANCH   5  13
ATOM     13  C   UNL     1      12.462   7.683  19.979  0.00  0.00    +0.123 C 
BRANCH  13  15
ATOM      1  F   UNL     1      10.113   7.430  21.541  0.00  0.00    -0.205 F 
ATOM     15  C   UNL     1      12.041   8.705  21.001  0.00  0.00    +0.002 A 
ATOM     16  C   UNL     1      10.871   8.518  21.736  0.00  0.00    +0.128 A 
ATOM     17  C   UNL     1      12.824   9.840  21.212  0.00  0.00    +0.008 A 
ATOM     19  C   UNL     1      10.483   9.466  22.682  0.00  0.00    +0.038 A 
ATOM     20  C   UNL     1      12.436  10.788  22.159  0.00  0.00    +0.000 A 
ATOM     22  C   UNL     1      11.266  10.602  22.894  0.00  0.00    +0.003 A 
ENDBRANCH  13  15
ENDBRANCH   5  13
ENDBRANCH  14   9
TORSDOF 8
ENDMDL
MODEL 6
REMARK VINA RESULT:      -6.5     26.309     30.106
REMARK  Name = 45783440
REMARK  9 active torsions:
REMARK  status: ('A' for Active; 'I' for Inactive)
REMARK    1  A    between atoms: O_3  and  C_24
REMARK    2  A    between atoms: O_3  and  C_27
REMARK    3  A    between atoms: O_4  and  C_28
REMARK    4  A    between atoms: O_4  and  C_29
REMARK    5  A    between atoms: N_5  and  C_13
REMARK    6  A    between atoms: C_9  and  C_14
REMARK    7  A    between atoms: C_13  and  C_15
REMARK    8  A    between atoms: C_18  and  C_21
REMARK    9  A    between atoms: C_27  and  C_28
REMARK                            x       y       z     vdW  Elec       q    Type
REMARK                         _______ _______ _______ _____ _____    ______ ____
ROOT
ATOM      2  O   UNL     1      16.433   5.888  18.638  0.00  0.00    -0.336 OA
ATOM      6  N   UNL     1      17.010   7.055  20.461  0.00  0.00    -0.189 NA
ATOM      7  N   UNL     1      17.712   5.443  18.997  0.00  0.00    -0.054 NA
ATOM     14  C   UNL     1      16.094   6.836  19.551  0.00  0.00    +0.245 A 
ATOM     18  C   UNL     1      17.983   6.178  20.080  0.00  0.00    +0.221 A 
ENDROOT
BRANCH  18  21
ATOM      8  N   UNL     1      19.309   6.810  21.925  0.00  0.00    -0.252 NA
ATOM     21  C   UNL     1      19.217   6.062  20.803  0.00  0.00    +0.115 A 
ATOM     23  C   UNL     1      20.220   5.225  20.344  0.00  0.00    +0.077 A 
ATOM     24  C   UNL     1      21.395   5.149  21.083  0.00  0.00    +0.124 A 
ATOM     25  C   UNL     1      20.466   6.711  22.619  0.00  0.00    +0.115 A 
ATOM     26  C   UNL     1      21.529   5.904  22.244  0.00  0.00    +0.065 A 
BRANCH  24   3
ATOM      3  O   UNL     1      22.410   4.342  20.674  0.00  0.00    -0.490 OA
BRANCH   3  27
ATOM     27  C   UNL     1      23.733   4.720  21.049  0.00  0.00    +0.257 C 
BRANCH  27  28
ATOM     28  C   UNL     1      24.612   3.483  21.077  0.00  0.00    +0.200 C 
BRANCH  28   4
ATOM      4  O   UNL     1      23.955   2.464  21.821  0.00  0.00    -0.380 OA
ATOM     29  C   UNL     1      24.314   1.170  21.358  0.00  0.00    +0.194 C 
ENDBRANCH  28   4
ENDBRANCH  27  28
ENDBRANCH   3  27
ENDBRANCH  24   3
ENDBRANCH  18  21
BRANCH  14   9
ATOM      5  N   UNL     1      14.653   8.810  20.020  0.00  0.00    -0.287 NA
ATOM      9  C   UNL     1      14.734   7.481  19.382  0.00  0.00    +0.146 C 
ATOM     10  C   UNL     1      14.377   7.733  17.905  0.00  0.00    +0.030 C 
ATOM     11  C   UNL     1      14.050   9.218  17.823  0.00  0.00    +0.017 C 
ATOM     12  C   UNL     1      13.679   9.580  19.247  0.00  0.00    +0.085 C 
BRANCH   5  13
ATOM     13  C   UNL     1      14.306   8.748  21.434  0.00  0.00    +0.123 C 
BRANCH  13  15
ATOM      1  F   UNL     1      12.203  10.388  22.389  0.00  0.00    -0.205 F 
ATOM     15  C   UNL     1      12.903   8.245  21.645  0.00  0.00    +0.002 A 
ATOM     16  C   UNL     1      11.915   9.107  22.119  0.00  0.00    +0.128 A 
ATOM     17  C   UNL     1      12.593   6.914  21.365  0.00  0.00    +0.008 A 
ATOM     19  C   UNL     1      10.616   8.639  22.314  0.00  0.00    +0.038 A 
ATOM     20  C   UNL     1      11.293   6.446  21.560  0.00  0.00    +0.000 A 
ATOM     22  C   UNL     1      10.305   7.308  22.034  0.00  0.00    +0.003 A 
ENDBRANCH  13  15
ENDBRANCH   5  13
ENDBRANCH  14   9
TORSDOF 8
ENDMDL
MODEL 7
REMARK VINA RESULT:      -6.4      1.692      2.186
REMARK  Name = 45783440
REMARK  9 active torsions:
REMARK  status: ('A' for Active; 'I' for Inactive)
REMARK    1  A    between atoms: O_3  and  C_24
REMARK    2  A    between atoms: O_3  and  C_27
REMARK    3  A    between atoms: O_4  and  C_28
REMARK    4  A    between atoms: O_4  and  C_29
REMARK    5  A    between atoms: N_5  and  C_13
REMARK    6  A    between atoms: C_9  and  C_14
REMARK    7  A    between atoms: C_13  and  C_15
REMARK    8  A    between atoms: C_18  and  C_21
REMARK    9  A    between atoms: C_27  and  C_28
REMARK                            x       y       z     vdW  Elec       q    Type
REMARK                         _______ _______ _______ _____ _____    ______ ____
ROOT
ATOM      2  O   UNL     1      -4.449 -13.145  15.152  0.00  0.00    -0.336 OA
ATOM      6  N   UNL     1      -4.536 -11.358  16.499  0.00  0.00    -0.189 NA
ATOM      7  N   UNL     1      -5.640 -13.263  15.880  0.00  0.00    -0.054 NA
ATOM     14  C   UNL     1      -3.860 -11.997  15.578  0.00  0.00    +0.245 A 
ATOM     18  C   UNL     1      -5.619 -12.173  16.652  0.00  0.00    +0.221 A 
ENDROOT
BRANCH  18  21
ATOM      8  N   UNL     1      -6.727 -12.668  18.675  0.00  0.00    -0.252 NA
ATOM     21  C   UNL     1      -6.665 -11.869  17.586  0.00  0.00    +0.115 A 
ATOM     23  C   UNL     1      -7.531 -10.815  17.348  0.00  0.00    +0.077 A 
ATOM     24  C   UNL     1      -8.526 -10.564  18.286  0.00  0.00    +0.124 A 
ATOM     25  C   UNL     1      -7.706 -12.395  19.565  0.00  0.00    +0.115 A 
ATOM     26  C   UNL     1      -8.623 -11.365  19.419  0.00  0.00    +0.065 A 
BRANCH  24   3
ATOM      3  O   UNL     1      -9.402  -9.541  18.097  0.00  0.00    -0.490 OA
BRANCH   3  27
ATOM     27  C   UNL     1      -9.268  -8.785  16.894  0.00  0.00    +0.257 C 
BRANCH  27  28
ATOM     28  C   UNL     1     -10.149  -7.553  16.983  0.00  0.00    +0.200 C 
BRANCH  28   4
ATOM      4  O   UNL     1      -9.995  -6.788  15.793  0.00  0.00    -0.380 OA
ATOM     29  C   UNL     1     -11.177  -6.060  15.488  0.00  0.00    +0.194 C 
ENDBRANCH  28   4
ENDBRANCH  27  28
ENDBRANCH   3  27
ENDBRANCH  24   3
ENDBRANCH  18  21
BRANCH  14   9
ATOM      5  N   UNL     1      -2.679 -10.601  13.891  0.00  0.00    -0.287 NA
ATOM      9  C   UNL     1      -2.538 -11.637  14.933  0.00  0.00    +0.146 C 
ATOM     10  C   UNL     1      -1.528 -11.048  15.936  0.00  0.00    +0.030 C 
ATOM     11  C   UNL     1      -1.112  -9.710  15.343  0.00  0.00    +0.017 C 
ATOM     12  C   UNL     1      -1.413  -9.865  13.866  0.00  0.00    +0.085 C 
BRANCH   5  13
ATOM     13  C   UNL     1      -3.023 -11.144  12.583  0.00  0.00    +0.123 C 
BRANCH  13  15
ATOM      1  F   UNL     1      -2.158  -9.530  10.422  0.00  0.00    -0.205 F 
ATOM     15  C   UNL     1      -3.944 -10.230  11.820  0.00  0.00    +0.002 A 
ATOM     16  C   UNL     1      -3.452  -9.462  10.766  0.00  0.00    +0.128 A 
ATOM     17  C   UNL     1      -5.292 -10.153  12.171  0.00  0.00    +0.008 A 
ATOM     19  C   UNL     1      -4.307  -8.615  10.061  0.00  0.00    +0.038 A 
ATOM     20  C   UNL     1      -6.148  -9.306  11.465  0.00  0.00    +0.000 A 
ATOM     22  C   UNL     1      -5.656  -8.538  10.411  0.00  0.00    +0.003 A 
ENDBRANCH  13  15
ENDBRANCH   5  13
ENDBRANCH  14   9
TORSDOF 8
ENDMDL
MODEL 8
REMARK VINA RESULT:      -6.4      1.279      1.772
REMARK  Name = 45783440
REMARK  9 active torsions:
REMARK  status: ('A' for Active; 'I' for Inactive)
REMARK    1  A    between atoms: O_3  and  C_24
REMARK    2  A    between atoms: O_3  and  C_27
REMARK    3  A    between atoms: O_4  and  C_28
REMARK    4  A    between atoms: O_4  and  C_29
REMARK    5  A    between atoms: N_5  and  C_13
REMARK    6  A    between atoms: C_9  and  C_14
REMARK    7  A    between atoms: C_13  and  C_15
REMARK    8  A    between atoms: C_18  and  C_21
REMARK    9  A    between atoms: C_27  and  C_28
REMARK                            x       y       z     vdW  Elec       q    Type
REMARK                         _______ _______ _______ _____ _____    ______ ____
ROOT
ATOM      2  O   UNL     1      -5.070  -9.625  15.976  0.00  0.00    -0.336 OA
ATOM      6  N   UNL     1      -5.445 -11.660  16.834  0.00  0.00    -0.189 NA
ATOM      7  N   UNL     1      -6.293  -9.542  16.654  0.00  0.00    -0.054 NA
ATOM     14  C   UNL     1      -4.639 -10.904  16.131  0.00  0.00    +0.245 A 
ATOM     18  C   UNL     1      -6.446 -10.781  17.132  0.00  0.00    +0.221 A 
ENDROOT
BRANCH  18  21
ATOM      8  N   UNL     1      -7.321 -11.951  18.983  0.00  0.00    -0.252 NA
ATOM     21  C   UNL     1      -7.586 -11.173  17.909  0.00  0.00    +0.115 A 
ATOM     23  C   UNL     1      -8.856 -10.758  17.546  0.00  0.00    +0.077 A 
ATOM     24  C   UNL     1      -9.926 -11.167  18.335  0.00  0.00    +0.124 A 
ATOM     25  C   UNL     1      -8.385 -12.329  19.727  0.00  0.00    +0.115 A 
ATOM     26  C   UNL     1      -9.694 -11.968  19.448  0.00  0.00    +0.065 A 
BRANCH  24   3
ATOM      3  O   UNL     1     -11.192 -10.786  18.020  0.00  0.00    -0.490 OA
BRANCH   3  27
ATOM     27  C   UNL     1     -11.605  -9.488  18.445  0.00  0.00    +0.257 C 
BRANCH  27  28
ATOM     28  C   UNL     1     -11.830  -8.615  17.225  0.00  0.00    +0.200 C 
BRANCH  28   4
ATOM      4  O   UNL     1     -10.821  -7.613  17.181  0.00  0.00    -0.380 OA
ATOM     29  C   UNL     1     -11.226  -6.502  16.393  0.00  0.00    +0.194 C 
ENDBRANCH  28   4
ENDBRANCH  27  28
ENDBRANCH   3  27
ENDBRANCH  24   3
ENDBRANCH  18  21
BRANCH  14   9
ATOM      5  N   UNL     1      -3.109 -10.552  14.201  0.00  0.00    -0.287 NA
ATOM      9  C   UNL     1      -3.316 -11.255  15.483  0.00  0.00    +0.146 C 
ATOM     10  C   UNL     1      -2.106 -10.855  16.349  0.00  0.00    +0.030 C 
ATOM     11  C   UNL     1      -1.246  -9.979  15.449  0.00  0.00    +0.017 C 
ATOM     12  C   UNL     1      -1.662 -10.386  14.050  0.00  0.00    +0.085 C 
BRANCH   5  13
ATOM     13  C   UNL     1      -3.703 -11.243  13.064  0.00  0.00    +0.123 C 
BRANCH  13  15
ATOM      1  F   UNL     1      -6.048  -9.652  13.046  0.00  0.00    -0.205 F 
ATOM     15  C   UNL     1      -4.044 -10.293  11.947  0.00  0.00    +0.002 A 
ATOM     16  C   UNL     1      -5.215  -9.540  12.001  0.00  0.00    +0.128 A 
ATOM     17  C   UNL     1      -3.183 -10.168  10.856  0.00  0.00    +0.008 A 
ATOM     19  C   UNL     1      -5.528  -8.661  10.964  0.00  0.00    +0.038 A 
ATOM     20  C   UNL     1      -3.496  -9.289   9.819  0.00  0.00    +0.000 A 
ATOM     22  C   UNL     1      -4.668  -8.535   9.873  0.00  0.00    +0.003 A 
ENDBRANCH  13  15
ENDBRANCH   5  13
ENDBRANCH  14   9
TORSDOF 8
ENDMDL
MODEL 9
REMARK VINA RESULT:      -6.1     18.484     20.394
REMARK  Name = 45783440
REMARK  9 active torsions:
REMARK  status: ('A' for Active; 'I' for Inactive)
REMARK    1  A    between atoms: O_3  and  C_24
REMARK    2  A    between atoms: O_3  and  C_27
REMARK    3  A    between atoms: O_4  and  C_28
REMARK    4  A    between atoms: O_4  and  C_29
REMARK    5  A    between atoms: N_5  and  C_13
REMARK    6  A    between atoms: C_9  and  C_14
REMARK    7  A    between atoms: C_13  and  C_15
REMARK    8  A    between atoms: C_18  and  C_21
REMARK    9  A    between atoms: C_27  and  C_28
REMARK                            x       y       z     vdW  Elec       q    Type
REMARK                         _______ _______ _______ _____ _____    ______ ____
ROOT
ATOM      2  O   UNL     1     -17.897   3.397  26.945  0.00  0.00    -0.336 OA
ATOM      6  N   UNL     1     -16.773   1.464  26.811  0.00  0.00    -0.189 NA
ATOM      7  N   UNL     1     -17.109   3.324  28.101  0.00  0.00    -0.054 NA
ATOM     14  C   UNL     1     -17.639   2.263  26.241  0.00  0.00    +0.245 A 
ATOM     18  C   UNL     1     -16.476   2.156  27.949  0.00  0.00    +0.221 A 
ENDROOT
BRANCH  18  21
ATOM      8  N   UNL     1     -15.389   0.310  28.933  0.00  0.00    -0.252 NA
ATOM     21  C   UNL     1     -15.543   1.653  28.915  0.00  0.00    +0.115 A 
ATOM     23  C   UNL     1     -14.867   2.523  29.754  0.00  0.00    +0.077 A 
ATOM     24  C   UNL     1     -13.974   1.981  30.672  0.00  0.00    +0.124 A 
ATOM     25  C   UNL     1     -14.512  -0.181  29.838  0.00  0.00    +0.115 A 
ATOM     26  C   UNL     1     -13.787   0.604  30.722  0.00  0.00    +0.065 A 
BRANCH  24   3
ATOM      3  O   UNL     1     -13.286   2.794  31.517  0.00  0.00    -0.490 OA
BRANCH   3  27
ATOM     27  C   UNL     1     -13.874   4.057  31.827  0.00  0.00    +0.257 C 
BRANCH  27  28
ATOM     28  C   UNL     1     -14.052   4.166  33.330  0.00  0.00    +0.200 C 
BRANCH  28   4
ATOM      4  O   UNL     1     -15.228   3.461  33.709  0.00  0.00    -0.380 OA
ATOM     29  C   UNL     1     -16.366   3.927  32.998  0.00  0.00    +0.194 C 
ENDBRANCH  28   4
ENDBRANCH  27  28
ENDBRANCH   3  27
ENDBRANCH  24   3
ENDBRANCH  18  21
BRANCH  14   9
ATOM      5  N   UNL     1     -17.572   2.527  23.768  0.00  0.00    -0.287 NA
ATOM      9  C   UNL     1     -18.378   2.101  24.929  0.00  0.00    +0.146 C 
ATOM     10  C   UNL     1     -18.746   0.635  24.632  0.00  0.00    +0.030 C 
ATOM     11  C   UNL     1     -18.157   0.347  23.258  0.00  0.00    +0.017 C 
ATOM     12  C   UNL     1     -18.023   1.721  22.633  0.00  0.00    +0.085 C 
BRANCH   5  13
ATOM     13  C   UNL     1     -17.666   3.957  23.497  0.00  0.00    +0.123 C 
BRANCH  13  15
ATOM      1  F   UNL     1     -15.268   3.847  25.002  0.00  0.00    -0.205 F 
ATOM     15  C   UNL     1     -16.360   4.521  23.005  0.00  0.00    +0.002 A 
ATOM     16  C   UNL     1     -15.217   4.434  23.798  0.00  0.00    +0.128 A 
ATOM     17  C   UNL     1     -16.296   5.132  21.753  0.00  0.00    +0.008 A 
ATOM     19  C   UNL     1     -14.009   4.957  23.339  0.00  0.00    +0.038 A 
ATOM     20  C   UNL     1     -15.087   5.656  21.294  0.00  0.00    +0.000 A 
ATOM     22  C   UNL     1     -13.944   5.569  22.086  0.00  0.00    +0.003 A 
ENDBRANCH  13  15
ENDBRANCH   5  13
ENDBRANCH  14   9
TORSDOF 8
ENDMDL
MODEL 10
REMARK VINA RESULT:      -6.1     26.155     28.880
REMARK  Name = 45783440
REMARK  9 active torsions:
REMARK  status: ('A' for Active; 'I' for Inactive)
REMARK    1  A    between atoms: O_3  and  C_24
REMARK    2  A    between atoms: O_3  and  C_27
REMARK    3  A    between atoms: O_4  and  C_28
REMARK    4  A    between atoms: O_4  and  C_29
REMARK    5  A    between atoms: N_5  and  C_13
REMARK    6  A    between atoms: C_9  and  C_14
REMARK    7  A    between atoms: C_13  and  C_15
REMARK    8  A    between atoms: C_18  and  C_21
REMARK    9  A    between atoms: C_27  and  C_28
REMARK                            x       y       z     vdW  Elec       q    Type
REMARK                         _______ _______ _______ _____ _____    ______ ____
ROOT
ATOM      2  O   UNL     1      12.819   7.838  18.674  0.00  0.00    -0.336 OA
ATOM      6  N   UNL     1      13.161   9.974  19.257  0.00  0.00    -0.189 NA
ATOM      7  N   UNL     1      13.174   8.511  17.498  0.00  0.00    -0.054 NA
ATOM     14  C   UNL     1      12.834   8.771  19.661  0.00  0.00    +0.245 A 
ATOM     18  C   UNL     1      13.359   9.764  17.923  0.00  0.00    +0.221 A 
ENDROOT
BRANCH  18  21
ATOM      8  N   UNL     1      14.024  12.009  17.640  0.00  0.00    -0.252 NA
ATOM     21  C   UNL     1      13.742  10.830  17.042  0.00  0.00    +0.115 A 
ATOM     23  C   UNL     1      13.805  10.618  15.675  0.00  0.00    +0.077 A 
ATOM     24  C   UNL     1      14.181  11.686  14.867  0.00  0.00    +0.124 A 
ATOM     25  C   UNL     1      14.386  13.024  16.824  0.00  0.00    +0.115 A 
ATOM     26  C   UNL     1      14.479  12.916  15.445  0.00  0.00    +0.065 A 
BRANCH  24   3
ATOM      3  O   UNL     1      14.258  11.528  13.519  0.00  0.00    -0.490 OA
BRANCH   3  27
ATOM     27  C   UNL     1      14.729  12.641  12.760  0.00  0.00    +0.257 C 
BRANCH  27  28
ATOM     28  C   UNL     1      13.972  12.702  11.447  0.00  0.00    +0.200 C 
BRANCH  28   4
ATOM      4  O   UNL     1      12.839  11.845  11.526  0.00  0.00    -0.380 OA
ATOM     29  C   UNL     1      11.762  12.334  10.737  0.00  0.00    +0.194 C 
ENDBRANCH  28   4
ENDBRANCH  27  28
ENDBRANCH   3  27
ENDBRANCH  24   3
ENDBRANCH  18  21
BRANCH  14   9
ATOM      5  N   UNL     1      11.639   9.251  21.790  0.00  0.00    -0.287 NA
ATOM      9  C   UNL     1      12.481   8.289  21.053  0.00  0.00    +0.146 C 
ATOM     10  C   UNL     1      11.664   6.983  21.039  0.00  0.00    +0.030 C 
ATOM     11  C   UNL     1      10.410   7.291  21.844  0.00  0.00    +0.017 C 
ATOM     12  C   UNL     1      10.822   8.462  22.713  0.00  0.00    +0.085 C 
BRANCH   5  13
ATOM     13  C   UNL     1      12.410  10.278  22.480  0.00  0.00    +0.123 C 
BRANCH  13  15
ATOM      1  F   UNL     1      11.324  10.945  25.010  0.00  0.00    -0.205 F 
ATOM     15  C   UNL     1      11.596  11.521  22.723  0.00  0.00    +0.002 A 
ATOM     16  C   UNL     1      11.090  11.788  23.995  0.00  0.00    +0.128 A 
ATOM     17  C   UNL     1      11.349  12.405  21.674  0.00  0.00    +0.008 A 
ATOM     19  C   UNL     1      10.337  12.940  24.218  0.00  0.00    +0.038 A 
ATOM     20  C   UNL     1      10.595  13.558  21.897  0.00  0.00    +0.000 A 
ATOM     22  C   UNL     1      10.089  13.826  23.168  0.00  0.00    +0.003 A 
ENDBRANCH  13  15
ENDBRANCH   5  13
ENDBRANCH  14   9
TORSDOF 8
ENDMDL
