MODEL 1
REMARK VINA RESULT:      -7.3      0.000      0.000
REMARK  Name = 75536713
REMARK  11 active torsions:
REMARK  status: ('A' for Active; 'I' for Inactive)
REMARK    1  A    between atoms: S_1  and  N_10
REMARK    2  A    between atoms: S_1  and  C_18
REMARK    3  A    between atoms: S_2  and  C_21
REMARK    4  A    between atoms: S_2  and  C_29
REMARK    5  A    between atoms: O_4  and  C_12
REMARK    6  A    between atoms: N_9  and  C_11
REMARK    7  A    between atoms: N_9  and  C_16
REMARK    8  A    between atoms: N_10  and  C_15
REMARK    9  A    between atoms: C_13  and  C_15
REMARK   10  A    between atoms: C_16  and  C_17
REMARK   11  A    between atoms: C_28  and  C_30
REMARK                            x       y       z     vdW  Elec       q    Type
REMARK                         _______ _______ _______ _____ _____    ______ ____
ROOT
ATOM      3  O   UNL     1      11.126   8.436  20.174  0.00  0.00    -0.371 OA
ATOM     11  C   UNL     1      12.823   6.792  20.318  0.00  0.00    +0.111 C 
ATOM     12  C   UNL     1      11.747   6.442  21.331  0.00  0.00    +0.164 C 
ATOM     13  C   UNL     1      10.810   7.648  21.337  0.00  0.00    +0.164 C 
ATOM     14  C   UNL     1      12.073   7.717  19.374  0.00  0.00    +0.181 C 
ENDROOT
BRANCH  12   4
ATOM      4  O   UNL     1      11.038   5.302  20.838  0.00  0.00    -0.388 OA
ATOM     32  H   UNL     1      11.611   4.866  20.185  0.00  0.00    +0.210 HD
ENDBRANCH  12   4
BRANCH  11   9
ATOM      9  N   UNL     1      13.946   7.486  20.943  0.00  0.00    -0.305 NA
ATOM     31  H   UNL     1      13.616   8.297  21.468  0.00  0.00    +0.123 HD
BRANCH   9  16
ATOM     16  C   UNL     1      14.908   7.936  19.943  0.00  0.00    +0.116 C 
BRANCH  16  17
ATOM     17  C   UNL     1      16.293   7.419  20.225  0.00  0.00    -0.033 A 
ATOM     19  C   UNL     1      16.802   6.350  19.489  0.00  0.00    +0.007 A 
ATOM     20  C   UNL     1      17.068   8.010  21.224  0.00  0.00    +0.007 A 
ATOM     21  C   UNL     1      18.860   6.462  20.748  0.00  0.00    +0.088 A 
ATOM     22  C   UNL     1      18.086   5.871  19.749  0.00  0.00    +0.027 A 
ATOM     23  C   UNL     1      18.351   7.531  21.485  0.00  0.00    +0.027 A 
BRANCH  21   2
ATOM      2  S   UNL     1      20.466   5.860  21.078  0.00  0.00    -0.006 S 
ATOM      7  O   UNL     1      20.643   5.751  22.518  0.00  0.00    -0.170 OA
ATOM      8  O   UNL     1      20.690   4.695  20.232  0.00  0.00    -0.170 OA
ATOM     29  C   UNL     1      21.548   7.156  20.520  0.00  0.00    +0.200 C 
ENDBRANCH  21   2
ENDBRANCH  16  17
ENDBRANCH   9  16
ENDBRANCH  11   9
BRANCH  13  15
ATOM     15  C   UNL     1      10.961   8.530  22.567  0.00  0.00    +0.140 C 
BRANCH  15  10
ATOM     10  N   UNL     1      12.275   9.202  22.538  0.00  0.00    -0.187 NA
ATOM     33  H   UNL     1      13.058   8.667  22.937  0.00  0.00    +0.148 HD
BRANCH  10   1
ATOM      1  S   UNL     1      12.365  10.901  22.548  0.00  0.00    +0.058 S 
ATOM      5  O   UNL     1      12.459  11.367  23.918  0.00  0.00    -0.153 OA
ATOM      6  O   UNL     1      11.344  11.432  21.665  0.00  0.00    -0.153 OA
BRANCH   1  18
ATOM     18  C   UNL     1      13.924  11.186  21.766  0.00  0.00    +0.105 A 
ATOM     24  C   UNL     1      13.981  11.428  20.394  0.00  0.00    +0.029 A 
ATOM     25  C   UNL     1      15.098  11.164  22.520  0.00  0.00    +0.029 A 
ATOM     26  C   UNL     1      15.211  11.650  19.776  0.00  0.00    +0.005 A 
ATOM     27  C   UNL     1      16.327  11.387  21.902  0.00  0.00    +0.005 A 
ATOM     28  C   UNL     1      16.385  11.629  20.529  0.00  0.00    -0.050 A 
ATOM     30  C   UNL     1      17.701  11.866  19.868  0.00  0.00    +0.044 C 
ENDBRANCH   1  18
ENDBRANCH  10   1
ENDBRANCH  15  10
ENDBRANCH  13  15
TORSDOF 9
ENDMDL
MODEL 2
REMARK VINA RESULT:      -6.6      1.425      2.288
REMARK  Name = 75536713
REMARK  11 active torsions:
REMARK  status: ('A' for Active; 'I' for Inactive)
REMARK    1  A    between atoms: S_1  and  N_10
REMARK    2  A    between atoms: S_1  and  C_18
REMARK    3  A    between atoms: S_2  and  C_21
REMARK    4  A    between atoms: S_2  and  C_29
REMARK    5  A    between atoms: O_4  and  C_12
REMARK    6  A    between atoms: N_9  and  C_11
REMARK    7  A    between atoms: N_9  and  C_16
REMARK    8  A    between atoms: N_10  and  C_15
REMARK    9  A    between atoms: C_13  and  C_15
REMARK   10  A    between atoms: C_16  and  C_17
REMARK   11  A    between atoms: C_28  and  C_30
REMARK                            x       y       z     vdW  Elec       q    Type
REMARK                         _______ _______ _______ _____ _____    ______ ____
ROOT
ATOM      3  O   UNL     1      11.280   8.557  19.977  0.00  0.00    -0.371 OA
ATOM     11  C   UNL     1      12.984   6.964  20.386  0.00  0.00    +0.111 C 
ATOM     12  C   UNL     1      11.783   6.594  21.239  0.00  0.00    +0.164 C 
ATOM     13  C   UNL     1      10.822   7.772  21.094  0.00  0.00    +0.164 C 
ATOM     14  C   UNL     1      12.352   7.858  19.331  0.00  0.00    +0.181 C 
ENDROOT
BRANCH  12   4
ATOM      4  O   UNL     1      11.184   5.429  20.666  0.00  0.00    -0.388 OA
ATOM     32  H   UNL     1      10.313   5.691  20.323  0.00  0.00    +0.210 HD
ENDBRANCH  12   4
BRANCH  11   9
ATOM      9  N   UNL     1      13.985   7.698  21.155  0.00  0.00    -0.305 NA
ATOM     31  H   UNL     1      13.544   8.437  21.703  0.00  0.00    +0.123 HD
BRANCH   9  16
ATOM     16  C   UNL     1      14.984   8.300  20.278  0.00  0.00    +0.116 C 
BRANCH  16  17
ATOM     17  C   UNL     1      16.346   7.694  20.482  0.00  0.00    -0.033 A 
ATOM     19  C   UNL     1      17.200   8.209  21.457  0.00  0.00    +0.007 A 
ATOM     20  C   UNL     1      16.755   6.616  19.696  0.00  0.00    +0.007 A 
ATOM     21  C   UNL     1      18.871   6.570  20.862  0.00  0.00    +0.088 A 
ATOM     22  C   UNL     1      18.462   7.647  21.648  0.00  0.00    +0.027 A 
ATOM     23  C   UNL     1      18.017   6.054  19.887  0.00  0.00    +0.027 A 
BRANCH  21   2
ATOM      2  S   UNL     1      20.453   5.869  21.097  0.00  0.00    -0.006 S 
ATOM      7  O   UNL     1      20.686   5.696  22.523  0.00  0.00    -0.170 OA
ATOM      8  O   UNL     1      20.574   4.726  20.201  0.00  0.00    -0.170 OA
ATOM     29  C   UNL     1      21.581   7.124  20.536  0.00  0.00    +0.200 C 
ENDBRANCH  21   2
ENDBRANCH  16  17
ENDBRANCH   9  16
ENDBRANCH  11   9
BRANCH  13  15
ATOM     15  C   UNL     1      10.771   8.671  22.320  0.00  0.00    +0.140 C 
BRANCH  15  10
ATOM     10  N   UNL     1      11.720   9.789  22.155  0.00  0.00    -0.187 NA
ATOM     33  H   UNL     1      12.698   9.522  21.983  0.00  0.00    +0.148 HD
BRANCH  10   1
ATOM      1  S   UNL     1      11.408  11.288  22.898  0.00  0.00    +0.058 S 
ATOM      5  O   UNL     1      10.395  11.116  23.921  0.00  0.00    -0.153 OA
ATOM      6  O   UNL     1      11.242  12.298  21.869  0.00  0.00    -0.153 OA
BRANCH   1  18
ATOM     18  C   UNL     1      12.946  11.620  23.702  0.00  0.00    +0.105 A 
ATOM     24  C   UNL     1      12.963  12.007  25.042  0.00  0.00    +0.029 A 
ATOM     25  C   UNL     1      14.144  11.498  22.996  0.00  0.00    +0.029 A 
ATOM     26  C   UNL     1      14.177  12.273  25.676  0.00  0.00    +0.005 A 
ATOM     27  C   UNL     1      15.357  11.762  23.631  0.00  0.00    +0.005 A 
ATOM     28  C   UNL     1      15.374  12.150  24.971  0.00  0.00    -0.050 A 
ATOM     30  C   UNL     1      16.672  12.433  25.649  0.00  0.00    +0.044 C 
ENDBRANCH   1  18
ENDBRANCH  10   1
ENDBRANCH  15  10
ENDBRANCH  13  15
TORSDOF 9
ENDMDL
MODEL 3
REMARK VINA RESULT:      -6.5      3.865      6.150
REMARK  Name = 75536713
REMARK  11 active torsions:
REMARK  status: ('A' for Active; 'I' for Inactive)
REMARK    1  A    between atoms: S_1  and  N_10
REMARK    2  A    between atoms: S_1  and  C_18
REMARK    3  A    between atoms: S_2  and  C_21
REMARK    4  A    between atoms: S_2  and  C_29
REMARK    5  A    between atoms: O_4  and  C_12
REMARK    6  A    between atoms: N_9  and  C_11
REMARK    7  A    between atoms: N_9  and  C_16
REMARK    8  A    between atoms: N_10  and  C_15
REMARK    9  A    between atoms: C_13  and  C_15
REMARK   10  A    between atoms: C_16  and  C_17
REMARK   11  A    between atoms: C_28  and  C_30
REMARK                            x       y       z     vdW  Elec       q    Type
REMARK                         _______ _______ _______ _____ _____    ______ ____
ROOT
ATOM      3  O   UNL     1      11.946   8.341  22.254  0.00  0.00    -0.371 OA
ATOM     11  C   UNL     1      11.393   8.072  19.968  0.00  0.00    +0.111 C 
ATOM     12  C   UNL     1      12.193   6.856  20.402  0.00  0.00    +0.164 C 
ATOM     13  C   UNL     1      12.698   7.199  21.802  0.00  0.00    +0.164 C 
ATOM     14  C   UNL     1      10.913   8.620  21.302  0.00  0.00    +0.181 C 
ENDROOT
BRANCH  12   4
ATOM      4  O   UNL     1      11.293   5.749  20.487  0.00  0.00    -0.388 OA
ATOM     32  H   UNL     1      10.462   6.019  20.060  0.00  0.00    +0.210 HD
ENDBRANCH  12   4
BRANCH  11   9
ATOM      9  N   UNL     1      12.231   9.050  19.278  0.00  0.00    -0.305 NA
ATOM     31  H   UNL     1      11.895   9.997  19.457  0.00  0.00    +0.123 HD
BRANCH   9  16
ATOM     16  C   UNL     1      12.231   8.818  17.838  0.00  0.00    +0.116 C 
BRANCH  16  17
ATOM     17  C   UNL     1      13.230   9.693  17.130  0.00  0.00    -0.033 A 
ATOM     19  C   UNL     1      13.651  10.887  17.715  0.00  0.00    +0.007 A 
ATOM     20  C   UNL     1      13.737   9.309  15.887  0.00  0.00    +0.007 A 
ATOM     21  C   UNL     1      15.084  11.313  15.818  0.00  0.00    +0.088 A 
ATOM     22  C   UNL     1      14.577  11.697  17.060  0.00  0.00    +0.027 A 
ATOM     23  C   UNL     1      14.664  10.119  15.232  0.00  0.00    +0.027 A 
BRANCH  21   2
ATOM      2  S   UNL     1      16.241  12.330  14.995  0.00  0.00    -0.006 S 
ATOM      7  O   UNL     1      16.431  13.549  15.766  0.00  0.00    -0.170 OA
ATOM      8  O   UNL     1      17.392  11.507  14.648  0.00  0.00    -0.170 OA
ATOM     29  C   UNL     1      15.427  12.795  13.484  0.00  0.00    +0.200 C 
ENDBRANCH  21   2
ENDBRANCH  16  17
ENDBRANCH   9  16
ENDBRANCH  11   9
BRANCH  13  15
ATOM     15  C   UNL     1      14.176   7.551  21.848  0.00  0.00    +0.140 C 
BRANCH  15  10
ATOM     10  N   UNL     1      14.953   6.528  21.120  0.00  0.00    -0.187 NA
ATOM     33  H   UNL     1      15.250   5.716  21.677  0.00  0.00    +0.148 HD
BRANCH  10   1
ATOM      1  S   UNL     1      15.885   6.967  19.766  0.00  0.00    +0.058 S 
ATOM      5  O   UNL     1      15.429   8.249  19.266  0.00  0.00    -0.153 OA
ATOM      6  O   UNL     1      15.984   5.828  18.873  0.00  0.00    -0.153 OA
BRANCH   1  18
ATOM     18  C   UNL     1      17.483   7.198  20.486  0.00  0.00    +0.105 A 
ATOM     24  C   UNL     1      17.774   8.377  21.173  0.00  0.00    +0.029 A 
ATOM     25  C   UNL     1      18.453   6.204  20.365  0.00  0.00    +0.029 A 
ATOM     26  C   UNL     1      19.035   8.561  21.738  0.00  0.00    +0.005 A 
ATOM     27  C   UNL     1      19.714   6.388  20.931  0.00  0.00    +0.005 A 
ATOM     28  C   UNL     1      20.006   7.566  21.617  0.00  0.00    -0.050 A 
ATOM     30  C   UNL     1      21.355   7.763  22.222  0.00  0.00    +0.044 C 
ENDBRANCH   1  18
ENDBRANCH  10   1
ENDBRANCH  15  10
ENDBRANCH  13  15
TORSDOF 9
ENDMDL
MODEL 4
REMARK VINA RESULT:      -6.3     27.551     31.269
REMARK  Name = 75536713
REMARK  11 active torsions:
REMARK  status: ('A' for Active; 'I' for Inactive)
REMARK    1  A    between atoms: S_1  and  N_10
REMARK    2  A    between atoms: S_1  and  C_18
REMARK    3  A    between atoms: S_2  and  C_21
REMARK    4  A    between atoms: S_2  and  C_29
REMARK    5  A    between atoms: O_4  and  C_12
REMARK    6  A    between atoms: N_9  and  C_11
REMARK    7  A    between atoms: N_9  and  C_16
REMARK    8  A    between atoms: N_10  and  C_15
REMARK    9  A    between atoms: C_13  and  C_15
REMARK   10  A    between atoms: C_16  and  C_17
REMARK   11  A    between atoms: C_28  and  C_30
REMARK                            x       y       z     vdW  Elec       q    Type
REMARK                         _______ _______ _______ _____ _____    ______ ____
ROOT
ATOM      3  O   UNL     1     -16.087   2.861  23.547  0.00  0.00    -0.371 OA
ATOM     11  C   UNL     1     -17.337   4.251  25.000  0.00  0.00    +0.111 C 
ATOM     12  C   UNL     1     -17.057   5.034  23.729  0.00  0.00    +0.164 C 
ATOM     13  C   UNL     1     -16.073   4.169  22.945  0.00  0.00    +0.164 C 
ATOM     14  C   UNL     1     -17.124   2.819  24.536  0.00  0.00    +0.181 C 
ENDROOT
BRANCH  12   4
ATOM      4  O   UNL     1     -18.282   5.130  22.997  0.00  0.00    -0.388 OA
ATOM     32  H   UNL     1     -18.597   4.224  22.842  0.00  0.00    +0.210 HD
ENDBRANCH  12   4
BRANCH  11   9
ATOM      9  N   UNL     1     -16.398   4.596  26.064  0.00  0.00    -0.305 NA
ATOM     31  H   UNL     1     -15.613   3.945  26.073  0.00  0.00    +0.123 HD
BRANCH   9  16
ATOM     16  C   UNL     1     -17.049   4.564  27.369  0.00  0.00    +0.116 C 
BRANCH  16  17
ATOM     17  C   UNL     1     -16.557   3.419  28.212  0.00  0.00    -0.033 A 
ATOM     19  C   UNL     1     -15.480   3.602  29.079  0.00  0.00    +0.007 A 
ATOM     20  C   UNL     1     -17.179   2.173  28.127  0.00  0.00    +0.007 A 
ATOM     21  C   UNL     1     -15.647   1.295  29.776  0.00  0.00    +0.088 A 
ATOM     22  C   UNL     1     -15.025   2.541  29.861  0.00  0.00    +0.027 A 
ATOM     23  C   UNL     1     -16.724   1.111  28.909  0.00  0.00    +0.027 A 
BRANCH  21   2
ATOM      2  S   UNL     1     -15.075  -0.035  30.751  0.00  0.00    -0.006 S 
ATOM      7  O   UNL     1     -14.721   0.465  32.072  0.00  0.00    -0.170 OA
ATOM      8  O   UNL     1     -16.030  -1.127  30.624  0.00  0.00    -0.170 OA
ATOM     29  C   UNL     1     -13.560  -0.540  29.967  0.00  0.00    +0.200 C 
ENDBRANCH  21   2
ENDBRANCH  16  17
ENDBRANCH   9  16
ENDBRANCH  11   9
BRANCH  13  15
ATOM     15  C   UNL     1     -14.646   4.693  22.973  0.00  0.00    +0.140 C 
BRANCH  15  10
ATOM     10  N   UNL     1     -14.288   5.230  21.646  0.00  0.00    -0.187 NA
ATOM     33  H   UNL     1     -13.408   4.879  21.246  0.00  0.00    +0.148 HD
BRANCH  10   1
ATOM      1  S   UNL     1     -14.836   6.770  21.173  0.00  0.00    +0.058 S 
ATOM      5  O   UNL     1     -14.831   7.654  22.322  0.00  0.00    -0.153 OA
ATOM      6  O   UNL     1     -16.038   6.618  20.375  0.00  0.00    -0.153 OA
BRANCH   1  18
ATOM     18  C   UNL     1     -13.551   7.290  20.077  0.00  0.00    +0.105 A 
ATOM     24  C   UNL     1     -13.873   7.904  18.866  0.00  0.00    +0.029 A 
ATOM     25  C   UNL     1     -12.214   7.085  20.421  0.00  0.00    +0.029 A 
ATOM     26  C   UNL     1     -12.859   8.311  18.000  0.00  0.00    +0.005 A 
ATOM     27  C   UNL     1     -11.201   7.494  19.555  0.00  0.00    +0.005 A 
ATOM     28  C   UNL     1     -11.522   8.107  18.344  0.00  0.00    -0.050 A 
ATOM     30  C   UNL     1     -10.438   8.543  17.418  0.00  0.00    +0.044 C 
ENDBRANCH   1  18
ENDBRANCH  10   1
ENDBRANCH  15  10
ENDBRANCH  13  15
TORSDOF 9
ENDMDL
MODEL 5
REMARK VINA RESULT:      -6.3     27.259     30.074
REMARK  Name = 75536713
REMARK  11 active torsions:
REMARK  status: ('A' for Active; 'I' for Inactive)
REMARK    1  A    between atoms: S_1  and  N_10
REMARK    2  A    between atoms: S_1  and  C_18
REMARK    3  A    between atoms: S_2  and  C_21
REMARK    4  A    between atoms: S_2  and  C_29
REMARK    5  A    between atoms: O_4  and  C_12
REMARK    6  A    between atoms: N_9  and  C_11
REMARK    7  A    between atoms: N_9  and  C_16
REMARK    8  A    between atoms: N_10  and  C_15
REMARK    9  A    between atoms: C_13  and  C_15
REMARK   10  A    between atoms: C_16  and  C_17
REMARK   11  A    between atoms: C_28  and  C_30
REMARK                            x       y       z     vdW  Elec       q    Type
REMARK                         _______ _______ _______ _____ _____    ______ ____
ROOT
ATOM      3  O   UNL     1      -5.103 -10.486  18.872  0.00  0.00    -0.371 OA
ATOM     11  C   UNL     1      -6.419 -12.454  18.878  0.00  0.00    +0.111 C 
ATOM     12  C   UNL     1      -5.265 -12.666  17.914  0.00  0.00    +0.164 C 
ATOM     13  C   UNL     1      -4.598 -11.298  17.795  0.00  0.00    +0.164 C 
ATOM     14  C   UNL     1      -5.904 -11.306  19.731  0.00  0.00    +0.181 C 
ENDROOT
BRANCH  12   4
ATOM      4  O   UNL     1      -4.350 -13.581  18.522  0.00  0.00    -0.388 OA
ATOM     32  H   UNL     1      -4.676 -13.760  19.421  0.00  0.00    +0.210 HD
ENDBRANCH  12   4
BRANCH  11   9
ATOM      9  N   UNL     1      -7.643 -12.071  18.179  0.00  0.00    -0.305 NA
ATOM     31  H   UNL     1      -7.421 -11.534  17.340  0.00  0.00    +0.123 HD
BRANCH   9  16
ATOM     16  C   UNL     1      -8.508 -11.267  19.035  0.00  0.00    +0.116 C 
BRANCH  16  17
ATOM     17  C   UNL     1      -9.275 -10.240  18.248  0.00  0.00    -0.033 A 
ATOM     19  C   UNL     1      -8.648  -9.534  17.222  0.00  0.00    +0.007 A 
ATOM     20  C   UNL     1     -10.617  -9.993  18.545  0.00  0.00    +0.007 A 
ATOM     21  C   UNL     1     -10.699  -8.335  16.789  0.00  0.00    +0.088 A 
ATOM     22  C   UNL     1      -9.359  -8.582  16.492  0.00  0.00    +0.027 A 
ATOM     23  C   UNL     1     -11.328  -9.041  17.815  0.00  0.00    +0.027 A 
BRANCH  21   2
ATOM      2  S   UNL     1     -11.589  -7.141  15.878  0.00  0.00    -0.006 S 
ATOM      7  O   UNL     1     -11.366  -5.831  16.472  0.00  0.00    -0.170 OA
ATOM      8  O   UNL     1     -11.305  -7.352  14.465  0.00  0.00    -0.170 OA
ATOM     29  C   UNL     1     -13.297  -7.552  16.158  0.00  0.00    +0.200 C 
ENDBRANCH  21   2
ENDBRANCH  16  17
ENDBRANCH   9  16
ENDBRANCH  11   9
BRANCH  13  15
ATOM     15  C   UNL     1      -4.893 -10.588  16.483  0.00  0.00    +0.140 C 
BRANCH  15  10
ATOM     10  N   UNL     1      -3.626 -10.234  15.813  0.00  0.00    -0.187 NA
ATOM     33  H   UNL     1      -3.480  -9.231  15.640  0.00  0.00    +0.148 HD
BRANCH  10   1
ATOM      1  S   UNL     1      -2.861 -11.354  14.786  0.00  0.00    +0.058 S 
ATOM      5  O   UNL     1      -3.555 -12.625  14.862  0.00  0.00    -0.153 OA
ATOM      6  O   UNL     1      -1.428 -11.291  15.004  0.00  0.00    -0.153 OA
BRANCH   1  18
ATOM     18  C   UNL     1      -3.173 -10.655  13.193  0.00  0.00    +0.105 A 
ATOM     24  C   UNL     1      -4.481 -10.371  12.800  0.00  0.00    +0.029 A 
ATOM     25  C   UNL     1      -2.111 -10.391  12.327  0.00  0.00    +0.029 A 
ATOM     26  C   UNL     1      -4.727  -9.823  11.542  0.00  0.00    +0.005 A 
ATOM     27  C   UNL     1      -2.358  -9.842  11.070  0.00  0.00    +0.005 A 
ATOM     28  C   UNL     1      -3.665  -9.558  10.676  0.00  0.00    -0.050 A 
ATOM     30  C   UNL     1      -3.928  -8.972   9.330  0.00  0.00    +0.044 C 
ENDBRANCH   1  18
ENDBRANCH  10   1
ENDBRANCH  15  10
ENDBRANCH  13  15
TORSDOF 9
ENDMDL
MODEL 6
REMARK VINA RESULT:      -6.2     26.865     29.632
REMARK  Name = 75536713
REMARK  11 active torsions:
REMARK  status: ('A' for Active; 'I' for Inactive)
REMARK    1  A    between atoms: S_1  and  N_10
REMARK    2  A    between atoms: S_1  and  C_18
REMARK    3  A    between atoms: S_2  and  C_21
REMARK    4  A    between atoms: S_2  and  C_29
REMARK    5  A    between atoms: O_4  and  C_12
REMARK    6  A    between atoms: N_9  and  C_11
REMARK    7  A    between atoms: N_9  and  C_16
REMARK    8  A    between atoms: N_10  and  C_15
REMARK    9  A    between atoms: C_13  and  C_15
REMARK   10  A    between atoms: C_16  and  C_17
REMARK   11  A    between atoms: C_28  and  C_30
REMARK                            x       y       z     vdW  Elec       q    Type
REMARK                         _______ _______ _______ _____ _____    ______ ____
ROOT
ATOM      3  O   UNL     1      -3.936 -12.258  15.750  0.00  0.00    -0.371 OA
ATOM     11  C   UNL     1      -2.191 -11.221  14.532  0.00  0.00    +0.111 C 
ATOM     12  C   UNL     1      -2.252 -10.574  15.905  0.00  0.00    +0.164 C 
ATOM     13  C   UNL     1      -3.523 -11.129  16.543  0.00  0.00    +0.164 C 
ATOM     14  C   UNL     1      -2.924 -12.531  14.774  0.00  0.00    +0.181 C 
ENDROOT
BRANCH  12   4
ATOM      4  O   UNL     1      -1.119 -11.025  16.651  0.00  0.00    -0.388 OA
ATOM     32  H   UNL     1      -0.358 -11.029  16.046  0.00  0.00    +0.210 HD
ENDBRANCH  12   4
BRANCH  11   9
ATOM      9  N   UNL     1      -2.882 -10.418  13.527  0.00  0.00    -0.305 NA
ATOM     31  H   UNL     1      -3.773 -10.848  13.278  0.00  0.00    +0.123 HD
BRANCH   9  16
ATOM     16  C   UNL     1      -2.075 -10.281  12.319  0.00  0.00    +0.116 C 
BRANCH  16  17
ATOM     17  C   UNL     1      -2.910 -10.400  11.072  0.00  0.00    -0.033 A 
ATOM     19  C   UNL     1      -3.164  -9.272  10.292  0.00  0.00    +0.007 A 
ATOM     20  C   UNL     1      -3.429 -11.640  10.695  0.00  0.00    +0.007 A 
ATOM     21  C   UNL     1      -4.455 -10.621   8.760  0.00  0.00    +0.088 A 
ATOM     22  C   UNL     1      -3.936  -9.382   9.136  0.00  0.00    +0.027 A 
ATOM     23  C   UNL     1      -4.201 -11.750   9.539  0.00  0.00    +0.027 A 
BRANCH  21   2
ATOM      2  S   UNL     1      -5.425 -10.759   7.314  0.00  0.00    -0.006 S 
ATOM      7  O   UNL     1      -5.985  -9.454   6.995  0.00  0.00    -0.170 OA
ATOM      8  O   UNL     1      -4.642 -11.473   6.316  0.00  0.00    -0.170 OA
ATOM     29  C   UNL     1      -6.784 -11.802   7.791  0.00  0.00    +0.200 C 
ENDBRANCH  21   2
ENDBRANCH  16  17
ENDBRANCH   9  16
ENDBRANCH  11   9
BRANCH  13  15
ATOM     15  C   UNL     1      -4.670 -10.131  16.585  0.00  0.00    +0.140 C 
BRANCH  15  10
ATOM     10  N   UNL     1      -5.356 -10.107  15.279  0.00  0.00    -0.187 NA
ATOM     33  H   UNL     1      -4.934  -9.499  14.565  0.00  0.00    +0.148 HD
BRANCH  10   1
ATOM      1  S   UNL     1      -7.024 -10.430  15.186  0.00  0.00    +0.058 S 
ATOM      5  O   UNL     1      -7.738  -9.525  16.066  0.00  0.00    -0.153 OA
ATOM      6  O   UNL     1      -7.233 -11.862  15.287  0.00  0.00    -0.153 OA
BRANCH   1  18
ATOM     18  C   UNL     1      -7.389  -9.972  13.519  0.00  0.00    +0.105 A 
ATOM     24  C   UNL     1      -6.388  -9.437  12.708  0.00  0.00    +0.029 A 
ATOM     25  C   UNL     1      -8.679 -10.141  13.015  0.00  0.00    +0.029 A 
ATOM     26  C   UNL     1      -6.677  -9.072  11.393  0.00  0.00    +0.005 A 
ATOM     27  C   UNL     1      -8.967  -9.777  11.700  0.00  0.00    +0.005 A 
ATOM     28  C   UNL     1      -7.966  -9.242  10.889  0.00  0.00    -0.050 A 
ATOM     30  C   UNL     1      -8.275  -8.852   9.483  0.00  0.00    +0.044 C 
ENDBRANCH   1  18
ENDBRANCH  10   1
ENDBRANCH  15  10
ENDBRANCH  13  15
TORSDOF 9
ENDMDL
MODEL 7
REMARK VINA RESULT:      -6.2     27.685     31.374
REMARK  Name = 75536713
REMARK  11 active torsions:
REMARK  status: ('A' for Active; 'I' for Inactive)
REMARK    1  A    between atoms: S_1  and  N_10
REMARK    2  A    between atoms: S_1  and  C_18
REMARK    3  A    between atoms: S_2  and  C_21
REMARK    4  A    between atoms: S_2  and  C_29
REMARK    5  A    between atoms: O_4  and  C_12
REMARK    6  A    between atoms: N_9  and  C_11
REMARK    7  A    between atoms: N_9  and  C_16
REMARK    8  A    between atoms: N_10  and  C_15
REMARK    9  A    between atoms: C_13  and  C_15
REMARK   10  A    between atoms: C_16  and  C_17
REMARK   11  A    between atoms: C_28  and  C_30
REMARK                            x       y       z     vdW  Elec       q    Type
REMARK                         _______ _______ _______ _____ _____    ______ ____
ROOT
ATOM      3  O   UNL     1     -16.719   2.277  23.050  0.00  0.00    -0.371 OA
ATOM     11  C   UNL     1     -17.611   2.110  25.237  0.00  0.00    +0.111 C 
ATOM     12  C   UNL     1     -17.431   3.583  24.917  0.00  0.00    +0.164 C 
ATOM     13  C   UNL     1     -16.657   3.606  23.600  0.00  0.00    +0.164 C 
ATOM     14  C   UNL     1     -17.609   1.488  23.849  0.00  0.00    +0.181 C 
ENDROOT
BRANCH  12   4
ATOM      4  O   UNL     1     -18.728   4.145  24.705  0.00  0.00    -0.388 OA
ATOM     32  H   UNL     1     -19.102   4.348  25.579  0.00  0.00    +0.210 HD
ENDBRANCH  12   4
BRANCH  11   9
ATOM      9  N   UNL     1     -16.505   1.593  26.038  0.00  0.00    -0.305 NA
ATOM     31  H   UNL     1     -16.022   0.845  25.540  0.00  0.00    +0.123 HD
BRANCH   9  16
ATOM     16  C   UNL     1     -16.980   1.073  27.316  0.00  0.00    +0.116 C 
BRANCH  16  17
ATOM     17  C   UNL     1     -16.235   1.674  28.477  0.00  0.00    -0.033 A 
ATOM     19  C   UNL     1     -15.782   0.859  29.514  0.00  0.00    +0.007 A 
ATOM     20  C   UNL     1     -15.995   3.049  28.515  0.00  0.00    +0.007 A 
ATOM     21  C   UNL     1     -14.851   2.790  30.627  0.00  0.00    +0.088 A 
ATOM     22  C   UNL     1     -15.091   1.416  30.589  0.00  0.00    +0.027 A 
ATOM     23  C   UNL     1     -15.303   3.606  29.590  0.00  0.00    +0.027 A 
BRANCH  21   2
ATOM      2  S   UNL     1     -13.989   3.488  31.976  0.00  0.00    -0.006 S 
ATOM      7  O   UNL     1     -14.409   2.824  33.201  0.00  0.00    -0.170 OA
ATOM      8  O   UNL     1     -12.575   3.534  31.627  0.00  0.00    -0.170 OA
ATOM     29  C   UNL     1     -14.585   5.161  32.063  0.00  0.00    +0.200 C 
ENDBRANCH  21   2
ENDBRANCH  16  17
ENDBRANCH   9  16
ENDBRANCH  11   9
BRANCH  13  15
ATOM     15  C   UNL     1     -15.193   3.987  23.762  0.00  0.00    +0.140 C 
BRANCH  15  10
ATOM     10  N   UNL     1     -14.644   4.411  22.459  0.00  0.00    -0.187 NA
ATOM     33  H   UNL     1     -13.629   4.296  22.345  0.00  0.00    +0.148 HD
BRANCH  10   1
ATOM      1  S   UNL     1     -15.428   5.621  21.556  0.00  0.00    +0.058 S 
ATOM      5  O   UNL     1     -16.169   6.486  22.453  0.00  0.00    -0.153 OA
ATOM      6  O   UNL     1     -16.093   5.006  20.422  0.00  0.00    -0.153 OA
BRANCH   1  18
ATOM     18  C   UNL     1     -14.060   6.540  20.916  0.00  0.00    +0.105 A 
ATOM     24  C   UNL     1     -14.268   7.501  19.928  0.00  0.00    +0.029 A 
ATOM     25  C   UNL     1     -12.773   6.300  21.398  0.00  0.00    +0.029 A 
ATOM     26  C   UNL     1     -13.188   8.224  19.421  0.00  0.00    +0.005 A 
ATOM     27  C   UNL     1     -11.694   7.023  20.892  0.00  0.00    +0.005 A 
ATOM     28  C   UNL     1     -11.900   7.985  19.903  0.00  0.00    -0.050 A 
ATOM     30  C   UNL     1     -10.745   8.758  19.361  0.00  0.00    +0.044 C 
ENDBRANCH   1  18
ENDBRANCH  10   1
ENDBRANCH  15  10
ENDBRANCH  13  15
TORSDOF 9
ENDMDL
MODEL 8
REMARK VINA RESULT:      -6.1     27.229     31.068
REMARK  Name = 75536713
REMARK  11 active torsions:
REMARK  status: ('A' for Active; 'I' for Inactive)
REMARK    1  A    between atoms: S_1  and  N_10
REMARK    2  A    between atoms: S_1  and  C_18
REMARK    3  A    between atoms: S_2  and  C_21
REMARK    4  A    between atoms: S_2  and  C_29
REMARK    5  A    between atoms: O_4  and  C_12
REMARK    6  A    between atoms: N_9  and  C_11
REMARK    7  A    between atoms: N_9  and  C_16
REMARK    8  A    between atoms: N_10  and  C_15
REMARK    9  A    between atoms: C_13  and  C_15
REMARK   10  A    between atoms: C_16  and  C_17
REMARK   11  A    between atoms: C_28  and  C_30
REMARK                            x       y       z     vdW  Elec       q    Type
REMARK                         _______ _______ _______ _____ _____    ______ ____
ROOT
ATOM      3  O   UNL     1     -18.149   4.980  23.634  0.00  0.00    -0.371 OA
ATOM     11  C   UNL     1     -16.196   4.768  22.313  0.00  0.00    +0.111 C 
ATOM     12  C   UNL     1     -16.151   3.697  23.389  0.00  0.00    +0.164 C 
ATOM     13  C   UNL     1     -17.312   4.031  24.323  0.00  0.00    +0.164 C 
ATOM     14  C   UNL     1     -17.673   5.124  22.290  0.00  0.00    +0.181 C 
ENDROOT
BRANCH  12   4
ATOM      4  O   UNL     1     -16.404   2.438  22.761  0.00  0.00    -0.388 OA
ATOM     32  H   UNL     1     -17.021   1.949  23.332  0.00  0.00    +0.210 HD
ENDBRANCH  12   4
BRANCH  11   9
ATOM      9  N   UNL     1     -15.388   5.930  22.676  0.00  0.00    -0.305 NA
ATOM     31  H   UNL     1     -15.649   6.737  22.109  0.00  0.00    +0.123 HD
BRANCH   9  16
ATOM     16  C   UNL     1     -13.967   5.663  22.484  0.00  0.00    +0.116 C 
BRANCH  16  17
ATOM     17  C   UNL     1     -13.409   6.418  21.308  0.00  0.00    -0.033 A 
ATOM     19  C   UNL     1     -12.030   6.499  21.121  0.00  0.00    +0.007 A 
ATOM     20  C   UNL     1     -14.273   7.037  20.403  0.00  0.00    +0.007 A 
ATOM     21  C   UNL     1     -12.376   7.816  19.126  0.00  0.00    +0.088 A 
ATOM     22  C   UNL     1     -11.513   7.198  20.031  0.00  0.00    +0.027 A 
ATOM     23  C   UNL     1     -13.756   7.735  19.312  0.00  0.00    +0.027 A 
BRANCH  21   2
ATOM      2  S   UNL     1     -11.729   8.694  17.763  0.00  0.00    -0.006 S 
ATOM      7  O   UNL     1     -11.540  10.086  18.144  0.00  0.00    -0.170 OA
ATOM      8  O   UNL     1     -10.607   7.933  17.231  0.00  0.00    -0.170 OA
ATOM     29  C   UNL     1     -13.034   8.661  16.555  0.00  0.00    +0.200 C 
ENDBRANCH  21   2
ENDBRANCH  16  17
ENDBRANCH   9  16
ENDBRANCH  11   9
BRANCH  13  15
ATOM     15  C   UNL     1     -16.874   4.650  25.641  0.00  0.00    +0.140 C 
BRANCH  15  10
ATOM     10  N   UNL     1     -16.057   3.681  26.398  0.00  0.00    -0.187 NA
ATOM     33  H   UNL     1     -15.081   3.584  26.089  0.00  0.00    +0.148 HD
BRANCH  10   1
ATOM      1  S   UNL     1     -16.799   2.357  27.166  0.00  0.00    +0.058 S 
ATOM      5  O   UNL     1     -16.488   1.143  26.437  0.00  0.00    -0.153 OA
ATOM      6  O   UNL     1     -18.178   2.696  27.463  0.00  0.00    -0.153 OA
BRANCH   1  18
ATOM     18  C   UNL     1     -15.938   2.304  28.708  0.00  0.00    +0.105 A 
ATOM     24  C   UNL     1     -15.904   1.122  29.448  0.00  0.00    +0.029 A 
ATOM     25  C   UNL     1     -15.294   3.445  29.187  0.00  0.00    +0.029 A 
ATOM     26  C   UNL     1     -15.226   1.081  30.666  0.00  0.00    +0.005 A 
ATOM     27  C   UNL     1     -14.616   3.404  30.405  0.00  0.00    +0.005 A 
ATOM     28  C   UNL     1     -14.582   2.222  31.145  0.00  0.00    -0.050 A 
ATOM     30  C   UNL     1     -13.858   2.179  32.448  0.00  0.00    +0.044 C 
ENDBRANCH   1  18
ENDBRANCH  10   1
ENDBRANCH  15  10
ENDBRANCH  13  15
TORSDOF 9
ENDMDL
MODEL 9
REMARK VINA RESULT:      -6.1     27.027     29.619
REMARK  Name = 75536713
REMARK  11 active torsions:
REMARK  status: ('A' for Active; 'I' for Inactive)
REMARK    1  A    between atoms: S_1  and  N_10
REMARK    2  A    between atoms: S_1  and  C_18
REMARK    3  A    between atoms: S_2  and  C_21
REMARK    4  A    between atoms: S_2  and  C_29
REMARK    5  A    between atoms: O_4  and  C_12
REMARK    6  A    between atoms: N_9  and  C_11
REMARK    7  A    between atoms: N_9  and  C_16
REMARK    8  A    between atoms: N_10  and  C_15
REMARK    9  A    between atoms: C_13  and  C_15
REMARK   10  A    between atoms: C_16  and  C_17
REMARK   11  A    between atoms: C_28  and  C_30
REMARK                            x       y       z     vdW  Elec       q    Type
REMARK                         _______ _______ _______ _____ _____    ______ ____
ROOT
ATOM      3  O   UNL     1      -3.607 -12.728  15.178  0.00  0.00    -0.371 OA
ATOM     11  C   UNL     1      -2.016 -11.102  14.521  0.00  0.00    +0.111 C 
ATOM     12  C   UNL     1      -2.512 -10.737  15.910  0.00  0.00    +0.164 C 
ATOM     13  C   UNL     1      -3.678 -11.687  16.171  0.00  0.00    +0.164 C 
ATOM     14  C   UNL     1      -2.393 -12.572  14.434  0.00  0.00    +0.181 C 
ENDROOT
BRANCH  12   4
ATOM      4  O   UNL     1      -1.461 -11.021  16.836  0.00  0.00    -0.388 OA
ATOM     32  H   UNL     1      -0.743 -11.446  16.337  0.00  0.00    +0.210 HD
ENDBRANCH  12   4
BRANCH  11   9
ATOM      9  N   UNL     1      -2.698 -10.330  13.485  0.00  0.00    -0.305 NA
ATOM     31  H   UNL     1      -3.627 -10.713  13.308  0.00  0.00    +0.123 HD
BRANCH   9  16
ATOM     16  C   UNL     1      -1.941 -10.342  12.238  0.00  0.00    +0.116 C 
BRANCH  16  17
ATOM     17  C   UNL     1      -2.843 -10.418  11.036  0.00  0.00    -0.033 A 
ATOM     19  C   UNL     1      -3.382 -11.643  10.644  0.00  0.00    +0.007 A 
ATOM     20  C   UNL     1      -3.142  -9.261  10.314  0.00  0.00    +0.007 A 
ATOM     21  C   UNL     1      -4.518 -10.558   8.809  0.00  0.00    +0.088 A 
ATOM     22  C   UNL     1      -4.220 -11.713   9.531  0.00  0.00    +0.027 A 
ATOM     23  C   UNL     1      -3.979  -9.332   9.201  0.00  0.00    +0.027 A 
BRANCH  21   2
ATOM      2  S   UNL     1      -5.563 -10.646   7.413  0.00  0.00    -0.006 S 
ATOM      7  O   UNL     1      -6.269  -9.381   7.270  0.00  0.00    -0.170 OA
ATOM      8  O   UNL     1      -4.780 -11.166   6.300  0.00  0.00    -0.170 OA
ATOM     29  C   UNL     1      -6.777 -11.871   7.846  0.00  0.00    +0.200 C 
ENDBRANCH  21   2
ENDBRANCH  16  17
ENDBRANCH   9  16
ENDBRANCH  11   9
BRANCH  13  15
ATOM     15  C   UNL     1      -5.041 -11.020  16.067  0.00  0.00    +0.140 C 
BRANCH  15  10
ATOM     10  N   UNL     1      -5.335 -10.292  17.318  0.00  0.00    -0.187 NA
ATOM     33  H   UNL     1      -4.606  -9.640  17.634  0.00  0.00    +0.148 HD
BRANCH  10   1
ATOM      1  S   UNL     1      -6.370 -10.978  18.481  0.00  0.00    +0.058 S 
ATOM      5  O   UNL     1      -5.969 -10.535  19.801  0.00  0.00    -0.153 OA
ATOM      6  O   UNL     1      -6.521 -12.394  18.201  0.00  0.00    -0.153 OA
BRANCH   1  18
ATOM     18  C   UNL     1      -7.912 -10.208  18.091  0.00  0.00    +0.105 A 
ATOM     24  C   UNL     1      -7.948  -9.121  17.217  0.00  0.00    +0.029 A 
ATOM     25  C   UNL     1      -9.094 -10.684  18.661  0.00  0.00    +0.029 A 
ATOM     26  C   UNL     1      -9.164  -8.511  16.913  0.00  0.00    +0.005 A 
ATOM     27  C   UNL     1     -10.310 -10.074  18.355  0.00  0.00    +0.005 A 
ATOM     28  C   UNL     1     -10.346  -8.987  17.481  0.00  0.00    -0.050 A 
ATOM     30  C   UNL     1     -11.647  -8.335  17.156  0.00  0.00    +0.044 C 
ENDBRANCH   1  18
ENDBRANCH  10   1
ENDBRANCH  15  10
ENDBRANCH  13  15
TORSDOF 9
ENDMDL
MODEL 10
REMARK VINA RESULT:      -6.0     26.448     28.809
REMARK  Name = 75536713
REMARK  11 active torsions:
REMARK  status: ('A' for Active; 'I' for Inactive)
REMARK    1  A    between atoms: S_1  and  N_10
REMARK    2  A    between atoms: S_1  and  C_18
REMARK    3  A    between atoms: S_2  and  C_21
REMARK    4  A    between atoms: S_2  and  C_29
REMARK    5  A    between atoms: O_4  and  C_12
REMARK    6  A    between atoms: N_9  and  C_11
REMARK    7  A    between atoms: N_9  and  C_16
REMARK    8  A    between atoms: N_10  and  C_15
REMARK    9  A    between atoms: C_13  and  C_15
REMARK   10  A    between atoms: C_16  and  C_17
REMARK   11  A    between atoms: C_28  and  C_30
REMARK                            x       y       z     vdW  Elec       q    Type
REMARK                         _______ _______ _______ _____ _____    ______ ____
ROOT
ATOM      3  O   UNL     1     -10.802  10.792  16.241  0.00  0.00    -0.371 OA
ATOM     11  C   UNL     1     -10.681   8.433  16.077  0.00  0.00    +0.111 C 
ATOM     12  C   UNL     1     -11.329   8.957  14.808  0.00  0.00    +0.164 C 
ATOM     13  C   UNL     1     -11.573  10.440  15.077  0.00  0.00    +0.164 C 
ATOM     14  C   UNL     1      -9.981   9.675  16.604  0.00  0.00    +0.181 C 
ENDROOT
BRANCH  12   4
ATOM      4  O   UNL     1     -10.380   8.825  13.747  0.00  0.00    -0.388 OA
ATOM     32  H   UNL     1     -10.863   8.511  12.964  0.00  0.00    +0.210 HD
ENDBRANCH  12   4
BRANCH  11   9
ATOM      9  N   UNL     1     -11.676   7.954  17.033  0.00  0.00    -0.305 NA
ATOM     31  H   UNL     1     -12.529   8.512  16.970  0.00  0.00    +0.123 HD
BRANCH   9  16
ATOM     16  C   UNL     1     -11.170   8.025  18.399  0.00  0.00    +0.116 C 
BRANCH  16  17
ATOM     17  C   UNL     1     -12.208   7.601  19.403  0.00  0.00    -0.033 A 
ATOM     19  C   UNL     1     -11.815   7.063  20.629  0.00  0.00    +0.007 A 
ATOM     20  C   UNL     1     -13.564   7.746  19.109  0.00  0.00    +0.007 A 
ATOM     21  C   UNL     1     -14.131   6.816  21.265  0.00  0.00    +0.088 A 
ATOM     22  C   UNL     1     -12.776   6.671  21.560  0.00  0.00    +0.027 A 
ATOM     23  C   UNL     1     -14.525   7.354  20.040  0.00  0.00    +0.027 A 
BRANCH  21   2
ATOM      2  S   UNL     1     -15.335   6.321  22.429  0.00  0.00    -0.006 S 
ATOM      7  O   UNL     1     -15.645   7.448  23.297  0.00  0.00    -0.170 OA
ATOM      8  O   UNL     1     -16.407   5.650  21.707  0.00  0.00    -0.170 OA
ATOM     29  C   UNL     1     -14.509   5.107  23.432  0.00  0.00    +0.200 C 
ENDBRANCH  21   2
ENDBRANCH  16  17
ENDBRANCH   9  16
ENDBRANCH  11   9
BRANCH  13  15
ATOM     15  C   UNL     1     -13.031  10.778  15.350  0.00  0.00    +0.140 C 
BRANCH  15  10
ATOM     10  N   UNL     1     -13.308  10.648  16.794  0.00  0.00    -0.187 NA
ATOM     33  H   UNL     1     -13.616   9.718  17.107  0.00  0.00    +0.148 HD
BRANCH  10   1
ATOM      1  S   UNL     1     -13.792  12.007  17.695  0.00  0.00    +0.058 S 
ATOM      5  O   UNL     1     -15.208  12.241  17.488  0.00  0.00    -0.153 OA
ATOM      6  O   UNL     1     -12.838  13.079  17.482  0.00  0.00    -0.153 OA
BRANCH   1  18
ATOM     18  C   UNL     1     -13.569  11.440  19.354  0.00  0.00    +0.105 A 
ATOM     24  C   UNL     1     -14.678  11.129  20.140  0.00  0.00    +0.029 A 
ATOM     25  C   UNL     1     -12.283  11.307  19.879  0.00  0.00    +0.029 A 
ATOM     26  C   UNL     1     -14.502  10.685  21.450  0.00  0.00    +0.005 A 
ATOM     27  C   UNL     1     -12.107  10.862  21.188  0.00  0.00    +0.005 A 
ATOM     28  C   UNL     1     -13.216  10.551  21.975  0.00  0.00    -0.050 A 
ATOM     30  C   UNL     1     -13.028  10.075  23.376  0.00  0.00    +0.044 C 
ENDBRANCH   1  18
ENDBRANCH  10   1
ENDBRANCH  15  10
ENDBRANCH  13  15
TORSDOF 9
ENDMDL
