MODEL 1
REMARK VINA RESULT:      -8.0      0.000      0.000
REMARK  Name = 86768986
REMARK  9 active torsions:
REMARK  status: ('A' for Active; 'I' for Inactive)
REMARK    1  A    between atoms: O_1  and  C_10
REMARK    2  A    between atoms: O_2  and  C_12
REMARK    3  A    between atoms: O_4  and  C_26
REMARK    4  A    between atoms: O_4  and  C_29
REMARK    5  A    between atoms: N_5  and  C_9
REMARK    6  A    between atoms: N_5  and  C_14
REMARK    7  A    between atoms: N_7  and  C_19
REMARK    8  A    between atoms: C_8  and  C_13
REMARK    9  A    between atoms: C_14  and  C_18
REMARK                            x       y       z     vdW  Elec       q    Type
REMARK                         _______ _______ _______ _____ _____    ______ ____
ROOT
ATOM      8  C   UNL     1      14.466   8.385  19.347  0.00  0.00    +0.042 C 
ATOM      9  C   UNL     1      13.327   8.239  20.403  0.00  0.00    +0.093 C 
ATOM     10  C   UNL     1      12.190   7.513  19.667  0.00  0.00    +0.160 C 
ATOM     11  C   UNL     1      13.923   7.752  18.051  0.00  0.00    +0.043 C 
ATOM     12  C   UNL     1      12.413   7.868  18.200  0.00  0.00    +0.145 C 
ENDROOT
BRANCH   8  13
ATOM      6  N   UNL     1      17.837   8.046  21.053  0.00  0.00    -0.240 NA
ATOM     13  C   UNL     1      15.793   7.802  19.786  0.00  0.00    -0.024 A 
ATOM     15  C   UNL     1      16.201   6.544  19.355  0.00  0.00    +0.009 A 
ATOM     16  C   UNL     1      16.640   8.506  20.626  0.00  0.00    +0.116 A 
ATOM     17  C   UNL     1      17.427   6.037  19.773  0.00  0.00    +0.044 A 
ATOM     19  C   UNL     1      18.200   6.820  20.614  0.00  0.00    +0.121 A 
BRANCH  19   7
ATOM      3  O   UNL     1      21.762   5.017  21.937  0.00  0.00    -0.377 OA
ATOM      7  N   UNL     1      19.430   6.296  21.025  0.00  0.00    -0.311 N 
ATOM     20  C   UNL     1      19.942   5.103  20.335  0.00  0.00    +0.134 C 
ATOM     21  C   UNL     1      19.856   6.440  22.421  0.00  0.00    +0.134 C 
ATOM     24  C   UNL     1      21.448   4.994  20.545  0.00  0.00    +0.178 C 
ATOM     25  C   UNL     1      21.368   6.259  22.520  0.00  0.00    +0.178 C 
ENDBRANCH  19   7
ENDBRANCH   8  13
BRANCH  10   1
ATOM      1  O   UNL     1      12.342   6.110  19.876  0.00  0.00    -0.388 OA
ATOM     31  H   UNL     1      11.453   5.732  19.981  0.00  0.00    +0.210 HD
ENDBRANCH  10   1
BRANCH  12   2
ATOM      2  O   UNL     1      11.739   6.992  17.320  0.00  0.00    -0.389 OA
ATOM     32  H   UNL     1      11.240   7.539  16.689  0.00  0.00    +0.210 HD
ENDBRANCH  12   2
BRANCH   9   5
ATOM      5  N   UNL     1      12.879   9.566  20.827  0.00  0.00    -0.306 NA
ATOM     30  H   UNL     1      12.354  10.001  20.068  0.00  0.00    +0.123 HD
BRANCH   5  14
ATOM     14  C   UNL     1      12.015   9.474  21.996  0.00  0.00    +0.116 C 
BRANCH  14  18
ATOM     18  C   UNL     1      11.536  10.829  22.447  0.00  0.00    -0.030 A 
ATOM     22  C   UNL     1      11.193  11.037  23.782  0.00  0.00    +0.050 A 
ATOM     23  C   UNL     1      11.434  11.874  21.529  0.00  0.00    +0.005 A 
ATOM     26  C   UNL     1      10.748  12.291  24.201  0.00  0.00    +0.120 A 
ATOM     27  C   UNL     1      10.988  13.128  21.947  0.00  0.00    +0.004 A 
ATOM     28  C   UNL     1      10.646  13.336  23.283  0.00  0.00    +0.045 A 
BRANCH  26   4
ATOM      4  O   UNL     1      10.412  12.494  25.503  0.00  0.00    -0.495 OA
ATOM     29  C   UNL     1      10.573  13.816  26.017  0.00  0.00    +0.277 C 
ENDBRANCH  26   4
ENDBRANCH  14  18
ENDBRANCH   5  14
ENDBRANCH   9   5
TORSDOF 8
ENDMDL
MODEL 2
REMARK VINA RESULT:      -7.3      3.772     11.197
REMARK  Name = 86768986
REMARK  9 active torsions:
REMARK  status: ('A' for Active; 'I' for Inactive)
REMARK    1  A    between atoms: O_1  and  C_10
REMARK    2  A    between atoms: O_2  and  C_12
REMARK    3  A    between atoms: O_4  and  C_26
REMARK    4  A    between atoms: O_4  and  C_29
REMARK    5  A    between atoms: N_5  and  C_9
REMARK    6  A    between atoms: N_5  and  C_14
REMARK    7  A    between atoms: N_7  and  C_19
REMARK    8  A    between atoms: C_8  and  C_13
REMARK    9  A    between atoms: C_14  and  C_18
REMARK                            x       y       z     vdW  Elec       q    Type
REMARK                         _______ _______ _______ _____ _____    ______ ____
ROOT
ATOM      8  C   UNL     1      19.956   6.388  20.463  0.00  0.00    +0.042 C 
ATOM      9  C   UNL     1      20.371   5.182  21.362  0.00  0.00    +0.093 C 
ATOM     10  C   UNL     1      21.239   5.791  22.473  0.00  0.00    +0.160 C 
ATOM     11  C   UNL     1      20.618   7.629  21.091  0.00  0.00    +0.043 C 
ATOM     12  C   UNL     1      21.812   7.057  21.843  0.00  0.00    +0.145 C 
ENDROOT
BRANCH   8  13
ATOM      6  N   UNL     1      16.368   7.463  21.063  0.00  0.00    -0.240 NA
ATOM     13  C   UNL     1      18.460   6.536  20.283  0.00  0.00    -0.024 A 
ATOM     15  C   UNL     1      17.800   5.916  19.227  0.00  0.00    +0.009 A 
ATOM     16  C   UNL     1      17.704   7.291  21.166  0.00  0.00    +0.116 A 
ATOM     17  C   UNL     1      16.425   6.070  19.089  0.00  0.00    +0.044 A 
ATOM     19  C   UNL     1      15.761   6.845  20.024  0.00  0.00    +0.121 A 
BRANCH  19   7
ATOM      3  O   UNL     1      11.639   7.554  19.588  0.00  0.00    -0.377 OA
ATOM      7  N   UNL     1      14.378   6.990  19.872  0.00  0.00    -0.311 N 
ATOM     20  C   UNL     1      13.879   7.667  18.666  0.00  0.00    +0.134 C 
ATOM     21  C   UNL     1      13.520   7.109  21.055  0.00  0.00    +0.134 C 
ATOM     24  C   UNL     1      12.423   7.286  18.427  0.00  0.00    +0.178 C 
ATOM     25  C   UNL     1      12.082   6.759  20.687  0.00  0.00    +0.178 C 
ENDBRANCH  19   7
ENDBRANCH   8  13
BRANCH  10   1
ATOM      1  O   UNL     1      20.395   6.114  23.577  0.00  0.00    -0.388 OA
ATOM     31  H   UNL     1      20.271   7.078  23.578  0.00  0.00    +0.210 HD
ENDBRANCH  10   1
BRANCH  12   2
ATOM      2  O   UNL     1      22.301   7.969  22.804  0.00  0.00    -0.389 OA
ATOM     32  H   UNL     1      21.682   7.965  23.554  0.00  0.00    +0.210 HD
ENDBRANCH  12   2
BRANCH   9   5
ATOM      5  N   UNL     1      21.162   4.234  20.575  0.00  0.00    -0.306 NA
ATOM     30  H   UNL     1      21.834   4.749  20.007  0.00  0.00    +0.123 HD
BRANCH   5  14
ATOM     14  C   UNL     1      21.891   3.320  21.443  0.00  0.00    +0.116 C 
BRANCH  14  18
ATOM     18  C   UNL     1      23.338   3.203  21.044  0.00  0.00    -0.030 A 
ATOM     22  C   UNL     1      23.944   4.225  20.314  0.00  0.00    +0.050 A 
ATOM     23  C   UNL     1      24.073   2.073  21.404  0.00  0.00    +0.005 A 
ATOM     26  C   UNL     1      25.284   4.118  19.943  0.00  0.00    +0.120 A 
ATOM     27  C   UNL     1      25.413   1.965  21.033  0.00  0.00    +0.004 A 
ATOM     28  C   UNL     1      26.019   2.987  20.303  0.00  0.00    +0.045 A 
BRANCH  26   4
ATOM      4  O   UNL     1      25.875   5.114  19.229  0.00  0.00    -0.495 OA
ATOM     29  C   UNL     1      27.010   4.760  18.439  0.00  0.00    +0.277 C 
ENDBRANCH  26   4
ENDBRANCH  14  18
ENDBRANCH   5  14
ENDBRANCH   9   5
TORSDOF 8
ENDMDL
MODEL 3
REMARK VINA RESULT:      -7.2      2.036      8.832
REMARK  Name = 86768986
REMARK  9 active torsions:
REMARK  status: ('A' for Active; 'I' for Inactive)
REMARK    1  A    between atoms: O_1  and  C_10
REMARK    2  A    between atoms: O_2  and  C_12
REMARK    3  A    between atoms: O_4  and  C_26
REMARK    4  A    between atoms: O_4  and  C_29
REMARK    5  A    between atoms: N_5  and  C_9
REMARK    6  A    between atoms: N_5  and  C_14
REMARK    7  A    between atoms: N_7  and  C_19
REMARK    8  A    between atoms: C_8  and  C_13
REMARK    9  A    between atoms: C_14  and  C_18
REMARK                            x       y       z     vdW  Elec       q    Type
REMARK                         _______ _______ _______ _____ _____    ______ ____
ROOT
ATOM      8  C   UNL     1      13.184   8.646  21.484  0.00  0.00    +0.042 C 
ATOM      9  C   UNL     1      13.160   8.809  19.932  0.00  0.00    +0.093 C 
ATOM     10  C   UNL     1      12.247   7.681  19.426  0.00  0.00    +0.160 C 
ATOM     11  C   UNL     1      12.299   7.423  21.793  0.00  0.00    +0.043 C 
ATOM     12  C   UNL     1      12.348   6.609  20.508  0.00  0.00    +0.145 C 
ENDROOT
BRANCH   8  13
ATOM      6  N   UNL     1      10.996  11.304  23.076  0.00  0.00    -0.240 NA
ATOM     13  C   UNL     1      12.770   9.889  22.242  0.00  0.00    -0.024 A 
ATOM     15  C   UNL     1      13.720  10.747  22.784  0.00  0.00    +0.009 A 
ATOM     16  C   UNL     1      11.433  10.211  22.413  0.00  0.00    +0.116 A 
ATOM     17  C   UNL     1      13.309  11.884  23.473  0.00  0.00    +0.044 A 
ATOM     19  C   UNL     1      11.949  12.115  23.590  0.00  0.00    +0.121 A 
BRANCH  19   7
ATOM      3  O   UNL     1      10.619  15.397  25.858  0.00  0.00    -0.377 OA
ATOM      7  N   UNL     1      11.552  13.262  24.285  0.00  0.00    -0.311 N 
ATOM     20  C   UNL     1      12.060  13.457  25.650  0.00  0.00    +0.134 C 
ATOM     21  C   UNL     1      10.242  13.864  24.015  0.00  0.00    +0.134 C 
ATOM     24  C   UNL     1      11.956  14.929  26.033  0.00  0.00    +0.178 C 
ATOM     25  C   UNL     1      10.234  15.314  24.486  0.00  0.00    +0.178 C 
ENDBRANCH  19   7
ENDBRANCH   8  13
BRANCH  10   1
ATOM      1  O   UNL     1      10.916   8.185  19.337  0.00  0.00    -0.388 OA
ATOM     31  H   UNL     1      10.514   8.107  20.219  0.00  0.00    +0.210 HD
ENDBRANCH  10   1
BRANCH  12   2
ATOM      2  O   UNL     1      11.291   5.675  20.447  0.00  0.00    -0.389 OA
ATOM     32  H   UNL     1      10.487   6.122  20.762  0.00  0.00    +0.210 HD
ENDBRANCH  12   2
BRANCH   9   5
ATOM      5  N   UNL     1      14.512   8.633  19.400  0.00  0.00    -0.306 NA
ATOM     30  H   UNL     1      14.749   9.435  18.817  0.00  0.00    +0.123 HD
BRANCH   5  14
ATOM     14  C   UNL     1      15.486   8.537  20.478  0.00  0.00    +0.116 C 
BRANCH  14  18
ATOM     18  C   UNL     1      16.534   7.493  20.196  0.00  0.00    -0.030 A 
ATOM     22  C   UNL     1      17.708   7.462  20.947  0.00  0.00    +0.050 A 
ATOM     23  C   UNL     1      16.330   6.556  19.181  0.00  0.00    +0.005 A 
ATOM     26  C   UNL     1      18.679   6.497  20.686  0.00  0.00    +0.120 A 
ATOM     27  C   UNL     1      17.302   5.591  18.919  0.00  0.00    +0.004 A 
ATOM     28  C   UNL     1      18.476   5.560  19.671  0.00  0.00    +0.045 A 
BRANCH  26   4
ATOM      4  O   UNL     1      19.825   6.468  21.418  0.00  0.00    -0.495 OA
ATOM     29  C   UNL     1      19.870   7.288  22.586  0.00  0.00    +0.277 C 
ENDBRANCH  26   4
ENDBRANCH  14  18
ENDBRANCH   5  14
ENDBRANCH   9   5
TORSDOF 8
ENDMDL
MODEL 4
REMARK VINA RESULT:      -7.0     15.823     19.162
REMARK  Name = 86768986
REMARK  9 active torsions:
REMARK  status: ('A' for Active; 'I' for Inactive)
REMARK    1  A    between atoms: O_1  and  C_10
REMARK    2  A    between atoms: O_2  and  C_12
REMARK    3  A    between atoms: O_4  and  C_26
REMARK    4  A    between atoms: O_4  and  C_29
REMARK    5  A    between atoms: N_5  and  C_9
REMARK    6  A    between atoms: N_5  and  C_14
REMARK    7  A    between atoms: N_7  and  C_19
REMARK    8  A    between atoms: C_8  and  C_13
REMARK    9  A    between atoms: C_14  and  C_18
REMARK                            x       y       z     vdW  Elec       q    Type
REMARK                         _______ _______ _______ _____ _____    ______ ____
ROOT
ATOM      8  C   UNL     1      10.055   5.355   5.212  0.00  0.00    +0.042 C 
ATOM      9  C   UNL     1      10.426   6.584   6.099  0.00  0.00    +0.093 C 
ATOM     10  C   UNL     1      10.656   6.007   7.504  0.00  0.00    +0.160 C 
ATOM     11  C   UNL     1      10.073   4.135   6.153  0.00  0.00    +0.043 C 
ATOM     12  C   UNL     1       9.811   4.737   7.526  0.00  0.00    +0.145 C 
ENDROOT
BRANCH   8  13
ATOM      6  N   UNL     1      12.683   6.060   2.569  0.00  0.00    -0.240 NA
ATOM     13  C   UNL     1      10.938   5.183   3.994  0.00  0.00    -0.024 A 
ATOM     15  C   UNL     1      10.842   4.051   3.193  0.00  0.00    +0.009 A 
ATOM     16  C   UNL     1      11.866   6.150   3.641  0.00  0.00    +0.116 A 
ATOM     17  C   UNL     1      11.666   3.922   2.080  0.00  0.00    +0.044 A 
ATOM     19  C   UNL     1      12.560   4.945   1.813  0.00  0.00    +0.121 A 
BRANCH  19   7
ATOM      3  O   UNL     1      15.146   4.293  -1.439  0.00  0.00    -0.377 OA
ATOM      7  N   UNL     1      13.382   4.801   0.690  0.00  0.00    -0.311 N 
ATOM     20  C   UNL     1      13.218   3.600  -0.141  0.00  0.00    +0.134 C 
ATOM     21  C   UNL     1      14.729   5.381   0.690  0.00  0.00    +0.134 C 
ATOM     24  C   UNL     1      13.792   3.852  -1.530  0.00  0.00    +0.178 C 
ATOM     25  C   UNL     1      15.223   5.538  -0.745  0.00  0.00    +0.178 C 
ENDBRANCH  19   7
ENDBRANCH   8  13
BRANCH  10   1
ATOM      1  O   UNL     1      12.041   5.695   7.641  0.00  0.00    -0.388 OA
ATOM     31  H   UNL     1      12.227   4.934   7.067  0.00  0.00    +0.210 HD
ENDBRANCH  10   1
BRANCH  12   2
ATOM      2  O   UNL     1      10.189   3.850   8.558  0.00  0.00    -0.389 OA
ATOM     32  H   UNL     1       9.480   3.858   9.224  0.00  0.00    +0.210 HD
ENDBRANCH  12   2
BRANCH   9   5
ATOM      5  N   UNL     1       9.305   7.526   6.123  0.00  0.00    -0.306 NA
ATOM     30  H   UNL     1       9.636   8.446   5.833  0.00  0.00    +0.123 HD
BRANCH   5  14
ATOM     14  C   UNL     1       8.250   7.102   5.215  0.00  0.00    +0.116 C 
BRANCH  14  18
ATOM     18  C   UNL     1       8.069   8.070   4.075  0.00  0.00    -0.030 A 
ATOM     22  C   UNL     1       8.701   7.836   2.854  0.00  0.00    +0.050 A 
ATOM     23  C   UNL     1       7.271   9.203   4.242  0.00  0.00    +0.005 A 
ATOM     26  C   UNL     1       8.535   8.732   1.799  0.00  0.00    +0.120 A 
ATOM     27  C   UNL     1       7.106  10.100   3.187  0.00  0.00    +0.004 A 
ATOM     28  C   UNL     1       7.737   9.865   1.966  0.00  0.00    +0.045 A 
BRANCH  26   4
ATOM      4  O   UNL     1       9.152   8.504   0.608  0.00  0.00    -0.495 OA
ATOM     29  C   UNL     1       9.911   7.301   0.491  0.00  0.00    +0.277 C 
ENDBRANCH  26   4
ENDBRANCH  14  18
ENDBRANCH   5  14
ENDBRANCH   9   5
TORSDOF 8
ENDMDL
MODEL 5
REMARK VINA RESULT:      -7.0     15.737     18.905
REMARK  Name = 86768986
REMARK  9 active torsions:
REMARK  status: ('A' for Active; 'I' for Inactive)
REMARK    1  A    between atoms: O_1  and  C_10
REMARK    2  A    between atoms: O_2  and  C_12
REMARK    3  A    between atoms: O_4  and  C_26
REMARK    4  A    between atoms: O_4  and  C_29
REMARK    5  A    between atoms: N_5  and  C_9
REMARK    6  A    between atoms: N_5  and  C_14
REMARK    7  A    between atoms: N_7  and  C_19
REMARK    8  A    between atoms: C_8  and  C_13
REMARK    9  A    between atoms: C_14  and  C_18
REMARK                            x       y       z     vdW  Elec       q    Type
REMARK                         _______ _______ _______ _____ _____    ______ ____
ROOT
ATOM      8  C   UNL     1      10.086   5.332   5.205  0.00  0.00    +0.042 C 
ATOM      9  C   UNL     1      10.455   6.571   6.077  0.00  0.00    +0.093 C 
ATOM     10  C   UNL     1      10.672   6.013   7.492  0.00  0.00    +0.160 C 
ATOM     11  C   UNL     1      10.092   4.125   6.162  0.00  0.00    +0.043 C 
ATOM     12  C   UNL     1       9.822   4.746   7.525  0.00  0.00    +0.145 C 
ENDROOT
BRANCH   8  13
ATOM      6  N   UNL     1      12.700   6.013   2.542  0.00  0.00    -0.240 NA
ATOM     13  C   UNL     1      10.978   5.140   3.996  0.00  0.00    -0.024 A 
ATOM     15  C   UNL     1      10.917   3.975   3.239  0.00  0.00    +0.009 A 
ATOM     16  C   UNL     1      11.878   6.119   3.608  0.00  0.00    +0.116 A 
ATOM     17  C   UNL     1      11.748   3.829   2.133  0.00  0.00    +0.044 A 
ATOM     19  C   UNL     1      12.613   4.867   1.829  0.00  0.00    +0.121 A 
BRANCH  19   7
ATOM      3  O   UNL     1      14.968   4.142  -1.579  0.00  0.00    -0.377 OA
ATOM      7  N   UNL     1      13.441   4.704   0.714  0.00  0.00    -0.311 N 
ATOM     20  C   UNL     1      12.829   4.766  -0.621  0.00  0.00    +0.134 C 
ATOM     21  C   UNL     1      14.643   3.869   0.811  0.00  0.00    +0.134 C 
ATOM     24  C   UNL     1      13.896   5.080  -1.663  0.00  0.00    +0.178 C 
ATOM     25  C   UNL     1      15.614   4.231  -0.309  0.00  0.00    +0.178 C 
ENDBRANCH  19   7
ENDBRANCH   8  13
BRANCH  10   1
ATOM      1  O   UNL     1      12.055   5.698   7.644  0.00  0.00    -0.388 OA
ATOM     31  H   UNL     1      12.559   6.516   7.497  0.00  0.00    +0.210 HD
ENDBRANCH  10   1
BRANCH  12   2
ATOM      2  O   UNL     1      10.189   3.873   8.573  0.00  0.00    -0.389 OA
ATOM     32  H   UNL     1      10.399   4.420   9.349  0.00  0.00    +0.210 HD
ENDBRANCH  12   2
BRANCH   9   5
ATOM      5  N   UNL     1       9.338   7.518   6.081  0.00  0.00    -0.306 NA
ATOM     30  H   UNL     1       9.676   8.434   5.787  0.00  0.00    +0.123 HD
BRANCH   5  14
ATOM     14  C   UNL     1       8.292   7.091   5.162  0.00  0.00    +0.116 C 
BRANCH  14  18
ATOM     18  C   UNL     1       8.090   8.079   4.044  0.00  0.00    -0.030 A 
ATOM     22  C   UNL     1       7.321   9.222   4.255  0.00  0.00    +0.050 A 
ATOM     23  C   UNL     1       8.672   7.849   2.796  0.00  0.00    +0.005 A 
ATOM     26  C   UNL     1       7.132  10.138   3.220  0.00  0.00    +0.120 A 
ATOM     27  C   UNL     1       8.483   8.764   1.761  0.00  0.00    +0.004 A 
ATOM     28  C   UNL     1       7.714   9.908   1.972  0.00  0.00    +0.045 A 
BRANCH  26   4
ATOM      4  O   UNL     1       6.381  11.253   3.425  0.00  0.00    -0.495 OA
ATOM     29  C   UNL     1       4.992  11.059   3.691  0.00  0.00    +0.277 C 
ENDBRANCH  26   4
ENDBRANCH  14  18
ENDBRANCH   5  14
ENDBRANCH   9   5
TORSDOF 8
ENDMDL
MODEL 6
REMARK VINA RESULT:      -6.9     27.725     29.811
REMARK  Name = 86768986
REMARK  9 active torsions:
REMARK  status: ('A' for Active; 'I' for Inactive)
REMARK    1  A    between atoms: O_1  and  C_10
REMARK    2  A    between atoms: O_2  and  C_12
REMARK    3  A    between atoms: O_4  and  C_26
REMARK    4  A    between atoms: O_4  and  C_29
REMARK    5  A    between atoms: N_5  and  C_9
REMARK    6  A    between atoms: N_5  and  C_14
REMARK    7  A    between atoms: N_7  and  C_19
REMARK    8  A    between atoms: C_8  and  C_13
REMARK    9  A    between atoms: C_14  and  C_18
REMARK                            x       y       z     vdW  Elec       q    Type
REMARK                         _______ _______ _______ _____ _____    ______ ____
ROOT
ATOM      8  C   UNL     1      -8.309  -9.146  17.319  0.00  0.00    +0.042 C 
ATOM      9  C   UNL     1      -9.139 -10.345  17.872  0.00  0.00    +0.093 C 
ATOM     10  C   UNL     1     -10.601 -10.006  17.540  0.00  0.00    +0.160 C 
ATOM     11  C   UNL     1      -9.333  -8.168  16.711  0.00  0.00    +0.043 C 
ATOM     12  C   UNL     1     -10.618  -8.482  17.463  0.00  0.00    +0.145 C 
ENDROOT
BRANCH   8  13
ATOM      6  N   UNL     1      -6.595 -10.298  14.137  0.00  0.00    -0.240 NA
ATOM     13  C   UNL     1      -7.217  -9.547  16.349  0.00  0.00    -0.024 A 
ATOM     15  C   UNL     1      -5.881  -9.547  16.733  0.00  0.00    +0.009 A 
ATOM     16  C   UNL     1      -7.518  -9.928  15.051  0.00  0.00    +0.116 A 
ATOM     17  C   UNL     1      -4.901  -9.923  15.820  0.00  0.00    +0.044 A 
ATOM     19  C   UNL     1      -5.306 -10.286  14.547  0.00  0.00    +0.121 A 
BRANCH  19   7
ATOM      3  O   UNL     1      -2.208 -11.155  11.839  0.00  0.00    -0.377 OA
ATOM      7  N   UNL     1      -4.309 -10.661  13.641  0.00  0.00    -0.311 N 
ATOM     20  C   UNL     1      -2.917 -10.686  14.111  0.00  0.00    +0.134 C 
ATOM     21  C   UNL     1      -4.480 -10.386  12.210  0.00  0.00    +0.134 C 
ATOM     24  C   UNL     1      -2.080 -11.574  13.197  0.00  0.00    +0.178 C 
ATOM     25  C   UNL     1      -3.559 -11.290  11.397  0.00  0.00    +0.178 C 
ENDBRANCH  19   7
ENDBRANCH   8  13
BRANCH  10   1
ATOM      1  O   UNL     1     -10.919 -10.580  16.274  0.00  0.00    -0.388 OA
ATOM     31  H   UNL     1     -11.462  -9.936  15.789  0.00  0.00    +0.210 HD
ENDBRANCH  10   1
BRANCH  12   2
ATOM      2  O   UNL     1     -11.750  -7.986  16.779  0.00  0.00    -0.389 OA
ATOM     32  H   UNL     1     -11.852  -8.508  15.965  0.00  0.00    +0.210 HD
ENDBRANCH  12   2
BRANCH   9   5
ATOM      5  N   UNL     1      -8.965 -10.434  19.323  0.00  0.00    -0.306 NA
ATOM     30  H   UNL     1      -9.856 -10.238  19.779  0.00  0.00    +0.123 HD
BRANCH   5  14
ATOM     14  C   UNL     1      -8.525 -11.766  19.713  0.00  0.00    +0.116 C 
BRANCH  14  18
ATOM     18  C   UNL     1      -7.122 -12.051  19.246  0.00  0.00    -0.030 A 
ATOM     22  C   UNL     1      -6.904 -12.944  18.197  0.00  0.00    +0.050 A 
ATOM     23  C   UNL     1      -6.040 -11.423  19.863  0.00  0.00    +0.005 A 
ATOM     26  C   UNL     1      -5.606 -13.210  17.765  0.00  0.00    +0.120 A 
ATOM     27  C   UNL     1      -4.740 -11.689  19.431  0.00  0.00    +0.004 A 
ATOM     28  C   UNL     1      -4.523 -12.582  18.382  0.00  0.00    +0.045 A 
BRANCH  26   4
ATOM      4  O   UNL     1      -5.393 -14.082  16.743  0.00  0.00    -0.495 OA
ATOM     29  C   UNL     1      -4.461 -13.688  15.736  0.00  0.00    +0.277 C 
ENDBRANCH  26   4
ENDBRANCH  14  18
ENDBRANCH   5  14
ENDBRANCH   9   5
TORSDOF 8
ENDMDL
MODEL 7
REMARK VINA RESULT:      -6.9     26.289     29.036
REMARK  Name = 86768986
REMARK  9 active torsions:
REMARK  status: ('A' for Active; 'I' for Inactive)
REMARK    1  A    between atoms: O_1  and  C_10
REMARK    2  A    between atoms: O_2  and  C_12
REMARK    3  A    between atoms: O_4  and  C_26
REMARK    4  A    between atoms: O_4  and  C_29
REMARK    5  A    between atoms: N_5  and  C_9
REMARK    6  A    between atoms: N_5  and  C_14
REMARK    7  A    between atoms: N_7  and  C_19
REMARK    8  A    between atoms: C_8  and  C_13
REMARK    9  A    between atoms: C_14  and  C_18
REMARK                            x       y       z     vdW  Elec       q    Type
REMARK                         _______ _______ _______ _____ _____    ______ ____
ROOT
ATOM      8  C   UNL     1     -11.648   8.145  19.252  0.00  0.00    +0.042 C 
ATOM      9  C   UNL     1     -12.357   9.234  18.389  0.00  0.00    +0.093 C 
ATOM     10  C   UNL     1     -11.922   8.945  16.944  0.00  0.00    +0.160 C 
ATOM     11  C   UNL     1     -10.827   7.293  18.264  0.00  0.00    +0.043 C 
ATOM     12  C   UNL     1     -10.579   8.237  17.097  0.00  0.00    +0.145 C 
ENDROOT
BRANCH   8  13
ATOM      6  N   UNL     1     -14.848   6.596  20.576  0.00  0.00    -0.240 NA
ATOM     13  C   UNL     1     -12.591   7.324  20.107  0.00  0.00    -0.024 A 
ATOM     15  C   UNL     1     -12.117   6.570  21.175  0.00  0.00    +0.009 A 
ATOM     16  C   UNL     1     -13.953   7.304  19.852  0.00  0.00    +0.116 A 
ATOM     17  C   UNL     1     -13.008   5.828  21.943  0.00  0.00    +0.044 A 
ATOM     19  C   UNL     1     -14.350   5.875  21.606  0.00  0.00    +0.121 A 
BRANCH  19   7
ATOM      3  O   UNL     1     -17.099   3.856  24.067  0.00  0.00    -0.377 OA
ATOM      7  N   UNL     1     -15.233   5.124  22.389  0.00  0.00    -0.311 N 
ATOM     20  C   UNL     1     -16.675   5.261  22.136  0.00  0.00    +0.134 C 
ATOM     21  C   UNL     1     -14.872   4.773  23.767  0.00  0.00    +0.134 C 
ATOM     24  C   UNL     1     -17.412   4.047  22.688  0.00  0.00    +0.178 C 
ATOM     25  C   UNL     1     -15.708   3.585  24.232  0.00  0.00    +0.178 C 
ENDBRANCH  19   7
ENDBRANCH   8  13
BRANCH  10   1
ATOM      1  O   UNL     1     -12.886   8.078  16.349  0.00  0.00    -0.388 OA
ATOM     31  H   UNL     1     -13.013   7.325  16.950  0.00  0.00    +0.210 HD
ENDBRANCH  10   1
BRANCH  12   2
ATOM      2  O   UNL     1     -10.202   7.531  15.933  0.00  0.00    -0.389 OA
ATOM     32  H   UNL     1     -11.016   7.198  15.516  0.00  0.00    +0.210 HD
ENDBRANCH  12   2
BRANCH   9   5
ATOM      5  N   UNL     1     -11.890  10.561  18.795  0.00  0.00    -0.306 NA
ATOM     30  H   UNL     1     -11.551  11.062  17.974  0.00  0.00    +0.123 HD
BRANCH   5  14
ATOM     14  C   UNL     1     -12.970  11.330  19.397  0.00  0.00    +0.116 C 
BRANCH  14  18
ATOM     18  C   UNL     1     -13.311  10.832  20.777  0.00  0.00    -0.030 A 
ATOM     22  C   UNL     1     -14.601  10.382  21.056  0.00  0.00    +0.050 A 
ATOM     23  C   UNL     1     -12.337  10.822  21.775  0.00  0.00    +0.005 A 
ATOM     26  C   UNL     1     -14.918   9.922  22.334  0.00  0.00    +0.120 A 
ATOM     27  C   UNL     1     -12.654  10.362  23.054  0.00  0.00    +0.004 A 
ATOM     28  C   UNL     1     -13.943   9.912  23.333  0.00  0.00    +0.045 A 
BRANCH  26   4
ATOM      4  O   UNL     1     -16.177   9.484  22.607  0.00  0.00    -0.495 OA
ATOM     29  C   UNL     1     -16.333   8.619  23.731  0.00  0.00    +0.277 C 
ENDBRANCH  26   4
ENDBRANCH  14  18
ENDBRANCH   5  14
ENDBRANCH   9   5
TORSDOF 8
ENDMDL
MODEL 8
REMARK VINA RESULT:      -6.8     17.671     21.836
REMARK  Name = 86768986
REMARK  9 active torsions:
REMARK  status: ('A' for Active; 'I' for Inactive)
REMARK    1  A    between atoms: O_1  and  C_10
REMARK    2  A    between atoms: O_2  and  C_12
REMARK    3  A    between atoms: O_4  and  C_26
REMARK    4  A    between atoms: O_4  and  C_29
REMARK    5  A    between atoms: N_5  and  C_9
REMARK    6  A    between atoms: N_5  and  C_14
REMARK    7  A    between atoms: N_7  and  C_19
REMARK    8  A    between atoms: C_8  and  C_13
REMARK    9  A    between atoms: C_14  and  C_18
REMARK                            x       y       z     vdW  Elec       q    Type
REMARK                         _______ _______ _______ _____ _____    ______ ____
ROOT
ATOM      8  C   UNL     1      12.863   5.080   1.457  0.00  0.00    +0.042 C 
ATOM      9  C   UNL     1      13.308   3.586   1.392  0.00  0.00    +0.093 C 
ATOM     10  C   UNL     1      14.827   3.631   1.168  0.00  0.00    +0.160 C 
ATOM     11  C   UNL     1      14.144   5.911   1.250  0.00  0.00    +0.043 C 
ATOM     12  C   UNL     1      15.060   4.972   0.478  0.00  0.00    +0.145 C 
ENDROOT
BRANCH   8  13
ATOM      6  N   UNL     1      11.810   6.964   4.576  0.00  0.00    -0.240 NA
ATOM     13  C   UNL     1      12.111   5.446   2.719  0.00  0.00    -0.024 A 
ATOM     15  C   UNL     1      11.073   4.649   3.191  0.00  0.00    +0.009 A 
ATOM     16  C   UNL     1      12.438   6.582   3.442  0.00  0.00    +0.116 A 
ATOM     17  C   UNL     1      10.403   5.011   4.355  0.00  0.00    +0.044 A 
ATOM     19  C   UNL     1      10.806   6.166   5.004  0.00  0.00    +0.121 A 
BRANCH  19   7
ATOM      3  O   UNL     1       8.525   7.092   8.414  0.00  0.00    -0.377 OA
ATOM      7  N   UNL     1      10.122   6.515   6.173  0.00  0.00    -0.311 N 
ATOM     20  C   UNL     1       9.669   5.435   7.062  0.00  0.00    +0.134 C 
ATOM     21  C   UNL     1       9.308   7.734   6.208  0.00  0.00    +0.134 C 
ATOM     24  C   UNL     1       9.427   5.988   8.461  0.00  0.00    +0.178 C 
ATOM     25  C   UNL     1       9.084   8.164   7.654  0.00  0.00    +0.178 C 
ENDBRANCH  19   7
ENDBRANCH   8  13
BRANCH  10   1
ATOM      1  O   UNL     1      15.471   3.599   2.441  0.00  0.00    -0.388 OA
ATOM     31  H   UNL     1      14.776   3.562   3.119  0.00  0.00    +0.210 HD
ENDBRANCH  10   1
BRANCH  12   2
ATOM      2  O   UNL     1      16.407   5.393   0.548  0.00  0.00    -0.389 OA
ATOM     32  H   UNL     1      16.962   4.594   0.557  0.00  0.00    +0.210 HD
ENDBRANCH  12   2
BRANCH   9   5
ATOM      5  N   UNL     1      12.656   2.929   0.258  0.00  0.00    -0.306 NA
ATOM     30  H   UNL     1      12.145   2.112   0.593  0.00  0.00    +0.123 HD
BRANCH   5  14
ATOM     14  C   UNL     1      11.717   3.830  -0.395  0.00  0.00    +0.116 C 
BRANCH  14  18
ATOM     18  C   UNL     1      11.673   3.611  -1.884  0.00  0.00    -0.030 A 
ATOM     22  C   UNL     1      10.511   3.901  -2.597  0.00  0.00    +0.050 A 
ATOM     23  C   UNL     1      12.796   3.117  -2.550  0.00  0.00    +0.005 A 
ATOM     26  C   UNL     1      10.469   3.698  -3.976  0.00  0.00    +0.120 A 
ATOM     27  C   UNL     1      12.753   2.913  -3.929  0.00  0.00    +0.004 A 
ATOM     28  C   UNL     1      11.591   3.204  -4.642  0.00  0.00    +0.045 A 
BRANCH  26   4
ATOM      4  O   UNL     1       9.334   3.979  -4.672  0.00  0.00    -0.495 OA
ATOM     29  C   UNL     1       9.296   3.578  -6.041  0.00  0.00    +0.277 C 
ENDBRANCH  26   4
ENDBRANCH  14  18
ENDBRANCH   5  14
ENDBRANCH   9   5
TORSDOF 8
ENDMDL
MODEL 9
REMARK VINA RESULT:      -6.8     25.931     28.562
REMARK  Name = 86768986
REMARK  9 active torsions:
REMARK  status: ('A' for Active; 'I' for Inactive)
REMARK    1  A    between atoms: O_1  and  C_10
REMARK    2  A    between atoms: O_2  and  C_12
REMARK    3  A    between atoms: O_4  and  C_26
REMARK    4  A    between atoms: O_4  and  C_29
REMARK    5  A    between atoms: N_5  and  C_9
REMARK    6  A    between atoms: N_5  and  C_14
REMARK    7  A    between atoms: N_7  and  C_19
REMARK    8  A    between atoms: C_8  and  C_13
REMARK    9  A    between atoms: C_14  and  C_18
REMARK                            x       y       z     vdW  Elec       q    Type
REMARK                         _______ _______ _______ _____ _____    ______ ____
ROOT
ATOM      8  C   UNL     1     -15.182   6.593  21.575  0.00  0.00    +0.042 C 
ATOM      9  C   UNL     1     -14.561   6.675  23.004  0.00  0.00    +0.093 C 
ATOM     10  C   UNL     1     -14.600   5.236  23.540  0.00  0.00    +0.160 C 
ATOM     11  C   UNL     1     -15.564   5.115  21.366  0.00  0.00    +0.043 C 
ATOM     12  C   UNL     1     -15.755   4.590  22.781  0.00  0.00    +0.145 C 
ENDROOT
BRANCH   8  13
ATOM      6  N   UNL     1     -14.086   8.185  18.311  0.00  0.00    -0.240 NA
ATOM     13  C   UNL     1     -14.289   7.140  20.482  0.00  0.00    -0.024 A 
ATOM     15  C   UNL     1     -12.904   7.111  20.606  0.00  0.00    +0.009 A 
ATOM     16  C   UNL     1     -14.825   7.682  19.325  0.00  0.00    +0.116 A 
ATOM     17  C   UNL     1     -12.110   7.619  19.583  0.00  0.00    +0.044 A 
ATOM     19  C   UNL     1     -12.744   8.139  18.467  0.00  0.00    +0.121 A 
BRANCH  19   7
ATOM      3  O   UNL     1     -10.464   9.888  15.396  0.00  0.00    -0.377 OA
ATOM      7  N   UNL     1     -11.932   8.646  17.447  0.00  0.00    -0.311 N 
ATOM     20  C   UNL     1     -11.134   9.849  17.727  0.00  0.00    +0.134 C 
ATOM     21  C   UNL     1     -12.323   8.469  16.045  0.00  0.00    +0.134 C 
ATOM     24  C   UNL     1      -9.979   9.942  16.738  0.00  0.00    +0.178 C 
ATOM     25  C   UNL     1     -11.103   8.637  15.144  0.00  0.00    +0.178 C 
ENDBRANCH  19   7
ENDBRANCH   8  13
BRANCH  10   1
ATOM      1  O   UNL     1     -13.364   4.601  23.216  0.00  0.00    -0.388 OA
ATOM     31  H   UNL     1     -13.418   3.681  23.526  0.00  0.00    +0.210 HD
ENDBRANCH  10   1
BRANCH  12   2
ATOM      2  O   UNL     1     -15.708   3.178  22.818  0.00  0.00    -0.389 OA
ATOM     32  H   UNL     1     -16.554   2.848  22.468  0.00  0.00    +0.210 HD
ENDBRANCH  12   2
BRANCH   9   5
ATOM      5  N   UNL     1     -15.384   7.544  23.848  0.00  0.00    -0.306 NA
ATOM     30  H   UNL     1     -14.934   7.651  24.756  0.00  0.00    +0.123 HD
BRANCH   5  14
ATOM     14  C   UNL     1     -15.535   8.861  23.245  0.00  0.00    +0.116 C 
BRANCH  14  18
ATOM     18  C   UNL     1     -14.307   9.711  23.440  0.00  0.00    -0.030 A 
ATOM     22  C   UNL     1     -13.843   9.979  24.727  0.00  0.00    +0.050 A 
ATOM     23  C   UNL     1     -13.635  10.231  22.333  0.00  0.00    +0.005 A 
ATOM     26  C   UNL     1     -12.707  10.767  24.909  0.00  0.00    +0.120 A 
ATOM     27  C   UNL     1     -12.499  11.019  22.515  0.00  0.00    +0.004 A 
ATOM     28  C   UNL     1     -12.035  11.287  23.802  0.00  0.00    +0.045 A 
BRANCH  26   4
ATOM      4  O   UNL     1     -12.255  11.030  26.165  0.00  0.00    -0.495 OA
ATOM     29  C   UNL     1     -10.997  10.465  26.533  0.00  0.00    +0.277 C 
ENDBRANCH  26   4
ENDBRANCH  14  18
ENDBRANCH   5  14
ENDBRANCH   9   5
TORSDOF 8
ENDMDL
MODEL 10
REMARK VINA RESULT:      -6.6     27.661     30.264
REMARK  Name = 86768986
REMARK  9 active torsions:
REMARK  status: ('A' for Active; 'I' for Inactive)
REMARK    1  A    between atoms: O_1  and  C_10
REMARK    2  A    between atoms: O_2  and  C_12
REMARK    3  A    between atoms: O_4  and  C_26
REMARK    4  A    between atoms: O_4  and  C_29
REMARK    5  A    between atoms: N_5  and  C_9
REMARK    6  A    between atoms: N_5  and  C_14
REMARK    7  A    between atoms: N_7  and  C_19
REMARK    8  A    between atoms: C_8  and  C_13
REMARK    9  A    between atoms: C_14  and  C_18
REMARK                            x       y       z     vdW  Elec       q    Type
REMARK                         _______ _______ _______ _____ _____    ______ ____
ROOT
ATOM      8  C   UNL     1      -5.411 -10.662  16.902  0.00  0.00    +0.042 C 
ATOM      9  C   UNL     1      -5.302 -12.152  16.451  0.00  0.00    +0.093 C 
ATOM     10  C   UNL     1      -4.869 -12.920  17.709  0.00  0.00    +0.160 C 
ATOM     11  C   UNL     1      -5.018 -10.643  18.391  0.00  0.00    +0.043 C 
ATOM     12  C   UNL     1      -4.138 -11.874  18.547  0.00  0.00    +0.145 C 
ENDROOT
BRANCH   8  13
ATOM      6  N   UNL     1      -8.490  -9.455  15.044  0.00  0.00    -0.240 NA
ATOM     13  C   UNL     1      -6.761 -10.032  16.632  0.00  0.00    -0.024 A 
ATOM     15  C   UNL     1      -7.504  -9.462  17.660  0.00  0.00    +0.009 A 
ATOM     16  C   UNL     1      -7.294 -10.002  15.354  0.00  0.00    +0.116 A 
ATOM     17  C   UNL     1      -8.740  -8.889  17.381  0.00  0.00    +0.044 A 
ATOM     19  C   UNL     1      -9.184  -8.911  16.070  0.00  0.00    +0.121 A 
BRANCH  19   7
ATOM      3  O   UNL     1     -13.005  -7.238  15.531  0.00  0.00    -0.377 OA
ATOM      7  N   UNL     1     -10.428  -8.330  15.805  0.00  0.00    -0.311 N 
ATOM     20  C   UNL     1     -10.819  -7.142  16.577  0.00  0.00    +0.134 C 
ATOM     21  C   UNL     1     -11.541  -9.165  15.339  0.00  0.00    +0.134 C 
ATOM     24  C   UNL     1     -11.907  -6.378  15.832  0.00  0.00    +0.178 C 
ATOM     25  C   UNL     1     -12.592  -8.292  14.661  0.00  0.00    +0.178 C 
ENDBRANCH  19   7
ENDBRANCH   8  13
BRANCH  10   1
ATOM      1  O   UNL     1      -6.040 -13.378  18.383  0.00  0.00    -0.388 OA
ATOM     31  H   UNL     1      -5.859 -14.277  18.705  0.00  0.00    +0.210 HD
ENDBRANCH  10   1
BRANCH  12   2
ATOM      2  O   UNL     1      -4.014 -12.253  19.902  0.00  0.00    -0.389 OA
ATOM     32  H   UNL     1      -4.771 -11.875  20.382  0.00  0.00    +0.210 HD
ENDBRANCH  12   2
BRANCH   9   5
ATOM      5  N   UNL     1      -4.278 -12.277  15.413  0.00  0.00    -0.306 NA
ATOM     30  H   UNL     1      -4.725 -12.524  14.530  0.00  0.00    +0.123 HD
BRANCH   5  14
ATOM     14  C   UNL     1      -3.562 -11.021  15.237  0.00  0.00    +0.116 C 
BRANCH  14  18
ATOM     18  C   UNL     1      -3.396 -10.670  13.782  0.00  0.00    -0.030 A 
ATOM     22  C   UNL     1      -4.510 -10.326  13.017  0.00  0.00    +0.050 A 
ATOM     23  C   UNL     1      -2.129 -10.691  13.198  0.00  0.00    +0.005 A 
ATOM     26  C   UNL     1      -4.358 -10.002  11.669  0.00  0.00    +0.120 A 
ATOM     27  C   UNL     1      -1.977 -10.368  11.850  0.00  0.00    +0.004 A 
ATOM     28  C   UNL     1      -3.091 -10.023  11.086  0.00  0.00    +0.045 A 
BRANCH  26   4
ATOM      4  O   UNL     1      -5.445  -9.668  10.922  0.00  0.00    -0.495 OA
ATOM     29  C   UNL     1      -6.566  -9.121  11.617  0.00  0.00    +0.277 C 
ENDBRANCH  26   4
ENDBRANCH  14  18
ENDBRANCH   5  14
ENDBRANCH   9   5
TORSDOF 8
ENDMDL
