MODEL 1
REMARK VINA RESULT:      -7.4      0.000      0.000
REMARK  Name = 45783812
REMARK  7 active torsions:
REMARK  status: ('A' for Active; 'I' for Inactive)
REMARK    1  A    between atoms: N_4  and  C_13
REMARK    2  A    between atoms: N_8  and  C_27
REMARK    3  A    between atoms: N_8  and  C_28
REMARK    4  A    between atoms: N_8  and  C_29
REMARK    5  A    between atoms: C_9  and  C_14
REMARK    6  A    between atoms: C_13  and  C_15
REMARK    7  A    between atoms: C_18  and  C_22
REMARK                            x       y       z     vdW  Elec       q    Type
REMARK                         _______ _______ _______ _____ _____    ______ ____
ROOT
ATOM      4  N   UNL     1      12.623   8.779  18.294  0.00  0.00    -0.287 NA
ATOM      9  C   UNL     1      13.499   7.673  17.858  0.00  0.00    +0.146 C 
ATOM     10  C   UNL     1      14.165   8.185  16.568  0.00  0.00    +0.030 C 
ATOM     11  C   UNL     1      13.557   9.559  16.326  0.00  0.00    +0.017 C 
ATOM     12  C   UNL     1      12.245   9.508  17.082  0.00  0.00    +0.085 C 
ENDROOT
BRANCH   9  14
ATOM      1  O   UNL     1      14.012   6.655  20.021  0.00  0.00    -0.336 OA
ATOM      5  N   UNL     1      15.804   7.445  18.934  0.00  0.00    -0.190 NA
ATOM      6  N   UNL     1      15.114   6.392  20.844  0.00  0.00    -0.056 NA
ATOM     14  C   UNL     1      14.506   7.276  18.918  0.00  0.00    +0.245 A 
ATOM     18  C   UNL     1      16.132   6.887  20.135  0.00  0.00    +0.204 A 
BRANCH  18  22
ATOM      7  N   UNL     1      19.208   7.715  22.055  0.00  0.00    -0.240 NA
ATOM     22  C   UNL     1      17.490   6.838  20.597  0.00  0.00    +0.041 A 
ATOM     24  C   UNL     1      18.391   5.918  20.075  0.00  0.00    +0.016 A 
ATOM     25  C   UNL     1      17.943   7.707  21.576  0.00  0.00    +0.124 A 
ATOM     26  C   UNL     1      19.702   5.894  20.541  0.00  0.00    +0.044 A 
ATOM     27  C   UNL     1      20.057   6.805  21.523  0.00  0.00    +0.121 A 
BRANCH  27   8
ATOM      8  N   UNL     1      21.394   6.769  21.989  0.00  0.00    -0.321 N 
ATOM     28  C   UNL     1      22.490   6.685  21.050  0.00  0.00    +0.130 C 
ATOM     29  C   UNL     1      21.670   6.808  23.408  0.00  0.00    +0.130 C 
ENDBRANCH  27   8
ENDBRANCH  18  22
ENDBRANCH   9  14
BRANCH   4  13
ATOM     13  C   UNL     1      11.461   8.330  19.048  0.00  0.00    +0.120 C 
BRANCH  13  15
ATOM      2  O   UNL     1      12.445  11.959  22.265  0.00  0.00    -0.453 OA
ATOM      3  O   UNL     1      11.255  10.861  24.050  0.00  0.00    -0.453 OA
ATOM     15  C   UNL     1      11.386   8.979  20.404  0.00  0.00    -0.030 A 
ATOM     16  C   UNL     1      12.005  10.214  20.616  0.00  0.00    +0.054 A 
ATOM     17  C   UNL     1      10.693   8.339  21.446  0.00  0.00    +0.009 A 
ATOM     19  C   UNL     1      11.909  10.771  21.874  0.00  0.00    +0.167 A 
ATOM     20  C   UNL     1      10.609   8.925  22.711  0.00  0.00    +0.050 A 
ATOM     21  C   UNL     1      11.229  10.144  22.894  0.00  0.00    +0.166 A 
ATOM     23  C   UNL     1      12.027  12.010  23.644  0.00  0.00    +0.466 C 
ENDBRANCH  13  15
ENDBRANCH   4  13
TORSDOF 5
ENDMDL
MODEL 2
REMARK VINA RESULT:      -6.9     27.500     31.148
REMARK  Name = 45783812
REMARK  7 active torsions:
REMARK  status: ('A' for Active; 'I' for Inactive)
REMARK    1  A    between atoms: N_4  and  C_13
REMARK    2  A    between atoms: N_8  and  C_27
REMARK    3  A    between atoms: N_8  and  C_28
REMARK    4  A    between atoms: N_8  and  C_29
REMARK    5  A    between atoms: C_9  and  C_14
REMARK    6  A    between atoms: C_13  and  C_15
REMARK    7  A    between atoms: C_18  and  C_22
REMARK                            x       y       z     vdW  Elec       q    Type
REMARK                         _______ _______ _______ _____ _____    ______ ____
ROOT
ATOM      4  N   UNL     1     -15.929   5.459  21.935  0.00  0.00    -0.287 NA
ATOM      9  C   UNL     1     -17.146   4.991  22.628  0.00  0.00    +0.146 C 
ATOM     10  C   UNL     1     -18.074   4.500  21.501  0.00  0.00    +0.030 C 
ATOM     11  C   UNL     1     -17.319   4.789  20.211  0.00  0.00    +0.017 C 
ATOM     12  C   UNL     1     -16.353   5.889  20.601  0.00  0.00    +0.085 C 
ENDROOT
BRANCH   9  14
ATOM      1  O   UNL     1     -16.766   2.643  23.190  0.00  0.00    -0.336 OA
ATOM      5  N   UNL     1     -16.671   4.029  24.946  0.00  0.00    -0.190 NA
ATOM      6  N   UNL     1     -16.495   1.840  24.305  0.00  0.00    -0.056 NA
ATOM     14  C   UNL     1     -16.853   3.916  23.655  0.00  0.00    +0.245 A 
ATOM     18  C   UNL     1     -16.454   2.730  25.301  0.00  0.00    +0.204 A 
BRANCH  18  22
ATOM      7  N   UNL     1     -16.159   0.627  28.355  0.00  0.00    -0.240 NA
ATOM     22  C   UNL     1     -16.198   2.353  26.662  0.00  0.00    +0.041 A 
ATOM     24  C   UNL     1     -15.758   3.287  27.592  0.00  0.00    +0.016 A 
ATOM     25  C   UNL     1     -16.382   1.048  27.089  0.00  0.00    +0.124 A 
ATOM     26  C   UNL     1     -15.519   2.893  28.905  0.00  0.00    +0.044 A 
ATOM     27  C   UNL     1     -15.733   1.564  29.233  0.00  0.00    +0.121 A 
BRANCH  27   8
ATOM      8  N   UNL     1     -15.484   1.178  30.572  0.00  0.00    -0.321 N 
ATOM     28  C   UNL     1     -15.336  -0.220  30.911  0.00  0.00    +0.130 C 
ATOM     29  C   UNL     1     -15.382   2.178  31.611  0.00  0.00    +0.130 C 
ENDBRANCH  27   8
ENDBRANCH  18  22
ENDBRANCH   9  14
BRANCH   4  13
ATOM     13  C   UNL     1     -15.229   6.516  22.654  0.00  0.00    +0.120 C 
BRANCH  13  15
ATOM      2  O   UNL     1     -12.456   9.994  20.484  0.00  0.00    -0.453 OA
ATOM      3  O   UNL     1     -10.739   8.416  19.880  0.00  0.00    -0.453 OA
ATOM     15  C   UNL     1     -14.011   6.990  21.908  0.00  0.00    -0.030 A 
ATOM     16  C   UNL     1     -13.884   8.341  21.574  0.00  0.00    +0.054 A 
ATOM     17  C   UNL     1     -13.009   6.070  21.554  0.00  0.00    +0.009 A 
ATOM     19  C   UNL     1     -12.750   8.729  20.891  0.00  0.00    +0.167 A 
ATOM     20  C   UNL     1     -11.868   6.489  20.864  0.00  0.00    +0.050 A 
ATOM     21  C   UNL     1     -11.768   7.827  20.546  0.00  0.00    +0.166 A 
ATOM     23  C   UNL     1     -11.180   9.788  19.844  0.00  0.00    +0.466 C 
ENDBRANCH  13  15
ENDBRANCH   4  13
TORSDOF 5
ENDMDL
MODEL 3
REMARK VINA RESULT:      -6.9     26.182     29.490
REMARK  Name = 45783812
REMARK  7 active torsions:
REMARK  status: ('A' for Active; 'I' for Inactive)
REMARK    1  A    between atoms: N_4  and  C_13
REMARK    2  A    between atoms: N_8  and  C_27
REMARK    3  A    between atoms: N_8  and  C_28
REMARK    4  A    between atoms: N_8  and  C_29
REMARK    5  A    between atoms: C_9  and  C_14
REMARK    6  A    between atoms: C_13  and  C_15
REMARK    7  A    between atoms: C_18  and  C_22
REMARK                            x       y       z     vdW  Elec       q    Type
REMARK                         _______ _______ _______ _____ _____    ______ ____
ROOT
ATOM      4  N   UNL     1      -2.912 -10.606  14.082  0.00  0.00    -0.287 NA
ATOM      9  C   UNL     1      -3.189 -11.282  15.365  0.00  0.00    +0.146 C 
ATOM     10  C   UNL     1      -2.099 -10.765  16.323  0.00  0.00    +0.030 C 
ATOM     11  C   UNL     1      -1.223  -9.855  15.474  0.00  0.00    +0.017 C 
ATOM     12  C   UNL     1      -1.473 -10.336  14.059  0.00  0.00    +0.085 C 
ENDROOT
BRANCH   9  14
ATOM      1  O   UNL     1      -5.020 -11.788  16.903  0.00  0.00    -0.336 OA
ATOM      5  N   UNL     1      -5.467 -10.132  15.463  0.00  0.00    -0.190 NA
ATOM      6  N   UNL     1      -6.321 -11.360  17.194  0.00  0.00    -0.056 NA
ATOM     14  C   UNL     1      -4.590 -11.013  15.874  0.00  0.00    +0.245 A 
ATOM     18  C   UNL     1      -6.513 -10.383  16.303  0.00  0.00    +0.204 A 
BRANCH  18  22
ATOM      7  N   UNL     1      -9.561  -8.794  14.883  0.00  0.00    -0.240 NA
ATOM     22  C   UNL     1      -7.736  -9.637  16.227  0.00  0.00    +0.041 A 
ATOM     24  C   UNL     1      -8.285  -9.045  17.358  0.00  0.00    +0.016 A 
ATOM     25  C   UNL     1      -8.405  -9.484  15.024  0.00  0.00    +0.124 A 
ATOM     26  C   UNL     1      -9.472  -8.327  17.254  0.00  0.00    +0.044 A 
ATOM     27  C   UNL     1     -10.065  -8.232  16.005  0.00  0.00    +0.121 A 
BRANCH  27   8
ATOM      8  N   UNL     1     -11.273  -7.499  15.914  0.00  0.00    -0.321 N 
ATOM     28  C   UNL     1     -11.250  -6.099  15.552  0.00  0.00    +0.130 C 
ATOM     29  C   UNL     1     -12.538  -8.144  16.190  0.00  0.00    +0.130 C 
ENDBRANCH  27   8
ENDBRANCH  18  22
ENDBRANCH   9  14
BRANCH   4  13
ATOM     13  C   UNL     1      -3.343 -11.375  12.922  0.00  0.00    +0.120 C 
BRANCH  13  15
ATOM      2  O   UNL     1      -7.300  -9.264  10.830  0.00  0.00    -0.453 OA
ATOM      3  O   UNL     1      -5.971  -8.165   9.146  0.00  0.00    -0.453 OA
ATOM     15  C   UNL     1      -4.015 -10.508  11.892  0.00  0.00    -0.030 A 
ATOM     16  C   UNL     1      -5.403 -10.344  11.921  0.00  0.00    +0.054 A 
ATOM     17  C   UNL     1      -3.241  -9.866  10.909  0.00  0.00    +0.009 A 
ATOM     19  C   UNL     1      -5.973  -9.538  10.958  0.00  0.00    +0.167 A 
ATOM     20  C   UNL     1      -3.843  -9.054   9.945  0.00  0.00    +0.050 A 
ATOM     21  C   UNL     1      -5.214  -8.910   9.996  0.00  0.00    +0.166 A 
ATOM     23  C   UNL     1      -7.291  -8.393   9.680  0.00  0.00    +0.466 C 
ENDBRANCH  13  15
ENDBRANCH   4  13
TORSDOF 5
ENDMDL
MODEL 4
REMARK VINA RESULT:      -6.8     15.341     19.006
REMARK  Name = 45783812
REMARK  7 active torsions:
REMARK  status: ('A' for Active; 'I' for Inactive)
REMARK    1  A    between atoms: N_4  and  C_13
REMARK    2  A    between atoms: N_8  and  C_27
REMARK    3  A    between atoms: N_8  and  C_28
REMARK    4  A    between atoms: N_8  and  C_29
REMARK    5  A    between atoms: C_9  and  C_14
REMARK    6  A    between atoms: C_13  and  C_15
REMARK    7  A    between atoms: C_18  and  C_22
REMARK                            x       y       z     vdW  Elec       q    Type
REMARK                         _______ _______ _______ _____ _____    ______ ____
ROOT
ATOM      4  N   UNL     1       9.449   7.678   6.297  0.00  0.00    -0.287 NA
ATOM      9  C   UNL     1      10.577   6.733   6.425  0.00  0.00    +0.146 C 
ATOM     10  C   UNL     1      10.370   6.061   7.796  0.00  0.00    +0.030 C 
ATOM     11  C   UNL     1       9.141   6.736   8.387  0.00  0.00    +0.017 C 
ATOM     12  C   UNL     1       9.075   8.063   7.659  0.00  0.00    +0.085 C 
ENDROOT
BRANCH   9  14
ATOM      1  O   UNL     1      10.028   4.537   5.502  0.00  0.00    -0.336 OA
ATOM      5  N   UNL     1      11.184   5.853   4.106  0.00  0.00    -0.190 NA
ATOM      6  N   UNL     1      10.208   3.795   4.329  0.00  0.00    -0.056 NA
ATOM     14  C   UNL     1      10.631   5.735   5.287  0.00  0.00    +0.245 A 
ATOM     18  C   UNL     1      10.898   4.638   3.554  0.00  0.00    +0.204 A 
BRANCH  18  22
ATOM      7  N   UNL     1      10.760   4.056  -0.116  0.00  0.00    -0.240 NA
ATOM     22  C   UNL     1      11.316   4.298   2.225  0.00  0.00    +0.041 A 
ATOM     24  C   UNL     1      12.619   3.892   1.965  0.00  0.00    +0.016 A 
ATOM     25  C   UNL     1      10.432   4.362   1.160  0.00  0.00    +0.124 A 
ATOM     26  C   UNL     1      12.996   3.567   0.665  0.00  0.00    +0.044 A 
ATOM     27  C   UNL     1      12.037   3.664  -0.330  0.00  0.00    +0.121 A 
BRANCH  27   8
ATOM      8  N   UNL     1      12.435   3.332  -1.648  0.00  0.00    -0.321 N 
ATOM     28  C   UNL     1      13.561   4.001  -2.260  0.00  0.00    +0.130 C 
ATOM     29  C   UNL     1      11.712   2.325  -2.394  0.00  0.00    +0.130 C 
ENDBRANCH  27   8
ENDBRANCH  18  22
ENDBRANCH   9  14
BRANCH   4  13
ATOM     13  C   UNL     1       9.761   8.835   5.468  0.00  0.00    +0.120 C 
BRANCH  13  15
ATOM      2  O   UNL     1       5.343  10.333   3.815  0.00  0.00    -0.453 OA
ATOM      3  O   UNL     1       5.838   9.682   1.548  0.00  0.00    -0.453 OA
ATOM     15  C   UNL     1       8.731   9.046   4.390  0.00  0.00    -0.030 A 
ATOM     16  C   UNL     1       7.498   9.620   4.712  0.00  0.00    +0.054 A 
ATOM     17  C   UNL     1       9.019   8.665   3.068  0.00  0.00    +0.009 A 
ATOM     19  C   UNL     1       6.587   9.795   3.691  0.00  0.00    +0.167 A 
ATOM     20  C   UNL     1       8.079   8.855   2.052  0.00  0.00    +0.050 A 
ATOM     21  C   UNL     1       6.870   9.423   2.396  0.00  0.00    +0.166 A 
ATOM     23  C   UNL     1       4.875  10.259   2.453  0.00  0.00    +0.466 C 
ENDBRANCH  13  15
ENDBRANCH   4  13
TORSDOF 5
ENDMDL
MODEL 5
REMARK VINA RESULT:      -6.8     27.674     30.246
REMARK  Name = 45783812
REMARK  7 active torsions:
REMARK  status: ('A' for Active; 'I' for Inactive)
REMARK    1  A    between atoms: N_4  and  C_13
REMARK    2  A    between atoms: N_8  and  C_27
REMARK    3  A    between atoms: N_8  and  C_28
REMARK    4  A    between atoms: N_8  and  C_29
REMARK    5  A    between atoms: C_9  and  C_14
REMARK    6  A    between atoms: C_13  and  C_15
REMARK    7  A    between atoms: C_18  and  C_22
REMARK                            x       y       z     vdW  Elec       q    Type
REMARK                         _______ _______ _______ _____ _____    ______ ____
ROOT
ATOM      4  N   UNL     1     -11.280 -11.611  18.292  0.00  0.00    -0.287 NA
ATOM      9  C   UNL     1     -10.324 -12.236  19.227  0.00  0.00    +0.146 C 
ATOM     10  C   UNL     1     -10.439 -13.747  18.952  0.00  0.00    +0.030 C 
ATOM     11  C   UNL     1     -11.525 -13.877  17.894  0.00  0.00    +0.017 C 
ATOM     12  C   UNL     1     -12.329 -12.603  18.049  0.00  0.00    +0.085 C 
ENDROOT
BRANCH   9  14
ATOM      1  O   UNL     1      -8.382 -11.035  20.100  0.00  0.00    -0.336 OA
ATOM      5  N   UNL     1      -8.111 -11.822  18.020  0.00  0.00    -0.190 NA
ATOM      6  N   UNL     1      -7.092 -10.659  19.706  0.00  0.00    -0.056 NA
ATOM     14  C   UNL     1      -8.912 -11.716  19.050  0.00  0.00    +0.245 A 
ATOM     18  C   UNL     1      -7.007 -11.159  18.469  0.00  0.00    +0.204 A 
BRANCH  18  22
ATOM      7  N   UNL     1      -4.841 -10.310  15.568  0.00  0.00    -0.240 NA
ATOM     22  C   UNL     1      -5.833 -11.014  17.658  0.00  0.00    +0.041 A 
ATOM     24  C   UNL     1      -4.586 -11.413  18.124  0.00  0.00    +0.016 A 
ATOM     25  C   UNL     1      -5.907 -10.474  16.384  0.00  0.00    +0.124 A 
ATOM     26  C   UNL     1      -3.465 -11.262  17.314  0.00  0.00    +0.044 A 
ATOM     27  C   UNL     1      -3.644 -10.710  16.056  0.00  0.00    +0.121 A 
BRANCH  27   8
ATOM      8  N   UNL     1      -2.494 -10.561  15.243  0.00  0.00    -0.321 N 
ATOM     28  C   UNL     1      -2.606 -10.634  13.803  0.00  0.00    +0.130 C 
ATOM     29  C   UNL     1      -1.199 -10.340  15.848  0.00  0.00    +0.130 C 
ENDBRANCH  27   8
ENDBRANCH  18  22
ENDBRANCH   9  14
BRANCH   4  13
ATOM     13  C   UNL     1     -11.821 -10.350  18.780  0.00  0.00    +0.120 C 
BRANCH  13  15
ATOM      2  O   UNL     1     -12.941  -6.793  15.527  0.00  0.00    -0.453 OA
ATOM      3  O   UNL     1     -10.653  -6.052  15.370  0.00  0.00    -0.453 OA
ATOM     15  C   UNL     1     -11.471  -9.200  17.874  0.00  0.00    -0.030 A 
ATOM     16  C   UNL     1     -12.475  -8.570  17.133  0.00  0.00    +0.054 A 
ATOM     17  C   UNL     1     -10.136  -8.768  17.781  0.00  0.00    +0.009 A 
ATOM     19  C   UNL     1     -12.106  -7.521  16.317  0.00  0.00    +0.167 A 
ATOM     20  C   UNL     1      -9.790  -7.701  16.948  0.00  0.00    +0.050 A 
ATOM     21  C   UNL     1     -10.799  -7.097  16.227  0.00  0.00    +0.166 A 
ATOM     23  C   UNL     1     -12.013  -5.864  14.929  0.00  0.00    +0.466 C 
ENDBRANCH  13  15
ENDBRANCH   4  13
TORSDOF 5
ENDMDL
MODEL 6
REMARK VINA RESULT:      -6.7     26.354     29.611
REMARK  Name = 45783812
REMARK  7 active torsions:
REMARK  status: ('A' for Active; 'I' for Inactive)
REMARK    1  A    between atoms: N_4  and  C_13
REMARK    2  A    between atoms: N_8  and  C_27
REMARK    3  A    between atoms: N_8  and  C_28
REMARK    4  A    between atoms: N_8  and  C_29
REMARK    5  A    between atoms: C_9  and  C_14
REMARK    6  A    between atoms: C_13  and  C_15
REMARK    7  A    between atoms: C_18  and  C_22
REMARK                            x       y       z     vdW  Elec       q    Type
REMARK                         _______ _______ _______ _____ _____    ______ ____
ROOT
ATOM      4  N   UNL     1      -3.168 -10.706  14.405  0.00  0.00    -0.287 NA
ATOM      9  C   UNL     1      -3.013 -11.283  15.755  0.00  0.00    +0.146 C 
ATOM     10  C   UNL     1      -1.719 -10.652  16.303  0.00  0.00    +0.030 C 
ATOM     11  C   UNL     1      -1.189  -9.785  15.170  0.00  0.00    +0.017 C 
ATOM     12  C   UNL     1      -1.820 -10.390  13.932  0.00  0.00    +0.085 C 
ENDROOT
BRANCH   9  14
ATOM      1  O   UNL     1      -4.022 -11.170  17.978  0.00  0.00    -0.336 OA
ATOM      5  N   UNL     1      -5.429 -10.668  16.309  0.00  0.00    -0.190 NA
ATOM      6  N   UNL     1      -5.253 -10.880  18.580  0.00  0.00    -0.056 NA
ATOM     14  C   UNL     1      -4.213 -11.021  16.641  0.00  0.00    +0.245 A 
ATOM     18  C   UNL     1      -6.030 -10.594  17.531  0.00  0.00    +0.204 A 
BRANCH  18  22
ATOM      7  N   UNL     1      -9.581 -10.687  18.633  0.00  0.00    -0.240 NA
ATOM     22  C   UNL     1      -7.411 -10.229  17.671  0.00  0.00    +0.041 A 
ATOM     24  C   UNL     1      -7.926  -9.116  17.019  0.00  0.00    +0.016 A 
ATOM     25  C   UNL     1      -8.271 -10.976  18.459  0.00  0.00    +0.124 A 
ATOM     26  C   UNL     1      -9.269  -8.786  17.172  0.00  0.00    +0.044 A 
ATOM     27  C   UNL     1     -10.047  -9.597  17.982  0.00  0.00    +0.121 A 
BRANCH  27   8
ATOM      8  N   UNL     1     -11.412  -9.249  18.130  0.00  0.00    -0.321 N 
ATOM     28  C   UNL     1     -12.173  -9.748  19.254  0.00  0.00    +0.130 C 
ATOM     29  C   UNL     1     -12.055  -8.397  17.154  0.00  0.00    +0.130 C 
ENDBRANCH  27   8
ENDBRANCH  18  22
ENDBRANCH   9  14
BRANCH   4  13
ATOM     13  C   UNL     1      -3.880 -11.583  13.483  0.00  0.00    +0.120 C 
BRANCH  13  15
ATOM      2  O   UNL     1      -4.301 -10.543   8.663  0.00  0.00    -0.453 OA
ATOM      3  O   UNL     1      -5.954  -8.835   9.055  0.00  0.00    -0.453 OA
ATOM     15  C   UNL     1      -4.457 -10.824  12.319  0.00  0.00    -0.030 A 
ATOM     16  C   UNL     1      -4.032 -11.118  11.020  0.00  0.00    +0.054 A 
ATOM     17  C   UNL     1      -5.421  -9.827  12.547  0.00  0.00    +0.009 A 
ATOM     19  C   UNL     1      -4.590 -10.398   9.985  0.00  0.00    +0.167 A 
ATOM     20  C   UNL     1      -5.972  -9.112  11.480  0.00  0.00    +0.050 A 
ATOM     21  C   UNL     1      -5.535  -9.421  10.209  0.00  0.00    +0.166 A 
ATOM     23  C   UNL     1      -5.169  -9.550   8.080  0.00  0.00    +0.466 C 
ENDBRANCH  13  15
ENDBRANCH   4  13
TORSDOF 5
ENDMDL
MODEL 7
REMARK VINA RESULT:      -6.5     27.338     29.319
REMARK  Name = 45783812
REMARK  7 active torsions:
REMARK  status: ('A' for Active; 'I' for Inactive)
REMARK    1  A    between atoms: N_4  and  C_13
REMARK    2  A    between atoms: N_8  and  C_27
REMARK    3  A    between atoms: N_8  and  C_28
REMARK    4  A    between atoms: N_8  and  C_29
REMARK    5  A    between atoms: C_9  and  C_14
REMARK    6  A    between atoms: C_13  and  C_15
REMARK    7  A    between atoms: C_18  and  C_22
REMARK                            x       y       z     vdW  Elec       q    Type
REMARK                         _______ _______ _______ _____ _____    ______ ____
ROOT
ATOM      4  N   UNL     1      -3.230 -12.208  14.183  0.00  0.00    -0.287 NA
ATOM      9  C   UNL     1      -2.353 -12.215  12.995  0.00  0.00    +0.146 C 
ATOM     10  C   UNL     1      -2.357 -13.678  12.514  0.00  0.00    +0.030 C 
ATOM     11  C   UNL     1      -3.211 -14.427  13.527  0.00  0.00    +0.017 C 
ATOM     12  C   UNL     1      -3.152 -13.551  14.762  0.00  0.00    +0.085 C 
ENDROOT
BRANCH   9  14
ATOM      1  O   UNL     1      -1.922 -10.299  11.539  0.00  0.00    -0.336 OA
ATOM      5  N   UNL     1      -3.967 -11.182  11.306  0.00  0.00    -0.190 NA
ATOM      6  N   UNL     1      -2.567  -9.535  10.559  0.00  0.00    -0.056 NA
ATOM     14  C   UNL     1      -2.815 -11.247  11.925  0.00  0.00    +0.245 A 
ATOM     18  C   UNL     1      -3.767 -10.117  10.478  0.00  0.00    +0.204 A 
BRANCH  18  22
ATOM      7  N   UNL     1      -5.739  -9.673   7.356  0.00  0.00    -0.240 NA
ATOM     22  C   UNL     1      -4.787  -9.659   9.579  0.00  0.00    +0.041 A 
ATOM     24  C   UNL     1      -5.785  -8.793  10.009  0.00  0.00    +0.016 A 
ATOM     25  C   UNL     1      -4.807 -10.066   8.254  0.00  0.00    +0.124 A 
ATOM     26  C   UNL     1      -6.761  -8.366   9.115  0.00  0.00    +0.044 A 
ATOM     27  C   UNL     1      -6.694  -8.830   7.811  0.00  0.00    +0.121 A 
BRANCH  27   8
ATOM      8  N   UNL     1      -7.695  -8.387   6.912  0.00  0.00    -0.321 N 
ATOM     28  C   UNL     1      -7.477  -8.465   5.485  0.00  0.00    +0.130 C 
ATOM     29  C   UNL     1      -8.939  -7.848   7.416  0.00  0.00    +0.130 C 
ENDBRANCH  27   8
ENDBRANCH  18  22
ENDBRANCH   9  14
BRANCH   4  13
ATOM     13  C   UNL     1      -2.881 -11.174  15.149  0.00  0.00    +0.120 C 
BRANCH  13  15
ATOM      2  O   UNL     1      -7.384  -9.409  16.197  0.00  0.00    -0.453 OA
ATOM      3  O   UNL     1      -7.204 -10.004  18.526  0.00  0.00    -0.453 OA
ATOM     15  C   UNL     1      -4.021 -10.874  16.084  0.00  0.00    -0.030 A 
ATOM     16  C   UNL     1      -5.175 -10.255  15.595  0.00  0.00    +0.054 A 
ATOM     17  C   UNL     1      -3.917 -11.220  17.443  0.00  0.00    +0.009 A 
ATOM     19  C   UNL     1      -6.194 -10.001  16.490  0.00  0.00    +0.167 A 
ATOM     20  C   UNL     1      -4.964 -10.953  18.328  0.00  0.00    +0.050 A 
ATOM     21  C   UNL     1      -6.092 -10.341  17.820  0.00  0.00    +0.166 A 
ATOM     23  C   UNL     1      -8.019  -9.414  17.492  0.00  0.00    +0.466 C 
ENDBRANCH  13  15
ENDBRANCH   4  13
TORSDOF 5
ENDMDL
MODEL 8
REMARK VINA RESULT:      -6.2     27.552     29.739
REMARK  Name = 45783812
REMARK  7 active torsions:
REMARK  status: ('A' for Active; 'I' for Inactive)
REMARK    1  A    between atoms: N_4  and  C_13
REMARK    2  A    between atoms: N_8  and  C_27
REMARK    3  A    between atoms: N_8  and  C_28
REMARK    4  A    between atoms: N_8  and  C_29
REMARK    5  A    between atoms: C_9  and  C_14
REMARK    6  A    between atoms: C_13  and  C_15
REMARK    7  A    between atoms: C_18  and  C_22
REMARK                            x       y       z     vdW  Elec       q    Type
REMARK                         _______ _______ _______ _____ _____    ______ ____
ROOT
ATOM      4  N   UNL     1      -3.615 -11.898  13.779  0.00  0.00    -0.287 NA
ATOM      9  C   UNL     1      -2.678 -12.023  12.645  0.00  0.00    +0.146 C 
ATOM     10  C   UNL     1      -2.556 -13.539  12.403  0.00  0.00    +0.030 C 
ATOM     11  C   UNL     1      -3.410 -14.184  13.486  0.00  0.00    +0.017 C 
ATOM     12  C   UNL     1      -3.477 -13.124  14.567  0.00  0.00    +0.085 C 
ENDROOT
BRANCH   9  14
ATOM      1  O   UNL     1      -2.790  -9.963  11.334  0.00  0.00    -0.336 OA
ATOM      5  N   UNL     1      -3.860 -11.697  10.404  0.00  0.00    -0.190 NA
ATOM      6  N   UNL     1      -3.331  -9.488  10.133  0.00  0.00    -0.056 NA
ATOM     14  C   UNL     1      -3.147 -11.271  11.416  0.00  0.00    +0.245 A 
ATOM     18  C   UNL     1      -3.946 -10.569   9.643  0.00  0.00    +0.204 A 
BRANCH  18  22
ATOM      7  N   UNL     1      -6.259  -9.473   6.944  0.00  0.00    -0.240 NA
ATOM     22  C   UNL     1      -4.655 -10.554   8.395  0.00  0.00    +0.041 A 
ATOM     24  C   UNL     1      -4.457 -11.551   7.448  0.00  0.00    +0.016 A 
ATOM     25  C   UNL     1      -5.559  -9.546   8.099  0.00  0.00    +0.124 A 
ATOM     26  C   UNL     1      -5.159 -11.511   6.247  0.00  0.00    +0.044 A 
ATOM     27  C   UNL     1      -6.040 -10.461   6.046  0.00  0.00    +0.121 A 
BRANCH  27   8
ATOM      8  N   UNL     1      -6.746 -10.433   4.819  0.00  0.00    -0.321 N 
ATOM     28  C   UNL     1      -7.745  -9.416   4.576  0.00  0.00    +0.130 C 
ATOM     29  C   UNL     1      -6.479 -11.426   3.802  0.00  0.00    +0.130 C 
ENDBRANCH  27   8
ENDBRANCH  18  22
ENDBRANCH   9  14
BRANCH   4  13
ATOM     13  C   UNL     1      -3.390 -10.703  14.582  0.00  0.00    +0.120 C 
BRANCH  13  15
ATOM      2  O   UNL     1      -5.024 -11.054  19.240  0.00  0.00    -0.453 OA
ATOM      3  O   UNL     1      -7.186 -10.152  18.674  0.00  0.00    -0.453 OA
ATOM     15  C   UNL     1      -4.434 -10.543  15.654  0.00  0.00    -0.030 A 
ATOM     16  C   UNL     1      -4.140 -10.915  16.969  0.00  0.00    +0.054 A 
ATOM     17  C   UNL     1      -5.695 -10.017  15.325  0.00  0.00    +0.009 A 
ATOM     19  C   UNL     1      -5.127 -10.748  17.917  0.00  0.00    +0.167 A 
ATOM     20  C   UNL     1      -6.678  -9.857  16.305  0.00  0.00    +0.050 A 
ATOM     21  C   UNL     1      -6.363 -10.233  17.595  0.00  0.00    +0.166 A 
ATOM     23  C   UNL     1      -6.332 -10.673  19.713  0.00  0.00    +0.466 C 
ENDBRANCH  13  15
ENDBRANCH   4  13
TORSDOF 5
ENDMDL
MODEL 9
REMARK VINA RESULT:      -6.2     27.817     29.581
REMARK  Name = 45783812
REMARK  7 active torsions:
REMARK  status: ('A' for Active; 'I' for Inactive)
REMARK    1  A    between atoms: N_4  and  C_13
REMARK    2  A    between atoms: N_8  and  C_27
REMARK    3  A    between atoms: N_8  and  C_28
REMARK    4  A    between atoms: N_8  and  C_29
REMARK    5  A    between atoms: C_9  and  C_14
REMARK    6  A    between atoms: C_13  and  C_15
REMARK    7  A    between atoms: C_18  and  C_22
REMARK                            x       y       z     vdW  Elec       q    Type
REMARK                         _______ _______ _______ _____ _____    ______ ____
ROOT
ATOM      4  N   UNL     1      -6.179  -9.498   8.861  0.00  0.00    -0.287 NA
ATOM      9  C   UNL     1      -6.810  -8.789   9.992  0.00  0.00    +0.146 C 
ATOM     10  C   UNL     1      -8.227  -8.444   9.497  0.00  0.00    +0.030 C 
ATOM     11  C   UNL     1      -8.278  -8.942   8.060  0.00  0.00    +0.017 C 
ATOM     12  C   UNL     1      -6.821  -8.991   7.646  0.00  0.00    +0.085 C 
ENDROOT
BRANCH   9  14
ATOM      1  O   UNL     1      -7.408 -10.835  11.187  0.00  0.00    -0.336 OA
ATOM      5  N   UNL     1      -6.339  -9.322  12.446  0.00  0.00    -0.190 NA
ATOM      6  N   UNL     1      -7.296 -11.399  12.464  0.00  0.00    -0.056 NA
ATOM     14  C   UNL     1      -6.819  -9.614  11.263  0.00  0.00    +0.245 A 
ATOM     18  C   UNL     1      -6.655 -10.447  13.149  0.00  0.00    +0.204 A 
BRANCH  18  22
ATOM      7  N   UNL     1      -6.998 -11.172  16.780  0.00  0.00    -0.240 NA
ATOM     22  C   UNL     1      -6.315 -10.590  14.535  0.00  0.00    +0.041 A 
ATOM     24  C   UNL     1      -5.034 -10.303  14.991  0.00  0.00    +0.016 A 
ATOM     25  C   UNL     1      -7.253 -11.017  15.461  0.00  0.00    +0.124 A 
ATOM     26  C   UNL     1      -4.733 -10.449  16.342  0.00  0.00    +0.044 A 
ATOM     27  C   UNL     1      -5.741 -10.883  17.187  0.00  0.00    +0.121 A 
BRANCH  27   8
ATOM      8  N   UNL     1      -5.420 -11.029  18.559  0.00  0.00    -0.321 N 
ATOM     28  C   UNL     1      -6.279 -10.458  19.572  0.00  0.00    +0.130 C 
ATOM     29  C   UNL     1      -4.227 -11.744  18.954  0.00  0.00    +0.130 C 
ENDBRANCH  27   8
ENDBRANCH  18  22
ENDBRANCH   9  14
BRANCH   4  13
ATOM     13  C   UNL     1      -4.731  -9.342   8.820  0.00  0.00    +0.120 C 
BRANCH  13  15
ATOM      2  O   UNL     1      -3.716 -13.718  10.898  0.00  0.00    -0.453 OA
ATOM      3  O   UNL     1      -2.231 -12.735  12.523  0.00  0.00    -0.453 OA
ATOM     15  C   UNL     1      -4.044 -10.222   9.830  0.00  0.00    -0.030 A 
ATOM     16  C   UNL     1      -4.271 -11.601   9.816  0.00  0.00    +0.054 A 
ATOM     17  C   UNL     1      -3.179  -9.650  10.778  0.00  0.00    +0.009 A 
ATOM     19  C   UNL     1      -3.618 -12.367  10.759  0.00  0.00    +0.167 A 
ATOM     20  C   UNL     1      -2.528 -10.449  11.722  0.00  0.00    +0.050 A 
ATOM     21  C   UNL     1      -2.770 -11.806  11.687  0.00  0.00    +0.166 A 
ATOM     23  C   UNL     1      -2.834 -13.944  12.017  0.00  0.00    +0.466 C 
ENDBRANCH  13  15
ENDBRANCH   4  13
TORSDOF 5
ENDMDL
MODEL 10
REMARK VINA RESULT:      -6.2     14.715     17.318
REMARK  Name = 45783812
REMARK  7 active torsions:
REMARK  status: ('A' for Active; 'I' for Inactive)
REMARK    1  A    between atoms: N_4  and  C_13
REMARK    2  A    between atoms: N_8  and  C_27
REMARK    3  A    between atoms: N_8  and  C_28
REMARK    4  A    between atoms: N_8  and  C_29
REMARK    5  A    between atoms: C_9  and  C_14
REMARK    6  A    between atoms: C_13  and  C_15
REMARK    7  A    between atoms: C_18  and  C_22
REMARK                            x       y       z     vdW  Elec       q    Type
REMARK                         _______ _______ _______ _____ _____    ______ ____
ROOT
ATOM      4  N   UNL     1       9.729   6.838   4.622  0.00  0.00    -0.287 NA
ATOM      9  C   UNL     1      10.359   8.016   5.252  0.00  0.00    +0.146 C 
ATOM     10  C   UNL     1       9.529   8.268   6.525  0.00  0.00    +0.030 C 
ATOM     11  C   UNL     1       8.422   7.224   6.491  0.00  0.00    +0.017 C 
ATOM     12  C   UNL     1       8.322   6.856   5.025  0.00  0.00    +0.085 C 
ENDROOT
BRANCH   9  14
ATOM      1  O   UNL     1      12.125   7.038   6.630  0.00  0.00    -0.336 OA
ATOM      5  N   UNL     1      12.878   8.251   4.904  0.00  0.00    -0.190 NA
ATOM      6  N   UNL     1      13.523   6.985   6.697  0.00  0.00    -0.056 NA
ATOM     14  C   UNL     1      11.829   7.802   5.547  0.00  0.00    +0.245 A 
ATOM     18  C   UNL     1      13.894   7.724   5.647  0.00  0.00    +0.204 A 
BRANCH  18  22
ATOM      7  N   UNL     1      17.045   7.830   3.675  0.00  0.00    -0.240 NA
ATOM     22  C   UNL     1      15.270   7.954   5.312  0.00  0.00    +0.041 A 
ATOM     24  C   UNL     1      16.151   8.497   6.239  0.00  0.00    +0.016 A 
ATOM     25  C   UNL     1      15.761   7.639   4.056  0.00  0.00    +0.124 A 
ATOM     26  C   UNL     1      17.481   8.707   5.887  0.00  0.00    +0.044 A 
ATOM     27  C   UNL     1      17.874   8.360   4.604  0.00  0.00    +0.121 A 
BRANCH  27   8
ATOM      8  N   UNL     1      19.229   8.581   4.259  0.00  0.00    -0.321 N 
ATOM     28  C   UNL     1      20.250   7.650   4.686  0.00  0.00    +0.130 C 
ATOM     29  C   UNL     1      19.602   9.743   3.482  0.00  0.00    +0.130 C 
ENDBRANCH  27   8
ENDBRANCH  18  22
ENDBRANCH   9  14
BRANCH   4  13
ATOM     13  C   UNL     1       9.884   6.811   3.173  0.00  0.00    +0.120 C 
BRANCH  13  15
ATOM      2  O   UNL     1      14.235   5.331   1.338  0.00  0.00    -0.453 OA
ATOM      3  O   UNL     1      13.647   3.000   1.506  0.00  0.00    -0.453 OA
ATOM     15  C   UNL     1      10.868   5.761   2.733  0.00  0.00    -0.030 A 
ATOM     16  C   UNL     1      12.116   6.145   2.234  0.00  0.00    +0.054 A 
ATOM     17  C   UNL     1      10.526   4.401   2.830  0.00  0.00    +0.009 A 
ATOM     19  C   UNL     1      12.985   5.148   1.845  0.00  0.00    +0.167 A 
ATOM     20  C   UNL     1      11.426   3.410   2.431  0.00  0.00    +0.050 A 
ATOM     21  C   UNL     1      12.649   3.816   1.941  0.00  0.00    +0.166 A 
ATOM     23  C   UNL     1      14.648   3.965   1.126  0.00  0.00    +0.466 C 
ENDBRANCH  13  15
ENDBRANCH   4  13
TORSDOF 5
ENDMDL
