MODEL 1
REMARK VINA RESULT:      -7.1      0.000      0.000
REMARK  Name = 75536905
REMARK  4 active torsions:
REMARK  status: ('A' for Active; 'I' for Inactive)
REMARK    1  A    between atoms: O_5  and  C_10
REMARK    2  A    between atoms: O_5  and  C_17
REMARK    3  A    between atoms: C_15  and  C_16
REMARK    4  A    between atoms: C_20  and  C_24
REMARK                            x       y       z     vdW  Elec       q    Type
REMARK                         _______ _______ _______ _____ _____    ______ ____
ROOT
ATOM      4  O   UNL     1      11.801   9.258  16.433  0.00  0.00    -0.375 OA
ATOM      6  O   UNL     1      12.858   6.575  20.304  0.00  0.00    -0.270 OA
ATOM      7  N   UNL     1      13.345   8.495  19.052  0.00  0.00    -0.292 N 
ATOM     10  C   UNL     1      13.901  10.205  17.240  0.00  0.00    +0.218 C 
ATOM     11  C   UNL     1      14.352   9.372  18.443  0.00  0.00    +0.155 C 
ATOM     12  C   UNL     1      11.930   8.806  18.835  0.00  0.00    +0.136 C 
ATOM     13  C   UNL     1      13.195   9.379  16.166  0.00  0.00    +0.206 C 
ATOM     14  C   UNL     1      11.470   8.333  17.464  0.00  0.00    +0.179 C 
ATOM     15  C   UNL     1      13.669   7.353  19.803  0.00  0.00    +0.247 C 
ENDROOT
BRANCH  15  16
ATOM     16  C   UNL     1      15.090   7.041  20.020  0.00  0.00    +0.037 A 
ATOM     18  C   UNL     1      15.697   7.362  21.235  0.00  0.00    +0.013 A 
ATOM     19  C   UNL     1      15.831   6.425  19.012  0.00  0.00    +0.013 A 
ATOM     20  C   UNL     1      17.785   6.451  20.432  0.00  0.00    +0.055 A 
ATOM     21  C   UNL     1      17.044   7.067  21.441  0.00  0.00    +0.013 A 
ATOM     22  C   UNL     1      17.179   6.130  19.218  0.00  0.00    +0.013 A 
BRANCH  20  24
ATOM      1  F   UNL     1      19.578   6.075  21.971  0.00  0.00    -0.166 F 
ATOM      2  F   UNL     1      20.078   7.050  20.099  0.00  0.00    -0.166 F 
ATOM      3  F   UNL     1      19.588   4.932  20.122  0.00  0.00    -0.166 F 
ATOM     24  C   UNL     1      19.226   6.136  20.653  0.00  0.00    +0.417 C 
ENDBRANCH  20  24
ENDBRANCH  15  16
BRANCH  10   5
ATOM      5  O   UNL     1      15.077  10.788  16.678  0.00  0.00    -0.468 OA
BRANCH   5  17
ATOM      8  N   UNL     1      14.203  12.497  15.366  0.00  0.00    -0.219 NA
ATOM      9  N   UNL     1      15.441  11.363  13.119  0.00  0.00    -0.256 NA
ATOM     17  C   UNL     1      14.943  11.373  15.450  0.00  0.00    +0.234 A 
ATOM     23  C   UNL     1      15.551  10.816  14.346  0.00  0.00    +0.177 A 
ATOM     25  C   UNL     1      14.094  13.044  14.139  0.00  0.00    +0.134 A 
ATOM     26  C   UNL     1      14.701  12.487  13.035  0.00  0.00    +0.130 A 
ENDBRANCH   5  17
ENDBRANCH  10   5
TORSDOF 4
ENDMDL
MODEL 2
REMARK VINA RESULT:      -6.8      1.468      2.181
REMARK  Name = 75536905
REMARK  4 active torsions:
REMARK  status: ('A' for Active; 'I' for Inactive)
REMARK    1  A    between atoms: O_5  and  C_10
REMARK    2  A    between atoms: O_5  and  C_17
REMARK    3  A    between atoms: C_15  and  C_16
REMARK    4  A    between atoms: C_20  and  C_24
REMARK                            x       y       z     vdW  Elec       q    Type
REMARK                         _______ _______ _______ _____ _____    ______ ____
ROOT
ATOM      4  O   UNL     1      12.019   9.233  16.477  0.00  0.00    -0.375 OA
ATOM      6  O   UNL     1      13.123   6.601  20.370  0.00  0.00    -0.270 OA
ATOM      7  N   UNL     1      13.602   8.498  19.080  0.00  0.00    -0.292 N 
ATOM     10  C   UNL     1      14.139  10.175  17.232  0.00  0.00    +0.218 C 
ATOM     11  C   UNL     1      14.605   9.357  18.440  0.00  0.00    +0.155 C 
ATOM     12  C   UNL     1      12.187   8.816  18.883  0.00  0.00    +0.136 C 
ATOM     13  C   UNL     1      13.409   9.338  16.184  0.00  0.00    +0.206 C 
ATOM     14  C   UNL     1      11.699   8.326  17.527  0.00  0.00    +0.179 C 
ATOM     15  C   UNL     1      13.931   7.364  19.843  0.00  0.00    +0.247 C 
ENDROOT
BRANCH  15  16
ATOM     16  C   UNL     1      15.352   7.045  20.041  0.00  0.00    +0.037 A 
ATOM     18  C   UNL     1      16.040   6.296  19.085  0.00  0.00    +0.013 A 
ATOM     19  C   UNL     1      16.015   7.491  21.185  0.00  0.00    +0.013 A 
ATOM     20  C   UNL     1      18.050   6.439  20.418  0.00  0.00    +0.055 A 
ATOM     21  C   UNL     1      17.388   5.994  19.273  0.00  0.00    +0.013 A 
ATOM     22  C   UNL     1      17.363   7.188  21.374  0.00  0.00    +0.013 A 
BRANCH  20  24
ATOM      1  F   UNL     1      20.341   7.052  20.104  0.00  0.00    -0.166 F 
ATOM      2  F   UNL     1      19.873   4.935  20.045  0.00  0.00    -0.166 F 
ATOM      3  F   UNL     1      19.826   6.004  21.938  0.00  0.00    -0.166 F 
ATOM     24  C   UNL     1      19.491   6.115  20.619  0.00  0.00    +0.417 C 
ENDBRANCH  20  24
ENDBRANCH  15  16
BRANCH  10   5
ATOM      5  O   UNL     1      15.310  10.741  16.642  0.00  0.00    -0.468 OA
BRANCH   5  17
ATOM      8  N   UNL     1      16.719  12.586  16.756  0.00  0.00    -0.219 NA
ATOM      9  N   UNL     1      14.474  14.247  17.021  0.00  0.00    -0.256 NA
ATOM     17  C   UNL     1      15.464  12.094  16.766  0.00  0.00    +0.234 A 
ATOM     23  C   UNL     1      14.361  12.909  16.896  0.00  0.00    +0.177 A 
ATOM     25  C   UNL     1      16.831  13.923  16.880  0.00  0.00    +0.134 A 
ATOM     26  C   UNL     1      15.728  14.739  17.011  0.00  0.00    +0.130 A 
ENDBRANCH   5  17
ENDBRANCH  10   5
TORSDOF 4
ENDMDL
MODEL 3
REMARK VINA RESULT:      -6.7     12.484     15.124
REMARK  Name = 75536905
REMARK  4 active torsions:
REMARK  status: ('A' for Active; 'I' for Inactive)
REMARK    1  A    between atoms: O_5  and  C_10
REMARK    2  A    between atoms: O_5  and  C_17
REMARK    3  A    between atoms: C_15  and  C_16
REMARK    4  A    between atoms: C_20  and  C_24
REMARK                            x       y       z     vdW  Elec       q    Type
REMARK                         _______ _______ _______ _____ _____    ______ ____
ROOT
ATOM      4  O   UNL     1       9.876   8.773   1.551  0.00  0.00    -0.375 OA
ATOM      6  O   UNL     1      10.745   9.889   6.167  0.00  0.00    -0.270 OA
ATOM      7  N   UNL     1      10.958   8.303   4.455  0.00  0.00    -0.292 N 
ATOM     10  C   UNL     1      10.610   6.661   2.531  0.00  0.00    +0.218 C 
ATOM     11  C   UNL     1      10.853   6.904   4.023  0.00  0.00    +0.155 C 
ATOM     12  C   UNL     1      11.313   9.313   3.458  0.00  0.00    +0.136 C 
ATOM     13  C   UNL     1       9.449   7.480   1.970  0.00  0.00    +0.206 C 
ATOM     14  C   UNL     1      10.107   9.695   2.611  0.00  0.00    +0.179 C 
ATOM     15  C   UNL     1      10.699   8.726   5.770  0.00  0.00    +0.247 C 
ENDROOT
BRANCH  15  16
ATOM     16  C   UNL     1      10.342   7.710   6.772  0.00  0.00    +0.037 A 
ATOM     18  C   UNL     1       9.068   7.706   7.339  0.00  0.00    +0.013 A 
ATOM     19  C   UNL     1      11.279   6.750   7.156  0.00  0.00    +0.013 A 
ATOM     20  C   UNL     1       9.667   5.783   8.674  0.00  0.00    +0.055 A 
ATOM     21  C   UNL     1       8.730   6.743   8.290  0.00  0.00    +0.013 A 
ATOM     22  C   UNL     1      10.942   5.787   8.107  0.00  0.00    +0.013 A 
BRANCH  20  24
ATOM      1  F   UNL     1      10.249   4.592  10.665  0.00  0.00    -0.166 F 
ATOM      2  F   UNL     1       9.120   3.506   9.165  0.00  0.00    -0.166 F 
ATOM      3  F   UNL     1       8.147   5.049  10.349  0.00  0.00    -0.166 F 
ATOM     24  C   UNL     1       9.306   4.754   9.690  0.00  0.00    +0.417 C 
ENDBRANCH  20  24
ENDBRANCH  15  16
BRANCH  10   5
ATOM      5  O   UNL     1      10.314   5.272   2.382  0.00  0.00    -0.468 OA
BRANCH   5  17
ATOM      8  N   UNL     1      10.828   4.581   0.223  0.00  0.00    -0.219 NA
ATOM      9  N   UNL     1      13.016   3.147   1.234  0.00  0.00    -0.256 NA
ATOM     17  C   UNL     1      11.123   4.562   1.538  0.00  0.00    +0.234 A 
ATOM     23  C   UNL     1      12.197   3.858   2.035  0.00  0.00    +0.177 A 
ATOM     25  C   UNL     1      11.646   3.871  -0.578  0.00  0.00    +0.134 A 
ATOM     26  C   UNL     1      12.721   3.165  -0.081  0.00  0.00    +0.130 A 
ENDBRANCH   5  17
ENDBRANCH  10   5
TORSDOF 4
ENDMDL
MODEL 4
REMARK VINA RESULT:      -6.5     27.151     29.161
REMARK  Name = 75536905
REMARK  4 active torsions:
REMARK  status: ('A' for Active; 'I' for Inactive)
REMARK    1  A    between atoms: O_5  and  C_10
REMARK    2  A    between atoms: O_5  and  C_17
REMARK    3  A    between atoms: C_15  and  C_16
REMARK    4  A    between atoms: C_20  and  C_24
REMARK                            x       y       z     vdW  Elec       q    Type
REMARK                         _______ _______ _______ _____ _____    ______ ____
ROOT
ATOM      4  O   UNL     1      -8.718 -11.008  19.075  0.00  0.00    -0.375 OA
ATOM      6  O   UNL     1      -3.972 -11.887  18.998  0.00  0.00    -0.270 OA
ATOM      7  N   UNL     1      -5.745 -10.596  18.172  0.00  0.00    -0.292 N 
ATOM     10  C   UNL     1      -7.919  -9.716  17.165  0.00  0.00    +0.218 C 
ATOM     11  C   UNL     1      -6.418  -9.982  17.022  0.00  0.00    +0.155 C 
ATOM     12  C   UNL     1      -6.367 -10.468  19.491  0.00  0.00    +0.136 C 
ATOM     13  C   UNL     1      -8.703 -10.933  17.652  0.00  0.00    +0.206 C 
ATOM     14  C   UNL     1      -7.504 -11.466  19.660  0.00  0.00    +0.179 C 
ATOM     15  C   UNL     1      -4.552 -11.331  18.066  0.00  0.00    +0.247 C 
ENDROOT
BRANCH  15  16
ATOM     16  C   UNL     1      -3.927 -11.459  16.742  0.00  0.00    +0.037 A 
ATOM     18  C   UNL     1      -4.323 -12.482  15.878  0.00  0.00    +0.013 A 
ATOM     19  C   UNL     1      -2.938 -10.558  16.346  0.00  0.00    +0.013 A 
ATOM     20  C   UNL     1      -2.740 -11.703  14.228  0.00  0.00    +0.055 A 
ATOM     21  C   UNL     1      -3.730 -12.604  14.622  0.00  0.00    +0.013 A 
ATOM     22  C   UNL     1      -2.344 -10.680  15.090  0.00  0.00    +0.013 A 
BRANCH  20  24
ATOM      1  F   UNL     1      -1.551 -10.674  12.426  0.00  0.00    -0.166 F 
ATOM      2  F   UNL     1      -2.974 -12.225  11.905  0.00  0.00    -0.166 F 
ATOM      3  F   UNL     1      -1.097 -12.753  12.868  0.00  0.00    -0.166 F 
ATOM     24  C   UNL     1      -2.106 -11.834  12.885  0.00  0.00    +0.417 C 
ENDBRANCH  20  24
ENDBRANCH  15  16
BRANCH  10   5
ATOM      5  O   UNL     1      -8.397  -9.343  15.872  0.00  0.00    -0.468 OA
BRANCH   5  17
ATOM      8  N   UNL     1      -9.768  -7.724  16.821  0.00  0.00    -0.219 NA
ATOM      9  N   UNL     1     -11.610  -8.106  14.741  0.00  0.00    -0.256 NA
ATOM     17  C   UNL     1      -9.554  -8.616  15.834  0.00  0.00    +0.234 A 
ATOM     23  C   UNL     1     -10.459  -8.804  14.812  0.00  0.00    +0.177 A 
ATOM     25  C   UNL     1     -10.918  -7.026  16.750  0.00  0.00    +0.134 A 
ATOM     26  C   UNL     1     -11.824  -7.214  15.729  0.00  0.00    +0.130 A 
ENDBRANCH   5  17
ENDBRANCH  10   5
TORSDOF 4
ENDMDL
MODEL 5
REMARK VINA RESULT:      -6.4     27.313     29.470
REMARK  Name = 75536905
REMARK  4 active torsions:
REMARK  status: ('A' for Active; 'I' for Inactive)
REMARK    1  A    between atoms: O_5  and  C_10
REMARK    2  A    between atoms: O_5  and  C_17
REMARK    3  A    between atoms: C_15  and  C_16
REMARK    4  A    between atoms: C_20  and  C_24
REMARK                            x       y       z     vdW  Elec       q    Type
REMARK                         _______ _______ _______ _____ _____    ______ ____
ROOT
ATOM      4  O   UNL     1      -3.610 -12.088  15.788  0.00  0.00    -0.375 OA
ATOM      6  O   UNL     1      -1.310 -10.547  11.833  0.00  0.00    -0.270 OA
ATOM      7  N   UNL     1      -3.234 -10.414  13.165  0.00  0.00    -0.292 N 
ATOM     10  C   UNL     1      -5.324 -10.857  14.562  0.00  0.00    +0.218 C 
ATOM     11  C   UNL     1      -4.698 -10.376  13.249  0.00  0.00    +0.155 C 
ATOM     12  C   UNL     1      -2.465 -10.419  14.411  0.00  0.00    +0.136 C 
ATOM     13  C   UNL     1      -4.800 -12.218  15.015  0.00  0.00    +0.206 C 
ATOM     14  C   UNL     1      -2.437 -11.808  15.031  0.00  0.00    +0.179 C 
ATOM     15  C   UNL     1      -2.533 -10.482  11.949  0.00  0.00    +0.247 C 
ENDROOT
BRANCH  15  16
ATOM     16  C   UNL     1      -3.305 -10.477  10.697  0.00  0.00    +0.037 A 
ATOM     18  C   UNL     1      -3.764 -11.678  10.155  0.00  0.00    +0.013 A 
ATOM     19  C   UNL     1      -3.579  -9.271  10.051  0.00  0.00    +0.013 A 
ATOM     20  C   UNL     1      -4.769 -10.466   8.322  0.00  0.00    +0.055 A 
ATOM     21  C   UNL     1      -4.496 -11.673   8.968  0.00  0.00    +0.013 A 
ATOM     22  C   UNL     1      -4.310  -9.266   8.863  0.00  0.00    +0.013 A 
BRANCH  20  24
ATOM      1  F   UNL     1      -6.661 -11.255   7.090  0.00  0.00    -0.166 F 
ATOM      2  F   UNL     1      -4.839 -10.895   5.969  0.00  0.00    -0.166 F 
ATOM      3  F   UNL     1      -6.002  -9.217   6.718  0.00  0.00    -0.166 F 
ATOM     24  C   UNL     1      -5.551 -10.461   7.052  0.00  0.00    +0.417 C 
ENDBRANCH  20  24
ENDBRANCH  15  16
BRANCH  10   5
ATOM      5  O   UNL     1      -6.731 -10.952  14.337  0.00  0.00    -0.468 OA
BRANCH   5  17
ATOM      8  N   UNL     1      -7.126  -9.926  16.385  0.00  0.00    -0.219 NA
ATOM      9  N   UNL     1      -9.517  -8.874  15.364  0.00  0.00    -0.256 NA
ATOM     17  C   UNL     1      -7.529 -10.167  15.122  0.00  0.00    +0.234 A 
ATOM     23  C   UNL     1      -8.704  -9.651  14.620  0.00  0.00    +0.177 A 
ATOM     25  C   UNL     1      -7.938  -9.149  17.128  0.00  0.00    +0.134 A 
ATOM     26  C   UNL     1      -9.113  -8.632  16.627  0.00  0.00    +0.130 A 
ENDBRANCH   5  17
ENDBRANCH  10   5
TORSDOF 4
ENDMDL
MODEL 6
REMARK VINA RESULT:      -6.3     28.020     30.065
REMARK  Name = 75536905
REMARK  4 active torsions:
REMARK  status: ('A' for Active; 'I' for Inactive)
REMARK    1  A    between atoms: O_5  and  C_10
REMARK    2  A    between atoms: O_5  and  C_17
REMARK    3  A    between atoms: C_15  and  C_16
REMARK    4  A    between atoms: C_20  and  C_24
REMARK                            x       y       z     vdW  Elec       q    Type
REMARK                         _______ _______ _______ _____ _____    ______ ____
ROOT
ATOM      4  O   UNL     1     -11.609 -11.314  18.140  0.00  0.00    -0.375 OA
ATOM      6  O   UNL     1      -7.295 -12.191  20.120  0.00  0.00    -0.270 OA
ATOM      7  N   UNL     1      -8.573 -10.805  18.729  0.00  0.00    -0.292 N 
ATOM     10  C   UNL     1     -10.107  -9.803  16.951  0.00  0.00    +0.218 C 
ATOM     11  C   UNL     1      -8.689 -10.054  17.473  0.00  0.00    +0.155 C 
ATOM     12  C   UNL     1      -9.727 -10.835  19.630  0.00  0.00    +0.136 C 
ATOM     13  C   UNL     1     -10.961 -11.068  16.896  0.00  0.00    +0.206 C 
ATOM     14  C   UNL     1     -10.765 -11.844  19.157  0.00  0.00    +0.179 C 
ATOM     15  C   UNL     1      -7.423 -11.525  19.094  0.00  0.00    +0.247 C 
ENDROOT
BRANCH  15  16
ATOM     16  C   UNL     1      -6.265 -11.494  18.189  0.00  0.00    +0.037 A 
ATOM     18  C   UNL     1      -5.402 -10.397  18.197  0.00  0.00    +0.013 A 
ATOM     19  C   UNL     1      -6.027 -12.561  17.322  0.00  0.00    +0.013 A 
ATOM     20  C   UNL     1      -4.067 -11.435  16.471  0.00  0.00    +0.055 A 
ATOM     21  C   UNL     1      -4.303 -10.368  17.338  0.00  0.00    +0.013 A 
ATOM     22  C   UNL     1      -4.929 -12.531  16.463  0.00  0.00    +0.013 A 
BRANCH  20  24
ATOM      1  F   UNL     1      -2.654 -12.592  14.927  0.00  0.00    -0.166 F 
ATOM      2  F   UNL     1      -1.718 -11.087  16.177  0.00  0.00    -0.166 F 
ATOM      3  F   UNL     1      -3.032 -10.485  14.552  0.00  0.00    -0.166 F 
ATOM     24  C   UNL     1      -2.892 -11.402  15.553  0.00  0.00    +0.417 C 
ENDBRANCH  20  24
ENDBRANCH  15  16
BRANCH  10   5
ATOM      5  O   UNL     1      -9.972  -9.275  15.631  0.00  0.00    -0.468 OA
BRANCH   5  17
ATOM      8  N   UNL     1     -11.555  -8.148  14.356  0.00  0.00    -0.219 NA
ATOM      9  N   UNL     1     -11.078  -5.832  15.864  0.00  0.00    -0.256 NA
ATOM     17  C   UNL     1     -10.657  -8.123  15.360  0.00  0.00    +0.234 A 
ATOM     23  C   UNL     1     -10.422  -6.986  16.102  0.00  0.00    +0.177 A 
ATOM     25  C   UNL     1     -12.210  -6.994  14.119  0.00  0.00    +0.134 A 
ATOM     26  C   UNL     1     -11.976  -5.856  14.859  0.00  0.00    +0.130 A 
ENDBRANCH   5  17
ENDBRANCH  10   5
TORSDOF 4
ENDMDL
MODEL 7
REMARK VINA RESULT:      -6.3     11.498     13.356
REMARK  Name = 75536905
REMARK  4 active torsions:
REMARK  status: ('A' for Active; 'I' for Inactive)
REMARK    1  A    between atoms: O_5  and  C_10
REMARK    2  A    between atoms: O_5  and  C_17
REMARK    3  A    between atoms: C_15  and  C_16
REMARK    4  A    between atoms: C_20  and  C_24
REMARK                            x       y       z     vdW  Elec       q    Type
REMARK                         _______ _______ _______ _____ _____    ______ ____
ROOT
ATOM      4  O   UNL     1      13.387   8.680   2.678  0.00  0.00    -0.375 OA
ATOM      6  O   UNL     1       8.863   7.887   4.162  0.00  0.00    -0.270 OA
ATOM      7  N   UNL     1      11.030   8.563   4.741  0.00  0.00    -0.292 N 
ATOM     10  C   UNL     1      13.546   8.794   5.110  0.00  0.00    +0.218 C 
ATOM     11  C   UNL     1      12.156   8.492   5.679  0.00  0.00    +0.155 C 
ATOM     12  C   UNL     1      11.191   9.357   3.521  0.00  0.00    +0.136 C 
ATOM     13  C   UNL     1      13.861   8.006   3.840  0.00  0.00    +0.206 C 
ATOM     14  C   UNL     1      11.981   8.591   2.469  0.00  0.00    +0.179 C 
ATOM     15  C   UNL     1       9.819   7.880   4.936  0.00  0.00    +0.247 C 
ENDROOT
BRANCH  15  16
ATOM     16  C   UNL     1       9.657   7.083   6.162  0.00  0.00    +0.037 A 
ATOM     18  C   UNL     1       9.138   7.672   7.315  0.00  0.00    +0.013 A 
ATOM     19  C   UNL     1      10.023   5.736   6.172  0.00  0.00    +0.013 A 
ATOM     20  C   UNL     1       9.352   5.570   8.486  0.00  0.00    +0.055 A 
ATOM     21  C   UNL     1       8.986   6.916   8.477  0.00  0.00    +0.013 A 
ATOM     22  C   UNL     1       9.871   4.980   7.334  0.00  0.00    +0.013 A 
BRANCH  20  24
ATOM      1  F   UNL     1       9.046   3.425   9.498  0.00  0.00    -0.166 F 
ATOM      2  F   UNL     1       8.099   5.115  10.473  0.00  0.00    -0.166 F 
ATOM      3  F   UNL     1      10.257   4.875  10.573  0.00  0.00    -0.166 F 
ATOM     24  C   UNL     1       9.190   4.763   9.729  0.00  0.00    +0.417 C 
ENDBRANCH  20  24
ENDBRANCH  15  16
BRANCH  10   5
ATOM      5  O   UNL     1      14.490   8.443   6.122  0.00  0.00    -0.468 OA
BRANCH   5  17
ATOM      8  N   UNL     1      16.799   8.624   5.915  0.00  0.00    -0.219 NA
ATOM      9  N   UNL     1      16.622  11.328   6.639  0.00  0.00    -0.256 NA
ATOM     17  C   UNL     1      15.619   9.211   6.198  0.00  0.00    +0.234 A 
ATOM     23  C   UNL     1      15.531  10.539   6.553  0.00  0.00    +0.177 A 
ATOM     25  C   UNL     1      17.888   9.412   6.001  0.00  0.00    +0.134 A 
ATOM     26  C   UNL     1      17.802  10.740   6.356  0.00  0.00    +0.130 A 
ENDBRANCH   5  17
ENDBRANCH  10   5
TORSDOF 4
ENDMDL
MODEL 8
REMARK VINA RESULT:      -6.2     12.074     14.334
REMARK  Name = 75536905
REMARK  4 active torsions:
REMARK  status: ('A' for Active; 'I' for Inactive)
REMARK    1  A    between atoms: O_5  and  C_10
REMARK    2  A    between atoms: O_5  and  C_17
REMARK    3  A    between atoms: C_15  and  C_16
REMARK    4  A    between atoms: C_20  and  C_24
REMARK                            x       y       z     vdW  Elec       q    Type
REMARK                         _______ _______ _______ _____ _____    ______ ____
ROOT
ATOM      4  O   UNL     1      11.694   7.375   0.925  0.00  0.00    -0.375 OA
ATOM      6  O   UNL     1       7.910   7.840   3.886  0.00  0.00    -0.270 OA
ATOM      7  N   UNL     1      10.237   7.960   3.638  0.00  0.00    -0.292 N 
ATOM     10  C   UNL     1      12.707   7.551   3.139  0.00  0.00    +0.218 C 
ATOM     11  C   UNL     1      11.571   7.642   4.161  0.00  0.00    +0.155 C 
ATOM     12  C   UNL     1      10.141   8.631   2.341  0.00  0.00    +0.136 C 
ATOM     13  C   UNL     1      12.375   6.654   1.948  0.00  0.00    +0.206 C 
ATOM     14  C   UNL     1      10.322   7.642   1.198  0.00  0.00    +0.179 C 
ATOM     15  C   UNL     1       9.046   7.620   4.303  0.00  0.00    +0.247 C 
ENDROOT
BRANCH  15  16
ATOM     16  C   UNL     1       9.143   6.946   5.606  0.00  0.00    +0.037 A 
ATOM     18  C   UNL     1       9.471   5.592   5.670  0.00  0.00    +0.013 A 
ATOM     19  C   UNL     1       8.907   7.662   6.781  0.00  0.00    +0.013 A 
ATOM     20  C   UNL     1       9.325   5.668   8.080  0.00  0.00    +0.055 A 
ATOM     21  C   UNL     1       9.562   4.953   6.906  0.00  0.00    +0.013 A 
ATOM     22  C   UNL     1       8.997   7.022   8.017  0.00  0.00    +0.013 A 
BRANCH  20  24
ATOM      1  F   UNL     1       9.446   3.623   9.313  0.00  0.00    -0.166 F 
ATOM      2  F   UNL     1       8.383   5.269  10.243  0.00  0.00    -0.166 F 
ATOM      3  F   UNL     1      10.551   5.326  10.088  0.00  0.00    -0.166 F 
ATOM     24  C   UNL     1       9.422   4.985   9.401  0.00  0.00    +0.417 C 
ENDBRANCH  20  24
ENDBRANCH  15  16
BRANCH  10   5
ATOM      5  O   UNL     1      13.837   7.013   3.825  0.00  0.00    -0.468 OA
BRANCH   5  17
ATOM      8  N   UNL     1      15.054   8.982   3.610  0.00  0.00    -0.219 NA
ATOM      9  N   UNL     1      16.089   8.590   6.187  0.00  0.00    -0.256 NA
ATOM     17  C   UNL     1      14.714   7.915   4.361  0.00  0.00    +0.234 A 
ATOM     23  C   UNL     1      15.222   7.722   5.627  0.00  0.00    +0.177 A 
ATOM     25  C   UNL     1      15.919   9.849   4.171  0.00  0.00    +0.134 A 
ATOM     26  C   UNL     1      16.428   9.657   5.437  0.00  0.00    +0.130 A 
ENDBRANCH   5  17
ENDBRANCH  10   5
TORSDOF 4
ENDMDL
MODEL 9
REMARK VINA RESULT:      -6.2     27.066     29.718
REMARK  Name = 75536905
REMARK  4 active torsions:
REMARK  status: ('A' for Active; 'I' for Inactive)
REMARK    1  A    between atoms: O_5  and  C_10
REMARK    2  A    between atoms: O_5  and  C_17
REMARK    3  A    between atoms: C_15  and  C_16
REMARK    4  A    between atoms: C_20  and  C_24
REMARK                            x       y       z     vdW  Elec       q    Type
REMARK                         _______ _______ _______ _____ _____    ______ ____
ROOT
ATOM      4  O   UNL     1     -17.855   8.119  23.878  0.00  0.00    -0.375 OA
ATOM      6  O   UNL     1     -15.180   5.126  21.195  0.00  0.00    -0.270 OA
ATOM      7  N   UNL     1     -15.209   6.939  22.680  0.00  0.00    -0.292 N 
ATOM     10  C   UNL     1     -15.635   9.132  23.915  0.00  0.00    +0.218 C 
ATOM     11  C   UNL     1     -14.721   8.277  23.032  0.00  0.00    +0.155 C 
ATOM     12  C   UNL     1     -16.227   6.323  23.533  0.00  0.00    +0.136 C 
ATOM     13  C   UNL     1     -17.071   9.208  23.400  0.00  0.00    +0.206 C 
ATOM     14  C   UNL     1     -17.610   6.878  23.224  0.00  0.00    +0.179 C 
ATOM     15  C   UNL     1     -14.776   6.234  21.544  0.00  0.00    +0.247 C 
ENDROOT
BRANCH  15  16
ATOM     16  C   UNL     1     -13.754   6.853  20.687  0.00  0.00    +0.037 A 
ATOM     18  C   UNL     1     -12.401   6.712  21.000  0.00  0.00    +0.013 A 
ATOM     19  C   UNL     1     -14.136   7.582  19.560  0.00  0.00    +0.013 A 
ATOM     20  C   UNL     1     -11.815   8.029  19.061  0.00  0.00    +0.055 A 
ATOM     21  C   UNL     1     -11.432   7.300  20.187  0.00  0.00    +0.013 A 
ATOM     22  C   UNL     1     -13.166   8.170  18.747  0.00  0.00    +0.013 A 
BRANCH  20  24
ATOM      1  F   UNL     1     -10.180   7.782  17.333  0.00  0.00    -0.166 F 
ATOM      2  F   UNL     1      -9.752   9.228  18.890  0.00  0.00    -0.166 F 
ATOM      3  F   UNL     1     -11.284   9.653  17.407  0.00  0.00    -0.166 F 
ATOM     24  C   UNL     1     -10.778   8.657  18.192  0.00  0.00    +0.417 C 
ENDBRANCH  20  24
ENDBRANCH  15  16
BRANCH  10   5
ATOM      5  O   UNL     1     -15.077  10.447  23.935  0.00  0.00    -0.468 OA
BRANCH   5  17
ATOM      8  N   UNL     1     -13.904  10.242  25.931  0.00  0.00    -0.219 NA
ATOM      9  N   UNL     1     -11.633  11.299  24.670  0.00  0.00    -0.256 NA
ATOM     17  C   UNL     1     -13.913  10.607  24.634  0.00  0.00    +0.234 A 
ATOM     23  C   UNL     1     -12.798  11.126  24.014  0.00  0.00    +0.177 A 
ATOM     25  C   UNL     1     -12.740  10.415  26.587  0.00  0.00    +0.134 A 
ATOM     26  C   UNL     1     -11.624  10.935  25.968  0.00  0.00    +0.130 A 
ENDBRANCH   5  17
ENDBRANCH  10   5
TORSDOF 4
ENDMDL
MODEL 10
REMARK VINA RESULT:      -6.1      5.795      9.002
REMARK  Name = 75536905
REMARK  4 active torsions:
REMARK  status: ('A' for Active; 'I' for Inactive)
REMARK    1  A    between atoms: O_5  and  C_10
REMARK    2  A    between atoms: O_5  and  C_17
REMARK    3  A    between atoms: C_15  and  C_16
REMARK    4  A    between atoms: C_20  and  C_24
REMARK                            x       y       z     vdW  Elec       q    Type
REMARK                         _______ _______ _______ _____ _____    ______ ____
ROOT
ATOM      4  O   UNL     1      21.069   9.401  21.486  0.00  0.00    -0.375 OA
ATOM      6  O   UNL     1      25.239   7.253  20.345  0.00  0.00    -0.270 OA
ATOM      7  N   UNL     1      22.898   7.146  20.304  0.00  0.00    -0.292 N 
ATOM     10  C   UNL     1      20.401   7.145  20.836  0.00  0.00    +0.218 C 
ATOM     11  C   UNL     1      21.676   6.361  20.512  0.00  0.00    +0.155 C 
ATOM     12  C   UNL     1      22.764   8.557  19.934  0.00  0.00    +0.136 C 
ATOM     13  C   UNL     1      20.586   8.152  21.970  0.00  0.00    +0.206 C 
ATOM     14  C   UNL     1      22.453   9.415  21.152  0.00  0.00    +0.179 C 
ATOM     15  C   UNL     1      24.190   6.623  20.478  0.00  0.00    +0.247 C 
ENDROOT
BRANCH  15  16
ATOM     16  C   UNL     1      24.325   5.207  20.849  0.00  0.00    +0.037 A 
ATOM     18  C   UNL     1      24.291   4.830  22.193  0.00  0.00    +0.013 A 
ATOM     19  C   UNL     1      24.487   4.238  19.858  0.00  0.00    +0.013 A 
ATOM     20  C   UNL     1      24.582   2.519  21.553  0.00  0.00    +0.055 A 
ATOM     21  C   UNL     1      24.419   3.487  22.544  0.00  0.00    +0.013 A 
ATOM     22  C   UNL     1      24.616   2.894  20.210  0.00  0.00    +0.013 A 
BRANCH  20  24
ATOM      1  F   UNL     1      24.103   0.763  23.105  0.00  0.00    -0.166 F 
ATOM      2  F   UNL     1      26.015   0.679  22.086  0.00  0.00    -0.166 F 
ATOM      3  F   UNL     1      24.185   0.241  20.997  0.00  0.00    -0.166 F 
ATOM     24  C   UNL     1      24.719   1.082  21.929  0.00  0.00    +0.417 C 
ENDBRANCH  20  24
ENDBRANCH  15  16
BRANCH  10   5
ATOM      5  O   UNL     1      19.415   6.187  21.220  0.00  0.00    -0.468 OA
BRANCH   5  17
ATOM      8  N   UNL     1      17.245   7.022  21.239  0.00  0.00    -0.219 NA
ATOM      9  N   UNL     1      16.765   5.747  18.787  0.00  0.00    -0.256 NA
ATOM     17  C   UNL     1      18.192   6.293  20.616  0.00  0.00    +0.234 A 
ATOM     23  C   UNL     1      17.957   5.666  19.412  0.00  0.00    +0.177 A 
ATOM     25  C   UNL     1      16.054   7.104  20.614  0.00  0.00    +0.134 A 
ATOM     26  C   UNL     1      15.818   6.477  19.410  0.00  0.00    +0.130 A 
ENDBRANCH   5  17
ENDBRANCH  10   5
TORSDOF 4
ENDMDL
