MODEL 1
REMARK VINA RESULT:      -6.6      0.000      0.000
REMARK  Name = 38030342
REMARK  11 active torsions:
REMARK  status: ('A' for Active; 'I' for Inactive)
REMARK    1  A    between atoms: N_2  and  C_12
REMARK    2  A    between atoms: N_2  and  C_18
REMARK    3  A    between atoms: C_5  and  C_9
REMARK    4  A    between atoms: C_6  and  C_12
REMARK    5  A    between atoms: C_8  and  C_13
REMARK    6  A    between atoms: C_9  and  C_14
REMARK    7  A    between atoms: C_9  and  C_15
REMARK    8  A    between atoms: C_10  and  C_16
REMARK    9  A    between atoms: C_13  and  C_17
REMARK   10  A    between atoms: C_18  and  C_20
REMARK   11  A    between atoms: C_19  and  C_21
REMARK                            x       y       z     vdW  Elec       q    Type
REMARK                         _______ _______ _______ _____ _____    ______ ____
ROOT
ATOM      5  C   UNL     1      14.144   9.969  21.076  0.00  0.00    +0.000 C 
ATOM      6  C   UNL     1      12.731  10.331  20.555  0.00  0.00    +0.029 C 
ATOM      7  C   UNL     1      15.044   9.516  19.916  0.00  0.00    +0.012 C 
ATOM      8  C   UNL     1      14.469   8.295  19.174  0.00  0.00    +0.024 C 
ATOM     10  C   UNL     1      12.997   8.468  18.861  0.00  0.00    -0.073 C 
ATOM     11  C   UNL     1      12.239   9.392  19.478  0.00  0.00    -0.023 C 
ATOM     16  C   UNL     1      12.425   7.584  17.788  0.00  0.00    +0.039 C 
ENDROOT
BRANCH   5   9
ATOM      9  C   UNL     1      14.797  11.143  21.812  0.00  0.00    -0.013 C 
ATOM     14  C   UNL     1      16.241  10.808  22.174  0.00  0.00    +0.007 C 
ATOM     15  C   UNL     1      14.734  12.406  20.960  0.00  0.00    +0.007 C 
ENDBRANCH   5   9
BRANCH   6  12
ATOM     12  C   UNL     1      11.713  10.374  21.699  0.00  0.00    +0.089 C 
BRANCH  12   2
ATOM      2  N   UNL     1      11.907   9.250  22.600  0.00  0.00    -0.305 NA
ATOM     28  H   UNL     1      12.737   8.723  22.331  0.00  0.00    +0.123 HD
BRANCH   2  18
ATOM     18  C   UNL     1      10.751   8.361  22.588  0.00  0.00    +0.170 C 
BRANCH  18  20
ATOM     20  C   UNL     1      11.069   7.098  21.916  0.00  0.00    -0.090 C 
ATOM     24  C   UNL     1      11.337   6.066  21.364  0.00  0.00    +0.005 C 
ENDBRANCH  18  20
ENDBRANCH   2  18
ENDBRANCH  12   2
ENDBRANCH   6  12
BRANCH   8  13
ATOM     13  C   UNL     1      14.714   7.005  19.964  0.00  0.00    +0.105 C 
BRANCH  13  17
ATOM      1  O   UNL     1      17.016   6.641  20.688  0.00  0.00    -0.420 OA
ATOM      3  N   UNL     1      16.551   5.812  18.664  0.00  0.00    -0.112 NA
ATOM      4  N   UNL     1      17.877   5.537  18.943  0.00  0.00    -0.107 NA
ATOM     17  C   UNL     1      16.089   6.457  19.709  0.00  0.00    +0.218 A 
ATOM     19  C   UNL     1      18.104   6.039  20.133  0.00  0.00    +0.248 A 
BRANCH  19  21
ATOM     21  C   UNL     1      19.300   6.051  20.927  0.00  0.00    +0.038 A 
ATOM     22  C   UNL     1      19.357   6.820  22.089  0.00  0.00    +0.013 A 
ATOM     23  C   UNL     1      20.403   5.293  20.536  0.00  0.00    +0.013 A 
ATOM     25  C   UNL     1      20.519   6.832  22.860  0.00  0.00    +0.001 A 
ATOM     26  C   UNL     1      21.566   5.305  21.307  0.00  0.00    +0.001 A 
ATOM     27  C   UNL     1      21.623   6.074  22.470  0.00  0.00    +0.000 A 
ENDBRANCH  19  21
ENDBRANCH  13  17
ENDBRANCH   8  13
TORSDOF 8
ENDMDL
MODEL 2
REMARK VINA RESULT:      -6.2      2.003      3.259
REMARK  Name = 38030342
REMARK  11 active torsions:
REMARK  status: ('A' for Active; 'I' for Inactive)
REMARK    1  A    between atoms: N_2  and  C_12
REMARK    2  A    between atoms: N_2  and  C_18
REMARK    3  A    between atoms: C_5  and  C_9
REMARK    4  A    between atoms: C_6  and  C_12
REMARK    5  A    between atoms: C_8  and  C_13
REMARK    6  A    between atoms: C_9  and  C_14
REMARK    7  A    between atoms: C_9  and  C_15
REMARK    8  A    between atoms: C_10  and  C_16
REMARK    9  A    between atoms: C_13  and  C_17
REMARK   10  A    between atoms: C_18  and  C_20
REMARK   11  A    between atoms: C_19  and  C_21
REMARK                            x       y       z     vdW  Elec       q    Type
REMARK                         _______ _______ _______ _____ _____    ______ ____
ROOT
ATOM      5  C   UNL     1      12.788  10.805  21.784  0.00  0.00    +0.000 C 
ATOM      6  C   UNL     1      11.334  10.823  22.318  0.00  0.00    +0.029 C 
ATOM      7  C   UNL     1      12.920   9.806  20.624  0.00  0.00    +0.012 C 
ATOM      8  C   UNL     1      12.536   8.374  21.042  0.00  0.00    +0.024 C 
ATOM     10  C   UNL     1      11.233   8.345  21.815  0.00  0.00    -0.073 C 
ATOM     11  C   UNL     1      10.704   9.451  22.367  0.00  0.00    -0.023 C 
ATOM     16  C   UNL     1      10.528   7.020  21.902  0.00  0.00    +0.039 C 
ENDROOT
BRANCH   5   9
ATOM      9  C   UNL     1      13.243  12.194  21.326  0.00  0.00    -0.013 C 
ATOM     14  C   UNL     1      14.501  12.617  22.078  0.00  0.00    +0.007 C 
ATOM     15  C   UNL     1      13.485  12.206  19.820  0.00  0.00    +0.007 C 
ENDBRANCH   5   9
BRANCH   6  12
ATOM     12  C   UNL     1      11.263  11.468  23.706  0.00  0.00    +0.089 C 
BRANCH  12   2
ATOM      2  N   UNL     1       9.986  12.134  23.897  0.00  0.00    -0.305 NA
ATOM     28  H   UNL     1       9.333  11.858  23.165  0.00  0.00    +0.123 HD
BRANCH   2  18
ATOM     18  C   UNL     1      10.140  13.584  23.878  0.00  0.00    +0.170 C 
BRANCH  18  20
ATOM     20  C   UNL     1      10.224  14.083  22.502  0.00  0.00    -0.090 C 
ATOM     24  C   UNL     1      10.294  14.485  21.373  0.00  0.00    +0.005 C 
ENDBRANCH  18  20
ENDBRANCH   2  18
ENDBRANCH  12   2
ENDBRANCH   6  12
BRANCH   8  13
ATOM     13  C   UNL     1      13.663   7.710  21.840  0.00  0.00    +0.105 C 
BRANCH  13  17
ATOM      1  O   UNL     1      16.002   7.176  21.393  0.00  0.00    -0.420 OA
ATOM      3  N   UNL     1      14.603   6.623  19.737  0.00  0.00    -0.112 NA
ATOM      4  N   UNL     1      15.883   6.268  19.351  0.00  0.00    -0.107 NA
ATOM     17  C   UNL     1      14.721   7.149  20.933  0.00  0.00    +0.218 A 
ATOM     19  C   UNL     1      16.665   6.608  20.348  0.00  0.00    +0.248 A 
BRANCH  19  21
ATOM     21  C   UNL     1      18.086   6.477  20.503  0.00  0.00    +0.038 A 
ATOM     22  C   UNL     1      18.807   7.466  21.171  0.00  0.00    +0.013 A 
ATOM     23  C   UNL     1      18.743   5.361  19.989  0.00  0.00    +0.013 A 
ATOM     25  C   UNL     1      20.188   7.340  21.323  0.00  0.00    +0.001 A 
ATOM     26  C   UNL     1      20.124   5.234  20.140  0.00  0.00    +0.001 A 
ATOM     27  C   UNL     1      20.847   6.223  20.808  0.00  0.00    +0.000 A 
ENDBRANCH  19  21
ENDBRANCH  13  17
ENDBRANCH   8  13
TORSDOF 8
ENDMDL
MODEL 3
REMARK VINA RESULT:      -6.0     27.276     29.050
REMARK  Name = 38030342
REMARK  11 active torsions:
REMARK  status: ('A' for Active; 'I' for Inactive)
REMARK    1  A    between atoms: N_2  and  C_12
REMARK    2  A    between atoms: N_2  and  C_18
REMARK    3  A    between atoms: C_5  and  C_9
REMARK    4  A    between atoms: C_6  and  C_12
REMARK    5  A    between atoms: C_8  and  C_13
REMARK    6  A    between atoms: C_9  and  C_14
REMARK    7  A    between atoms: C_9  and  C_15
REMARK    8  A    between atoms: C_10  and  C_16
REMARK    9  A    between atoms: C_13  and  C_17
REMARK   10  A    between atoms: C_18  and  C_20
REMARK   11  A    between atoms: C_19  and  C_21
REMARK                            x       y       z     vdW  Elec       q    Type
REMARK                         _______ _______ _______ _____ _____    ______ ____
ROOT
ATOM      5  C   UNL     1      -6.423 -11.106  16.298  0.00  0.00    +0.000 C 
ATOM      6  C   UNL     1      -6.916 -11.174  17.765  0.00  0.00    +0.029 C 
ATOM      7  C   UNL     1      -5.381 -12.204  16.031  0.00  0.00    +0.012 C 
ATOM      8  C   UNL     1      -4.160 -12.087  16.963  0.00  0.00    +0.024 C 
ATOM     10  C   UNL     1      -4.571 -11.881  18.406  0.00  0.00    -0.073 C 
ATOM     11  C   UNL     1      -5.811 -11.486  18.747  0.00  0.00    -0.023 C 
ATOM     16  C   UNL     1      -3.536 -12.183  19.454  0.00  0.00    +0.039 C 
ENDROOT
BRANCH   5   9
ATOM      9  C   UNL     1      -7.580 -11.236  15.302  0.00  0.00    -0.013 C 
ATOM     14  C   UNL     1      -7.790  -9.922  14.556  0.00  0.00    +0.007 C 
ATOM     15  C   UNL     1      -7.315 -12.376  14.325  0.00  0.00    +0.007 C 
ENDBRANCH   5   9
BRANCH   6  12
ATOM     12  C   UNL     1      -7.612  -9.873  18.176  0.00  0.00    +0.089 C 
BRANCH  12   2
ATOM      2  N   UNL     1      -8.836 -10.154  18.905  0.00  0.00    -0.305 NA
ATOM     28  H   UNL     1      -8.807 -11.098  19.289  0.00  0.00    +0.123 HD
BRANCH   2  18
ATOM     18  C   UNL     1     -10.005 -10.026  18.042  0.00  0.00    +0.170 C 
BRANCH  18  20
ATOM     20  C   UNL     1     -10.048  -8.703  17.412  0.00  0.00    -0.090 C 
ATOM     24  C   UNL     1     -10.084  -7.623  16.890  0.00  0.00    +0.005 C 
ENDBRANCH  18  20
ENDBRANCH   2  18
ENDBRANCH  12   2
ENDBRANCH   6  12
BRANCH   8  13
ATOM     13  C   UNL     1      -3.215 -10.974  16.496  0.00  0.00    +0.105 C 
BRANCH  13  17
ATOM      1  O   UNL     1      -3.704 -10.332  14.194  0.00  0.00    -0.420 OA
ATOM      3  N   UNL     1      -2.022 -11.793  14.400  0.00  0.00    -0.112 NA
ATOM      4  N   UNL     1      -2.188 -11.521  13.055  0.00  0.00    -0.107 NA
ATOM     17  C   UNL     1      -2.927 -11.078  15.026  0.00  0.00    +0.218 A 
ATOM     19  C   UNL     1      -3.179 -10.665  12.981  0.00  0.00    +0.248 A 
BRANCH  19  21
ATOM     21  C   UNL     1      -3.785 -10.036  11.843  0.00  0.00    +0.038 A 
ATOM     22  C   UNL     1      -3.031  -9.804  10.693  0.00  0.00    +0.013 A 
ATOM     23  C   UNL     1      -5.127  -9.659  11.886  0.00  0.00    +0.013 A 
ATOM     25  C   UNL     1      -3.619  -9.193   9.585  0.00  0.00    +0.001 A 
ATOM     26  C   UNL     1      -5.715  -9.047  10.779  0.00  0.00    +0.001 A 
ATOM     27  C   UNL     1      -4.961  -8.815   9.628  0.00  0.00    +0.000 A 
ENDBRANCH  19  21
ENDBRANCH  13  17
ENDBRANCH   8  13
TORSDOF 8
ENDMDL
MODEL 4
REMARK VINA RESULT:      -5.8     27.032     29.382
REMARK  Name = 38030342
REMARK  11 active torsions:
REMARK  status: ('A' for Active; 'I' for Inactive)
REMARK    1  A    between atoms: N_2  and  C_12
REMARK    2  A    between atoms: N_2  and  C_18
REMARK    3  A    between atoms: C_5  and  C_9
REMARK    4  A    between atoms: C_6  and  C_12
REMARK    5  A    between atoms: C_8  and  C_13
REMARK    6  A    between atoms: C_9  and  C_14
REMARK    7  A    between atoms: C_9  and  C_15
REMARK    8  A    between atoms: C_10  and  C_16
REMARK    9  A    between atoms: C_13  and  C_17
REMARK   10  A    between atoms: C_18  and  C_20
REMARK   11  A    between atoms: C_19  and  C_21
REMARK                            x       y       z     vdW  Elec       q    Type
REMARK                         _______ _______ _______ _____ _____    ______ ____
ROOT
ATOM      5  C   UNL     1      -6.496  -9.666   9.779  0.00  0.00    +0.000 C 
ATOM      6  C   UNL     1      -5.529  -9.281   8.633  0.00  0.00    +0.029 C 
ATOM      7  C   UNL     1      -6.063  -8.999  11.094  0.00  0.00    +0.012 C 
ATOM      8  C   UNL     1      -4.634  -9.399  11.506  0.00  0.00    +0.024 C 
ATOM     10  C   UNL     1      -3.665  -9.299  10.346  0.00  0.00    -0.073 C 
ATOM     11  C   UNL     1      -4.083  -9.234   9.070  0.00  0.00    -0.023 C 
ATOM     16  C   UNL     1      -2.203  -9.232  10.690  0.00  0.00    +0.039 C 
ENDROOT
BRANCH   5   9
ATOM      9  C   UNL     1      -7.944  -9.282   9.455  0.00  0.00    -0.013 C 
ATOM     14  C   UNL     1      -8.831  -9.468  10.682  0.00  0.00    +0.007 C 
ATOM     15  C   UNL     1      -8.013  -7.845   8.951  0.00  0.00    +0.007 C 
ENDBRANCH   5   9
BRANCH   6  12
ATOM     12  C   UNL     1      -5.672 -10.235   7.443  0.00  0.00    +0.089 C 
BRANCH  12   2
ATOM      2  N   UNL     1      -4.579 -11.192   7.418  0.00  0.00    -0.305 NA
ATOM     28  H   UNL     1      -4.114 -11.170   6.511  0.00  0.00    +0.123 HD
BRANCH   2  18
ATOM     18  C   UNL     1      -5.059 -12.545   7.676  0.00  0.00    +0.170 C 
BRANCH  18  20
ATOM     20  C   UNL     1      -4.504 -13.066   8.929  0.00  0.00    -0.090 C 
ATOM     24  C   UNL     1      -4.056 -13.492   9.958  0.00  0.00    +0.005 C 
ENDBRANCH  18  20
ENDBRANCH   2  18
ENDBRANCH  12   2
ENDBRANCH   6  12
BRANCH   8  13
ATOM     13  C   UNL     1      -4.610 -10.801  12.125  0.00  0.00    +0.105 C 
BRANCH  13  17
ATOM      1  O   UNL     1      -4.947 -10.840  14.541  0.00  0.00    -0.420 OA
ATOM      3  N   UNL     1      -2.803 -10.704  13.917  0.00  0.00    -0.112 NA
ATOM      4  N   UNL     1      -2.846 -10.717  15.299  0.00  0.00    -0.107 NA
ATOM     17  C   UNL     1      -4.051 -10.777  13.518  0.00  0.00    +0.218 A 
ATOM     19  C   UNL     1      -4.116 -10.797  15.619  0.00  0.00    +0.248 A 
BRANCH  19  21
ATOM     21  C   UNL     1      -4.752 -10.846  16.904  0.00  0.00    +0.038 A 
ATOM     22  C   UNL     1      -5.997 -10.247  17.087  0.00  0.00    +0.013 A 
ATOM     23  C   UNL     1      -4.125 -11.495  17.967  0.00  0.00    +0.013 A 
ATOM     25  C   UNL     1      -6.616 -10.294  18.336  0.00  0.00    +0.001 A 
ATOM     26  C   UNL     1      -4.744 -11.542  19.217  0.00  0.00    +0.001 A 
ATOM     27  C   UNL     1      -5.990 -10.942  19.401  0.00  0.00    +0.000 A 
ENDBRANCH  19  21
ENDBRANCH  13  17
ENDBRANCH   8  13
TORSDOF 8
ENDMDL
MODEL 5
REMARK VINA RESULT:      -5.8     26.923     29.447
REMARK  Name = 38030342
REMARK  11 active torsions:
REMARK  status: ('A' for Active; 'I' for Inactive)
REMARK    1  A    between atoms: N_2  and  C_12
REMARK    2  A    between atoms: N_2  and  C_18
REMARK    3  A    between atoms: C_5  and  C_9
REMARK    4  A    between atoms: C_6  and  C_12
REMARK    5  A    between atoms: C_8  and  C_13
REMARK    6  A    between atoms: C_9  and  C_14
REMARK    7  A    between atoms: C_9  and  C_15
REMARK    8  A    between atoms: C_10  and  C_16
REMARK    9  A    between atoms: C_13  and  C_17
REMARK   10  A    between atoms: C_18  and  C_20
REMARK   11  A    between atoms: C_19  and  C_21
REMARK                            x       y       z     vdW  Elec       q    Type
REMARK                         _______ _______ _______ _____ _____    ______ ____
ROOT
ATOM      5  C   UNL     1      -6.427  -9.783   9.943  0.00  0.00    +0.000 C 
ATOM      6  C   UNL     1      -5.526  -9.339   8.764  0.00  0.00    +0.029 C 
ATOM      7  C   UNL     1      -5.975  -9.108  11.247  0.00  0.00    +0.012 C 
ATOM      8  C   UNL     1      -4.512  -9.441  11.599  0.00  0.00    +0.024 C 
ATOM     10  C   UNL     1      -3.597  -9.283  10.402  0.00  0.00    -0.073 C 
ATOM     11  C   UNL     1      -4.068  -9.226   9.144  0.00  0.00    -0.023 C 
ATOM     16  C   UNL     1      -2.127  -9.146  10.688  0.00  0.00    +0.039 C 
ENDROOT
BRANCH   5   9
ATOM      9  C   UNL     1      -7.903  -9.468   9.681  0.00  0.00    -0.013 C 
ATOM     14  C   UNL     1      -8.740  -9.771  10.920  0.00  0.00    +0.007 C 
ATOM     15  C   UNL     1      -8.070  -8.012   9.259  0.00  0.00    +0.007 C 
ENDBRANCH   5   9
BRANCH   6  12
ATOM     12  C   UNL     1      -5.670 -10.288   7.570  0.00  0.00    +0.089 C 
BRANCH  12   2
ATOM      2  N   UNL     1      -5.911  -9.541   6.348  0.00  0.00    -0.305 NA
ATOM     28  H   UNL     1      -5.793  -8.542   6.517  0.00  0.00    +0.123 HD
BRANCH   2  18
ATOM     18  C   UNL     1      -7.256  -9.783   5.840  0.00  0.00    +0.170 C 
BRANCH  18  20
ATOM     20  C   UNL     1      -7.981  -8.522   5.655  0.00  0.00    -0.090 C 
ATOM     24  C   UNL     1      -8.575  -7.490   5.496  0.00  0.00    +0.005 C 
ENDBRANCH  18  20
ENDBRANCH   2  18
ENDBRANCH  12   2
ENDBRANCH   6  12
BRANCH   8  13
ATOM     13  C   UNL     1      -4.395 -10.846  12.199  0.00  0.00    +0.105 C 
BRANCH  13  17
ATOM      1  O   UNL     1      -4.770 -10.910  14.609  0.00  0.00    -0.420 OA
ATOM      3  N   UNL     1      -2.625 -10.670  14.022  0.00  0.00    -0.112 NA
ATOM      4  N   UNL     1      -2.690 -10.690  15.404  0.00  0.00    -0.107 NA
ATOM     17  C   UNL     1      -3.861 -10.801  13.602  0.00  0.00    +0.218 A 
ATOM     19  C   UNL     1      -3.960 -10.832  15.701  0.00  0.00    +0.248 A 
BRANCH  19  21
ATOM     21  C   UNL     1      -4.615 -10.915  16.975  0.00  0.00    +0.038 A 
ATOM     22  C   UNL     1      -4.015 -11.615  18.021  0.00  0.00    +0.013 A 
ATOM     23  C   UNL     1      -5.850 -10.296  17.166  0.00  0.00    +0.013 A 
ATOM     25  C   UNL     1      -4.651 -11.697  19.260  0.00  0.00    +0.001 A 
ATOM     26  C   UNL     1      -6.486 -10.378  18.405  0.00  0.00    +0.001 A 
ATOM     27  C   UNL     1      -5.886 -11.078  19.452  0.00  0.00    +0.000 A 
ENDBRANCH  19  21
ENDBRANCH  13  17
ENDBRANCH   8  13
TORSDOF 8
ENDMDL
MODEL 6
REMARK VINA RESULT:      -5.7     26.433     28.410
REMARK  Name = 38030342
REMARK  11 active torsions:
REMARK  status: ('A' for Active; 'I' for Inactive)
REMARK    1  A    between atoms: N_2  and  C_12
REMARK    2  A    between atoms: N_2  and  C_18
REMARK    3  A    between atoms: C_5  and  C_9
REMARK    4  A    between atoms: C_6  and  C_12
REMARK    5  A    between atoms: C_8  and  C_13
REMARK    6  A    between atoms: C_9  and  C_14
REMARK    7  A    between atoms: C_9  and  C_15
REMARK    8  A    between atoms: C_10  and  C_16
REMARK    9  A    between atoms: C_13  and  C_17
REMARK   10  A    between atoms: C_18  and  C_20
REMARK   11  A    between atoms: C_19  and  C_21
REMARK                            x       y       z     vdW  Elec       q    Type
REMARK                         _______ _______ _______ _____ _____    ______ ____
ROOT
ATOM      5  C   UNL     1     -11.542  10.658  18.135  0.00  0.00    +0.000 C 
ATOM      6  C   UNL     1     -11.224   9.310  17.442  0.00  0.00    +0.029 C 
ATOM      7  C   UNL     1     -10.988  10.668  19.568  0.00  0.00    +0.012 C 
ATOM      8  C   UNL     1     -11.571   9.528  20.426  0.00  0.00    +0.024 C 
ATOM     10  C   UNL     1     -11.536   8.201  19.697  0.00  0.00    -0.073 C 
ATOM     11  C   UNL     1     -11.367   8.122  18.365  0.00  0.00    -0.023 C 
ATOM     16  C   UNL     1     -11.656   6.962  20.540  0.00  0.00    +0.039 C 
ENDROOT
BRANCH   5   9
ATOM      9  C   UNL     1     -10.976  11.847  17.352  0.00  0.00    -0.013 C 
ATOM     14  C   UNL     1     -10.988  13.106  18.215  0.00  0.00    +0.007 C 
ATOM     15  C   UNL     1      -9.565  11.540  16.864  0.00  0.00    +0.007 C 
ENDBRANCH   5   9
BRANCH   6  12
ATOM     12  C   UNL     1     -12.102   9.103  16.204  0.00  0.00    +0.089 C 
BRANCH  12   2
ATOM      2  N   UNL     1     -13.014   7.989  16.401  0.00  0.00    -0.305 NA
ATOM     28  H   UNL     1     -12.967   7.352  15.607  0.00  0.00    +0.123 HD
BRANCH   2  18
ATOM     18  C   UNL     1     -14.386   8.455  16.560  0.00  0.00    +0.170 C 
BRANCH  18  20
ATOM     20  C   UNL     1     -14.919   8.078  17.873  0.00  0.00    -0.090 C 
ATOM     24  C   UNL     1     -15.358   7.775  18.949  0.00  0.00    +0.005 C 
ENDBRANCH  18  20
ENDBRANCH   2  18
ENDBRANCH  12   2
ENDBRANCH   6  12
BRANCH   8  13
ATOM     13  C   UNL     1     -12.991   9.862  20.894  0.00  0.00    +0.105 C 
BRANCH  13  17
ATOM      1  O   UNL     1     -12.508  10.094  23.274  0.00  0.00    -0.420 OA
ATOM      3  N   UNL     1     -13.354  11.936  22.328  0.00  0.00    -0.112 NA
ATOM      4  N   UNL     1     -13.131  12.207  23.665  0.00  0.00    -0.107 NA
ATOM     17  C   UNL     1     -12.977  10.692  22.146  0.00  0.00    +0.218 A 
ATOM     19  C   UNL     1     -12.637  11.105  24.178  0.00  0.00    +0.248 A 
BRANCH  19  21
ATOM     21  C   UNL     1     -12.220  10.806  25.518  0.00  0.00    +0.038 A 
ATOM     22  C   UNL     1     -13.173  10.618  26.518  0.00  0.00    +0.013 A 
ATOM     23  C   UNL     1     -10.863  10.701  25.818  0.00  0.00    +0.013 A 
ATOM     25  C   UNL     1     -12.769  10.328  27.821  0.00  0.00    +0.001 A 
ATOM     26  C   UNL     1     -10.457  10.411  27.121  0.00  0.00    +0.001 A 
ATOM     27  C   UNL     1     -11.411  10.223  28.123  0.00  0.00    +0.000 A 
ENDBRANCH  19  21
ENDBRANCH  13  17
ENDBRANCH   8  13
TORSDOF 8
ENDMDL
MODEL 7
REMARK VINA RESULT:      -5.6     26.319     28.306
REMARK  Name = 38030342
REMARK  11 active torsions:
REMARK  status: ('A' for Active; 'I' for Inactive)
REMARK    1  A    between atoms: N_2  and  C_12
REMARK    2  A    between atoms: N_2  and  C_18
REMARK    3  A    between atoms: C_5  and  C_9
REMARK    4  A    between atoms: C_6  and  C_12
REMARK    5  A    between atoms: C_8  and  C_13
REMARK    6  A    between atoms: C_9  and  C_14
REMARK    7  A    between atoms: C_9  and  C_15
REMARK    8  A    between atoms: C_10  and  C_16
REMARK    9  A    between atoms: C_13  and  C_17
REMARK   10  A    between atoms: C_18  and  C_20
REMARK   11  A    between atoms: C_19  and  C_21
REMARK                            x       y       z     vdW  Elec       q    Type
REMARK                         _______ _______ _______ _____ _____    ______ ____
ROOT
ATOM      5  C   UNL     1     -11.745  10.101  18.465  0.00  0.00    +0.000 C 
ATOM      6  C   UNL     1     -11.526   8.701  17.841  0.00  0.00    +0.029 C 
ATOM      7  C   UNL     1     -11.156  10.154  19.883  0.00  0.00    +0.012 C 
ATOM      8  C   UNL     1     -11.786   9.101  20.815  0.00  0.00    +0.024 C 
ATOM     10  C   UNL     1     -11.850   7.737  20.159  0.00  0.00    -0.073 C 
ATOM     11  C   UNL     1     -11.718   7.575  18.830  0.00  0.00    -0.023 C 
ATOM     16  C   UNL     1     -12.025   6.555  21.072  0.00  0.00    +0.039 C 
ENDROOT
BRANCH   5   9
ATOM      9  C   UNL     1     -11.127  11.209  17.606  0.00  0.00    -0.013 C 
ATOM     14  C   UNL     1     -11.134  12.535  18.361  0.00  0.00    +0.007 C 
ATOM     15  C   UNL     1      -9.709  10.833  17.190  0.00  0.00    +0.007 C 
ENDBRANCH   5   9
BRANCH   6  12
ATOM     12  C   UNL     1     -12.445   8.483  16.634  0.00  0.00    +0.089 C 
BRANCH  12   2
ATOM      2  N   UNL     1     -11.674   8.089  15.467  0.00  0.00    -0.305 NA
ATOM     28  H   UNL     1     -10.720   8.440  15.542  0.00  0.00    +0.123 HD
BRANCH   2  18
ATOM     18  C   UNL     1     -12.276   8.603  14.242  0.00  0.00    +0.170 C 
BRANCH  18  20
ATOM     20  C   UNL     1     -12.073  10.050  14.125  0.00  0.00    -0.090 C 
ATOM     24  C   UNL     1     -11.908  11.235  14.022  0.00  0.00    +0.005 C 
ENDBRANCH  18  20
ENDBRANCH   2  18
ENDBRANCH  12   2
ENDBRANCH   6  12
BRANCH   8  13
ATOM     13  C   UNL     1     -13.172   9.546  21.293  0.00  0.00    +0.105 C 
BRANCH  13  17
ATOM      1  O   UNL     1     -12.541  10.255  23.541  0.00  0.00    -0.420 OA
ATOM      3  N   UNL     1     -13.427  11.879  22.284  0.00  0.00    -0.112 NA
ATOM      4  N   UNL     1     -13.120  12.416  23.521  0.00  0.00    -0.107 NA
ATOM     17  C   UNL     1     -13.073  10.617  22.342  0.00  0.00    +0.218 A 
ATOM     19  C   UNL     1     -12.605  11.433  24.221  0.00  0.00    +0.248 A 
BRANCH  19  21
ATOM     21  C   UNL     1     -12.109  11.409  25.567  0.00  0.00    +0.038 A 
ATOM     22  C   UNL     1     -11.364  10.318  26.015  0.00  0.00    +0.013 A 
ATOM     23  C   UNL     1     -12.371  12.476  26.425  0.00  0.00    +0.013 A 
ATOM     25  C   UNL     1     -10.881  10.293  27.323  0.00  0.00    +0.001 A 
ATOM     26  C   UNL     1     -11.888  12.452  27.735  0.00  0.00    +0.001 A 
ATOM     27  C   UNL     1     -11.143  11.360  28.183  0.00  0.00    +0.000 A 
ENDBRANCH  19  21
ENDBRANCH  13  17
ENDBRANCH   8  13
TORSDOF 8
ENDMDL
MODEL 8
REMARK VINA RESULT:      -5.6     26.161     28.808
REMARK  Name = 38030342
REMARK  11 active torsions:
REMARK  status: ('A' for Active; 'I' for Inactive)
REMARK    1  A    between atoms: N_2  and  C_12
REMARK    2  A    between atoms: N_2  and  C_18
REMARK    3  A    between atoms: C_5  and  C_9
REMARK    4  A    between atoms: C_6  and  C_12
REMARK    5  A    between atoms: C_8  and  C_13
REMARK    6  A    between atoms: C_9  and  C_14
REMARK    7  A    between atoms: C_9  and  C_15
REMARK    8  A    between atoms: C_10  and  C_16
REMARK    9  A    between atoms: C_13  and  C_17
REMARK   10  A    between atoms: C_18  and  C_20
REMARK   11  A    between atoms: C_19  and  C_21
REMARK                            x       y       z     vdW  Elec       q    Type
REMARK                         _______ _______ _______ _____ _____    ______ ____
ROOT
ATOM      5  C   UNL     1     -14.747   8.807  21.007  0.00  0.00    +0.000 C 
ATOM      6  C   UNL     1     -15.533   8.281  22.233  0.00  0.00    +0.029 C 
ATOM      7  C   UNL     1     -14.335   7.641  20.094  0.00  0.00    +0.012 C 
ATOM      8  C   UNL     1     -13.460   6.607  20.828  0.00  0.00    +0.024 C 
ATOM     10  C   UNL     1     -14.039   6.238  22.178  0.00  0.00    -0.073 C 
ATOM     11  C   UNL     1     -14.974   6.990  22.785  0.00  0.00    -0.023 C 
ATOM     16  C   UNL     1     -13.550   4.958  22.797  0.00  0.00    +0.039 C 
ENDROOT
BRANCH   5   9
ATOM      9  C   UNL     1     -15.560   9.829  20.206  0.00  0.00    -0.013 C 
ATOM     14  C   UNL     1     -14.715  10.417  19.080  0.00  0.00    +0.007 C 
ATOM     15  C   UNL     1     -16.826   9.186  19.651  0.00  0.00    +0.007 C 
ENDBRANCH   5   9
BRANCH   6  12
ATOM     12  C   UNL     1     -15.587   9.332  23.347  0.00  0.00    +0.089 C 
BRANCH  12   2
ATOM      2  N   UNL     1     -14.543   9.093  24.329  0.00  0.00    -0.305 NA
ATOM     28  H   UNL     1     -14.949   8.729  25.191  0.00  0.00    +0.123 HD
BRANCH   2  18
ATOM     18  C   UNL     1     -13.810  10.317  24.626  0.00  0.00    +0.170 C 
BRANCH  18  20
ATOM     20  C   UNL     1     -12.967  10.710  23.492  0.00  0.00    -0.090 C 
ATOM     24  C   UNL     1     -12.281  11.037  22.563  0.00  0.00    +0.005 C 
ENDBRANCH  18  20
ENDBRANCH   2  18
ENDBRANCH  12   2
ENDBRANCH   6  12
BRANCH   8  13
ATOM     13  C   UNL     1     -12.017   7.106  20.966  0.00  0.00    +0.105 C 
BRANCH  13  17
ATOM      1  O   UNL     1     -11.352   9.060  19.665  0.00  0.00    -0.420 OA
ATOM      3  N   UNL     1     -11.212   7.126  18.550  0.00  0.00    -0.112 NA
ATOM      4  N   UNL     1     -10.810   8.139  17.699  0.00  0.00    -0.107 NA
ATOM     17  C   UNL     1     -11.520   7.709  19.684  0.00  0.00    +0.218 A 
ATOM     19  C   UNL     1     -10.907   9.249  18.392  0.00  0.00    +0.248 A 
BRANCH  19  21
ATOM     21  C   UNL     1     -10.623  10.606  18.022  0.00  0.00    +0.038 A 
ATOM     22  C   UNL     1     -11.204  11.657  18.730  0.00  0.00    +0.013 A 
ATOM     23  C   UNL     1      -9.764  10.872  16.956  0.00  0.00    +0.013 A 
ATOM     25  C   UNL     1     -10.928  12.976  18.371  0.00  0.00    +0.001 A 
ATOM     26  C   UNL     1      -9.488  12.192  16.597  0.00  0.00    +0.001 A 
ATOM     27  C   UNL     1     -10.070  13.244  17.305  0.00  0.00    +0.000 A 
ENDBRANCH  19  21
ENDBRANCH  13  17
ENDBRANCH   8  13
TORSDOF 8
ENDMDL
MODEL 9
REMARK VINA RESULT:      -5.5      1.986      2.983
REMARK  Name = 38030342
REMARK  11 active torsions:
REMARK  status: ('A' for Active; 'I' for Inactive)
REMARK    1  A    between atoms: N_2  and  C_12
REMARK    2  A    between atoms: N_2  and  C_18
REMARK    3  A    between atoms: C_5  and  C_9
REMARK    4  A    between atoms: C_6  and  C_12
REMARK    5  A    between atoms: C_8  and  C_13
REMARK    6  A    between atoms: C_9  and  C_14
REMARK    7  A    between atoms: C_9  and  C_15
REMARK    8  A    between atoms: C_10  and  C_16
REMARK    9  A    between atoms: C_13  and  C_17
REMARK   10  A    between atoms: C_18  and  C_20
REMARK   11  A    between atoms: C_19  and  C_21
REMARK                            x       y       z     vdW  Elec       q    Type
REMARK                         _______ _______ _______ _____ _____    ______ ____
ROOT
ATOM      5  C   UNL     1      13.721  10.772  22.204  0.00  0.00    +0.000 C 
ATOM      6  C   UNL     1      12.319  11.199  21.705  0.00  0.00    +0.029 C 
ATOM      7  C   UNL     1      14.615  10.378  21.018  0.00  0.00    +0.012 C 
ATOM      8  C   UNL     1      14.016   9.222  20.195  0.00  0.00    +0.024 C 
ATOM     10  C   UNL     1      12.550   9.449  19.891  0.00  0.00    -0.073 C 
ATOM     11  C   UNL     1      11.810  10.346  20.566  0.00  0.00    -0.023 C 
ATOM     16  C   UNL     1      11.962   8.651  18.759  0.00  0.00    +0.039 C 
ENDROOT
BRANCH   5   9
ATOM      9  C   UNL     1      14.397  11.880  23.018  0.00  0.00    -0.013 C 
ATOM     14  C   UNL     1      14.566  11.445  24.471  0.00  0.00    +0.007 C 
ATOM     15  C   UNL     1      15.744  12.245  22.403  0.00  0.00    +0.007 C 
ENDBRANCH   5   9
BRANCH   6  12
ATOM     12  C   UNL     1      11.298  11.188  22.847  0.00  0.00    +0.089 C 
BRANCH  12   2
ATOM      2  N   UNL     1      10.422  12.344  22.763  0.00  0.00    -0.305 NA
ATOM     28  H   UNL     1      10.133  12.497  21.797  0.00  0.00    +0.123 HD
BRANCH   2  18
ATOM     18  C   UNL     1      11.086  13.544  23.258  0.00  0.00    +0.170 C 
BRANCH  18  20
ATOM     20  C   UNL     1      10.826  13.734  24.688  0.00  0.00    -0.090 C 
ATOM     24  C   UNL     1      10.621  13.890  25.861  0.00  0.00    +0.005 C 
ENDBRANCH  18  20
ENDBRANCH   2  18
ENDBRANCH  12   2
ENDBRANCH   6  12
BRANCH   8  13
ATOM     13  C   UNL     1      14.231   7.877  20.897  0.00  0.00    +0.105 C 
BRANCH  13  17
ATOM      1  O   UNL     1      16.546   7.107  20.937  0.00  0.00    -0.420 OA
ATOM      3  N   UNL     1      15.379   6.409  19.161  0.00  0.00    -0.112 NA
ATOM      4  N   UNL     1      16.661   5.903  19.055  0.00  0.00    -0.107 NA
ATOM     17  C   UNL     1      15.358   7.104  20.273  0.00  0.00    +0.218 A 
ATOM     19  C   UNL     1      17.307   6.336  20.112  0.00  0.00    +0.248 A 
BRANCH  19  21
ATOM     21  C   UNL     1      18.664   6.126  20.525  0.00  0.00    +0.038 A 
ATOM     22  C   UNL     1      19.390   5.052  20.012  0.00  0.00    +0.013 A 
ATOM     23  C   UNL     1      19.257   6.998  21.438  0.00  0.00    +0.013 A 
ATOM     25  C   UNL     1      20.710   4.847  20.414  0.00  0.00    +0.001 A 
ATOM     26  C   UNL     1      20.578   6.793  21.840  0.00  0.00    +0.001 A 
ATOM     27  C   UNL     1      21.304   5.717  21.327  0.00  0.00    +0.000 A 
ENDBRANCH  19  21
ENDBRANCH  13  17
ENDBRANCH   8  13
TORSDOF 8
ENDMDL
MODEL 10
REMARK VINA RESULT:      -5.4     11.597     14.711
REMARK  Name = 38030342
REMARK  11 active torsions:
REMARK  status: ('A' for Active; 'I' for Inactive)
REMARK    1  A    between atoms: N_2  and  C_12
REMARK    2  A    between atoms: N_2  and  C_18
REMARK    3  A    between atoms: C_5  and  C_9
REMARK    4  A    between atoms: C_6  and  C_12
REMARK    5  A    between atoms: C_8  and  C_13
REMARK    6  A    between atoms: C_9  and  C_14
REMARK    7  A    between atoms: C_9  and  C_15
REMARK    8  A    between atoms: C_10  and  C_16
REMARK    9  A    between atoms: C_13  and  C_17
REMARK   10  A    between atoms: C_18  and  C_20
REMARK   11  A    between atoms: C_19  and  C_21
REMARK                            x       y       z     vdW  Elec       q    Type
REMARK                         _______ _______ _______ _____ _____    ______ ____
ROOT
ATOM      5  C   UNL     1      17.786  -5.580  24.719  0.00  0.00    +0.000 C 
ATOM      6  C   UNL     1      17.301  -5.540  23.249  0.00  0.00    +0.029 C 
ATOM      7  C   UNL     1      17.255  -4.364  25.493  0.00  0.00    +0.012 C 
ATOM      8  C   UNL     1      17.707  -3.032  24.865  0.00  0.00    +0.024 C 
ATOM     10  C   UNL     1      17.505  -3.020  23.364  0.00  0.00    -0.073 C 
ATOM     11  C   UNL     1      17.312  -4.149  22.660  0.00  0.00    -0.023 C 
ATOM     16  C   UNL     1      17.487  -1.674  22.694  0.00  0.00    +0.039 C 
ENDROOT
BRANCH   5   9
ATOM      9  C   UNL     1      17.357  -6.871  25.425  0.00  0.00    -0.013 C 
ATOM     14  C   UNL     1      18.553  -7.525  26.112  0.00  0.00    +0.007 C 
ATOM     15  C   UNL     1      16.247  -6.584  26.430  0.00  0.00    +0.007 C 
ENDBRANCH   5   9
BRANCH   6  12
ATOM     12  C   UNL     1      18.133  -6.476  22.366  0.00  0.00    +0.089 C 
BRANCH  12   2
ATOM      2  N   UNL     1      19.265  -5.768  21.794  0.00  0.00    -0.305 NA
ATOM     28  H   UNL     1      19.181  -5.734  20.778  0.00  0.00    +0.123 HD
BRANCH   2  18
ATOM     18  C   UNL     1      20.523  -6.415  22.148  0.00  0.00    +0.170 C 
BRANCH  18  20
ATOM     20  C   UNL     1      21.114  -5.795  23.337  0.00  0.00    -0.090 C 
ATOM     24  C   UNL     1      21.599  -5.280  24.308  0.00  0.00    +0.005 C 
ENDBRANCH  18  20
ENDBRANCH   2  18
ENDBRANCH  12   2
ENDBRANCH   6  12
BRANCH   8  13
ATOM     13  C   UNL     1      19.163  -2.718  25.227  0.00  0.00    +0.105 C 
BRANCH  13  17
ATOM      1  O   UNL     1      18.497  -2.204  27.517  0.00  0.00    -0.420 OA
ATOM      3  N   UNL     1      20.356  -3.438  27.359  0.00  0.00    -0.112 NA
ATOM      4  N   UNL     1      20.099  -3.223  28.701  0.00  0.00    -0.107 NA
ATOM     17  C   UNL     1      19.397  -2.825  26.707  0.00  0.00    +0.218 A 
ATOM     19  C   UNL     1      19.005  -2.499  28.745  0.00  0.00    +0.248 A 
BRANCH  19  21
ATOM     21  C   UNL     1      18.276  -1.982  29.867  0.00  0.00    +0.038 A 
ATOM     22  C   UNL     1      18.847  -0.998  30.675  0.00  0.00    +0.013 A 
ATOM     23  C   UNL     1      16.997  -2.461  30.148  0.00  0.00    +0.013 A 
ATOM     25  C   UNL     1      18.139  -0.494  31.766  0.00  0.00    +0.001 A 
ATOM     26  C   UNL     1      16.289  -1.957  31.240  0.00  0.00    +0.001 A 
ATOM     27  C   UNL     1      16.860  -0.973  32.048  0.00  0.00    +0.000 A 
ENDBRANCH  19  21
ENDBRANCH  13  17
ENDBRANCH   8  13
TORSDOF 8
ENDMDL
