MODEL 1
REMARK VINA RESULT:      -7.3      0.000      0.000
REMARK  Name = 11866303
REMARK  13 active torsions:
REMARK  status: ('A' for Active; 'I' for Inactive)
REMARK    1  A    between atoms: S_1  and  C_30
REMARK    2  A    between atoms: S_1  and  C_35
REMARK    3  A    between atoms: O_2  and  C_11
REMARK    4  A    between atoms: O_3  and  C_13
REMARK    5  A    between atoms: O_7  and  C_24
REMARK    6  A    between atoms: O_7  and  C_34
REMARK    7  A    between atoms: N_8  and  C_12
REMARK    8  A    between atoms: N_9  and  C_18
REMARK    9  A    between atoms: C_15  and  C_17
REMARK   10  A    between atoms: C_18  and  C_20
REMARK   11  A    between atoms: C_18  and  C_22
REMARK   12  A    between atoms: C_19  and  C_21
REMARK   13  A    between atoms: C_20  and  C_23
REMARK                            x       y       z     vdW  Elec       q    Type
REMARK                         _______ _______ _______ _____ _____    ______ ____
ROOT
ATOM     11  C   UNL     1      -8.431 -10.245  18.112  0.00  0.00    +0.167 C 
ATOM     12  C   UNL     1      -7.780  -9.215  17.170  0.00  0.00    +0.128 C 
ATOM     13  C   UNL     1      -7.375 -11.040  18.892  0.00  0.00    +0.149 C 
ATOM     14  C   UNL     1      -6.368 -11.734  17.958  0.00  0.00    +0.074 C 
ATOM     15  C   UNL     1      -5.986 -10.900  16.768  0.00  0.00    +0.015 C 
ATOM     16  C   UNL     1      -6.604  -9.765  16.409  0.00  0.00    +0.006 C 
ENDROOT
BRANCH  15  17
ATOM      4  O   UNL     1      -4.541 -12.529  15.883  0.00  0.00    -0.271 OA
ATOM      9  N   UNL     1      -4.205 -10.292  15.318  0.00  0.00    -0.300 N 
ATOM     17  C   UNL     1      -4.849 -11.339  15.954  0.00  0.00    +0.241 C 
ATOM     39  H   UNL     1      -4.597  -9.357  15.392  0.00  0.00    +0.150 HD
BRANCH   9  18
ATOM     18  C   UNL     1      -3.055 -10.476  14.463  0.00  0.00    +0.163 C 
BRANCH  18  22
ATOM      6  O   UNL     1      -1.504 -10.788  16.308  0.00  0.00    -0.274 OA
ATOM     10  N   UNL     1      -1.722 -12.471  14.760  0.00  0.00    -0.328 N 
ATOM     22  C   UNL     1      -2.008 -11.224  15.276  0.00  0.00    +0.231 C 
ATOM     40  H   UNL     1      -2.164 -12.828  13.919  0.00  0.00    +0.145 HD
ATOM     41  H   UNL     1      -1.050 -13.081  15.214  0.00  0.00    +0.145 HD
ENDBRANCH  18  22
BRANCH  18  20
ATOM     20  C   UNL     1      -3.397 -11.254  13.186  0.00  0.00    +0.067 C 
BRANCH  20  23
ATOM     23  C   UNL     1      -3.788 -10.344  12.046  0.00  0.00    -0.045 A 
ATOM     26  C   UNL     1      -2.851 -10.031  11.075  0.00  0.00    +0.004 A 
ATOM     27  C   UNL     1      -5.077  -9.838  11.994  0.00  0.00    +0.004 A 
ATOM     31  C   UNL     1      -3.212  -9.190  10.023  0.00  0.00    +0.000 A 
ATOM     32  C   UNL     1      -5.438  -8.996  10.940  0.00  0.00    +0.000 A 
ATOM     33  C   UNL     1      -4.506  -8.673   9.955  0.00  0.00    +0.000 A 
ENDBRANCH  20  23
ENDBRANCH  18  20
ENDBRANCH   9  18
ENDBRANCH  15  17
BRANCH  12   8
ATOM      5  O   UNL     1     -10.011  -7.513  17.775  0.00  0.00    -0.270 OA
ATOM      8  N   UNL     1      -8.733  -8.677  16.230  0.00  0.00    -0.302 N 
ATOM     19  C   UNL     1      -9.784  -7.860  16.619  0.00  0.00    +0.248 C 
ATOM     36  H   UNL     1      -8.669  -9.004  15.271  0.00  0.00    +0.150 HD
BRANCH  19  21
ATOM     21  C   UNL     1     -10.693  -7.409  15.535  0.00  0.00    +0.078 A 
ATOM     24  C   UNL     1     -11.181  -8.323  14.623  0.00  0.00    +0.133 A 
ATOM     25  C   UNL     1     -11.020  -6.069  15.475  0.00  0.00    +0.018 A 
ATOM     28  C   UNL     1     -12.032  -7.881  13.611  0.00  0.00    +0.061 A 
ATOM     29  C   UNL     1     -11.871  -5.626  14.462  0.00  0.00    +0.015 A 
ATOM     30  C   UNL     1     -12.377  -6.531  13.530  0.00  0.00    +0.011 A 
BRANCH  30   1
ATOM      1  S   UNL     1     -13.465  -5.965  12.237  0.00  0.00    -0.128 S 
ATOM     35  C   UNL     1     -12.298  -5.175  11.093  0.00  0.00    +0.090 C 
ENDBRANCH  30   1
BRANCH  24   7
ATOM      7  O   UNL     1     -10.856  -9.646  14.685  0.00  0.00    -0.494 OA
ATOM     34  C   UNL     1     -11.896 -10.553  15.043  0.00  0.00    +0.277 C 
ENDBRANCH  24   7
ENDBRANCH  19  21
ENDBRANCH  12   8
BRANCH  11   2
ATOM      2  O   UNL     1      -9.224 -11.158  17.351  0.00  0.00    -0.387 OA
ATOM     37  H   UNL     1      -8.930 -12.057  17.575  0.00  0.00    +0.210 HD
ENDBRANCH  11   2
BRANCH  13   3
ATOM      3  O   UNL     1      -6.689 -10.184  19.802  0.00  0.00    -0.389 OA
ATOM     38  H   UNL     1      -5.928  -9.805  19.330  0.00  0.00    +0.210 HD
ENDBRANCH  13   3
TORSDOF 11
ENDMDL
MODEL 2
REMARK VINA RESULT:      -7.0     25.203     29.601
REMARK  Name = 11866303
REMARK  13 active torsions:
REMARK  status: ('A' for Active; 'I' for Inactive)
REMARK    1  A    between atoms: S_1  and  C_30
REMARK    2  A    between atoms: S_1  and  C_35
REMARK    3  A    between atoms: O_2  and  C_11
REMARK    4  A    between atoms: O_3  and  C_13
REMARK    5  A    between atoms: O_7  and  C_24
REMARK    6  A    between atoms: O_7  and  C_34
REMARK    7  A    between atoms: N_8  and  C_12
REMARK    8  A    between atoms: N_9  and  C_18
REMARK    9  A    between atoms: C_15  and  C_17
REMARK   10  A    between atoms: C_18  and  C_20
REMARK   11  A    between atoms: C_18  and  C_22
REMARK   12  A    between atoms: C_19  and  C_21
REMARK   13  A    between atoms: C_20  and  C_23
REMARK                            x       y       z     vdW  Elec       q    Type
REMARK                         _______ _______ _______ _____ _____    ______ ____
ROOT
ATOM     11  C   UNL     1      15.062   4.212   1.269  0.00  0.00    +0.167 C 
ATOM     12  C   UNL     1      14.500   5.569   1.735  0.00  0.00    +0.128 C 
ATOM     13  C   UNL     1      14.019   3.414   0.478  0.00  0.00    +0.149 C 
ATOM     14  C   UNL     1      12.720   3.207   1.277  0.00  0.00    +0.074 C 
ATOM     15  C   UNL     1      12.323   4.406   2.089  0.00  0.00    +0.015 C 
ATOM     16  C   UNL     1      13.107   5.476   2.295  0.00  0.00    +0.006 C 
ENDROOT
BRANCH  15  17
ATOM      4  O   UNL     1      10.005   4.019   2.052  0.00  0.00    -0.271 OA
ATOM      9  N   UNL     1      10.967   4.938   3.967  0.00  0.00    -0.300 N 
ATOM     17  C   UNL     1      10.982   4.426   2.681  0.00  0.00    +0.241 C 
ATOM     39  H   UNL     1      11.850   5.173   4.411  0.00  0.00    +0.150 HD
BRANCH   9  18
ATOM     18  C   UNL     1       9.761   5.060   4.754  0.00  0.00    +0.163 C 
BRANCH  18  22
ATOM      6  O   UNL     1      10.449   5.624   7.015  0.00  0.00    -0.274 OA
ATOM     10  N   UNL     1      10.040   3.422   6.509  0.00  0.00    -0.328 N 
ATOM     22  C   UNL     1      10.137   4.761   6.198  0.00  0.00    +0.231 C 
ATOM     40  H   UNL     1       9.759   2.723   5.829  0.00  0.00    +0.145 HD
ATOM     41  H   UNL     1      10.250   3.088   7.444  0.00  0.00    +0.145 HD
ENDBRANCH  18  22
BRANCH  18  20
ATOM     20  C   UNL     1       9.132   6.455   4.642  0.00  0.00    +0.067 C 
BRANCH  20  23
ATOM     23  C   UNL     1       9.969   7.397   3.809  0.00  0.00    -0.045 A 
ATOM     26  C   UNL     1      11.117   7.948   4.355  0.00  0.00    +0.004 A 
ATOM     27  C   UNL     1       9.572   7.692   2.515  0.00  0.00    +0.004 A 
ATOM     31  C   UNL     1      11.889   8.818   3.585  0.00  0.00    +0.000 A 
ATOM     32  C   UNL     1      10.345   8.562   1.745  0.00  0.00    +0.000 A 
ATOM     33  C   UNL     1      11.504   9.125   2.281  0.00  0.00    +0.000 A 
ENDBRANCH  20  23
ENDBRANCH  18  20
ENDBRANCH   9  18
ENDBRANCH  15  17
BRANCH  12   8
ATOM      5  O   UNL     1      15.231   8.343   1.860  0.00  0.00    -0.270 OA
ATOM      8  N   UNL     1      15.356   6.191   2.716  0.00  0.00    -0.302 N 
ATOM     19  C   UNL     1      15.653   7.546   2.693  0.00  0.00    +0.248 C 
ATOM     36  H   UNL     1      15.824   5.577   3.375  0.00  0.00    +0.150 HD
BRANCH  19  21
ATOM     21  C   UNL     1      16.571   8.027   3.757  0.00  0.00    +0.078 A 
ATOM     24  C   UNL     1      16.088   8.255   5.030  0.00  0.00    +0.133 A 
ATOM     25  C   UNL     1      17.896   8.235   3.428  0.00  0.00    +0.018 A 
ATOM     28  C   UNL     1      16.965   8.709   6.015  0.00  0.00    +0.061 A 
ATOM     29  C   UNL     1      18.773   8.689   4.413  0.00  0.00    +0.015 A 
ATOM     30  C   UNL     1      18.308   8.926   5.707  0.00  0.00    +0.011 A 
BRANCH  30   1
ATOM      1  S   UNL     1      19.429   9.505   6.965  0.00  0.00    -0.128 S 
ATOM     35  C   UNL     1      20.710   8.220   6.938  0.00  0.00    +0.090 C 
ENDBRANCH  30   1
BRANCH  24   7
ATOM      7  O   UNL     1      14.779   8.049   5.351  0.00  0.00    -0.494 OA
ATOM     34  C   UNL     1      14.511   7.209   6.471  0.00  0.00    +0.277 C 
ENDBRANCH  24   7
ENDBRANCH  19  21
ENDBRANCH  12   8
BRANCH  11   2
ATOM      2  O   UNL     1      15.463   3.443   2.405  0.00  0.00    -0.387 OA
ATOM     37  H   UNL     1      14.690   2.933   2.701  0.00  0.00    +0.210 HD
ENDBRANCH  11   2
BRANCH  13   3
ATOM      3  O   UNL     1      13.734   4.066  -0.757  0.00  0.00    -0.389 OA
ATOM     38  H   UNL     1      13.092   4.774  -0.574  0.00  0.00    +0.210 HD
ENDBRANCH  13   3
TORSDOF 11
ENDMDL
MODEL 3
REMARK VINA RESULT:      -7.0     24.105     27.690
REMARK  Name = 11866303
REMARK  13 active torsions:
REMARK  status: ('A' for Active; 'I' for Inactive)
REMARK    1  A    between atoms: S_1  and  C_30
REMARK    2  A    between atoms: S_1  and  C_35
REMARK    3  A    between atoms: O_2  and  C_11
REMARK    4  A    between atoms: O_3  and  C_13
REMARK    5  A    between atoms: O_7  and  C_24
REMARK    6  A    between atoms: O_7  and  C_34
REMARK    7  A    between atoms: N_8  and  C_12
REMARK    8  A    between atoms: N_9  and  C_18
REMARK    9  A    between atoms: C_15  and  C_17
REMARK   10  A    between atoms: C_18  and  C_20
REMARK   11  A    between atoms: C_18  and  C_22
REMARK   12  A    between atoms: C_19  and  C_21
REMARK   13  A    between atoms: C_20  and  C_23
REMARK                            x       y       z     vdW  Elec       q    Type
REMARK                         _______ _______ _______ _____ _____    ______ ____
ROOT
ATOM     11  C   UNL     1      13.276   6.904   2.223  0.00  0.00    +0.167 C 
ATOM     12  C   UNL     1      12.767   5.452   2.137  0.00  0.00    +0.128 C 
ATOM     13  C   UNL     1      13.459   7.349   3.679  0.00  0.00    +0.149 C 
ATOM     14  C   UNL     1      12.167   7.188   4.500  0.00  0.00    +0.074 C 
ATOM     15  C   UNL     1      11.398   5.942   4.162  0.00  0.00    +0.015 C 
ATOM     16  C   UNL     1      11.662   5.150   3.112  0.00  0.00    +0.006 C 
ENDROOT
BRANCH  15  17
ATOM      4  O   UNL     1       9.409   4.793   4.659  0.00  0.00    -0.271 OA
ATOM      9  N   UNL     1      10.396   6.110   6.310  0.00  0.00    -0.300 N 
ATOM     17  C   UNL     1      10.300   5.548   5.049  0.00  0.00    +0.241 C 
ATOM     39  H   UNL     1      11.219   6.660   6.541  0.00  0.00    +0.150 HD
BRANCH   9  18
ATOM     18  C   UNL     1       9.428   5.871   7.357  0.00  0.00    +0.163 C 
BRANCH  18  22
ATOM      6  O   UNL     1      10.546   5.429   9.469  0.00  0.00    -0.274 OA
ATOM     10  N   UNL     1      10.135   3.667   8.054  0.00  0.00    -0.328 N 
ATOM     22  C   UNL     1      10.108   5.001   8.404  0.00  0.00    +0.231 C 
ATOM     40  H   UNL     1       9.749   3.325   7.180  0.00  0.00    +0.145 HD
ATOM     41  H   UNL     1      10.548   2.975   8.671  0.00  0.00    +0.145 HD
ENDBRANCH  18  22
BRANCH  18  20
ATOM     20  C   UNL     1       8.923   7.174   7.990  0.00  0.00    +0.067 C 
BRANCH  20  23
ATOM     23  C   UNL     1       8.879   8.314   7.002  0.00  0.00    -0.045 A 
ATOM     26  C   UNL     1       9.711   9.407   7.188  0.00  0.00    +0.004 A 
ATOM     27  C   UNL     1       8.008   8.247   5.927  0.00  0.00    +0.004 A 
ATOM     31  C   UNL     1       9.670  10.460   6.275  0.00  0.00    +0.000 A 
ATOM     32  C   UNL     1       7.967   9.301   5.013  0.00  0.00    +0.000 A 
ATOM     33  C   UNL     1       8.798  10.407   5.187  0.00  0.00    +0.000 A 
ENDBRANCH  20  23
ENDBRANCH  18  20
ENDBRANCH   9  18
ENDBRANCH  15  17
BRANCH  12   8
ATOM      5  O   UNL     1      12.912   2.884   0.862  0.00  0.00    -0.270 OA
ATOM      8  N   UNL     1      12.316   5.124   0.806  0.00  0.00    -0.302 N 
ATOM     19  C   UNL     1      12.430   3.848   0.274  0.00  0.00    +0.248 C 
ATOM     36  H   UNL     1      12.001   5.894   0.223  0.00  0.00    +0.150 HD
BRANCH  19  21
ATOM     21  C   UNL     1      11.943   3.680  -1.119  0.00  0.00    +0.078 A 
ATOM     24  C   UNL     1      10.712   4.187  -1.483  0.00  0.00    +0.133 A 
ATOM     25  C   UNL     1      12.752   3.010  -2.015  0.00  0.00    +0.018 A 
ATOM     28  C   UNL     1      10.271   4.017  -2.795  0.00  0.00    +0.061 A 
ATOM     29  C   UNL     1      12.312   2.840  -3.327  0.00  0.00    +0.015 A 
ATOM     30  C   UNL     1      11.071   3.343  -3.718  0.00  0.00    +0.011 A 
BRANCH  30   1
ATOM      1  S   UNL     1      10.509   3.126  -5.395  0.00  0.00    -0.128 S 
ATOM     35  C   UNL     1      11.737   4.088  -6.323  0.00  0.00    +0.090 C 
ENDBRANCH  30   1
BRANCH  24   7
ATOM      7  O   UNL     1       9.915   4.848  -0.596  0.00  0.00    -0.494 OA
ATOM     34  C   UNL     1       9.501   6.164  -0.954  0.00  0.00    +0.277 C 
ENDBRANCH  24   7
ENDBRANCH  19  21
ENDBRANCH  12   8
BRANCH  11   2
ATOM      2  O   UNL     1      12.342   7.779   1.588  0.00  0.00    -0.387 OA
ATOM     37  H   UNL     1      12.564   8.687   1.855  0.00  0.00    +0.210 HD
ENDBRANCH  11   2
BRANCH  13   3
ATOM      3  O   UNL     1      14.519   6.617   4.288  0.00  0.00    -0.389 OA
ATOM     38  H   UNL     1      15.301   7.196   4.308  0.00  0.00    +0.210 HD
ENDBRANCH  13   3
TORSDOF 11
ENDMDL
MODEL 4
REMARK VINA RESULT:      -6.8     27.667     30.531
REMARK  Name = 11866303
REMARK  13 active torsions:
REMARK  status: ('A' for Active; 'I' for Inactive)
REMARK    1  A    between atoms: S_1  and  C_30
REMARK    2  A    between atoms: S_1  and  C_35
REMARK    3  A    between atoms: O_2  and  C_11
REMARK    4  A    between atoms: O_3  and  C_13
REMARK    5  A    between atoms: O_7  and  C_24
REMARK    6  A    between atoms: O_7  and  C_34
REMARK    7  A    between atoms: N_8  and  C_12
REMARK    8  A    between atoms: N_9  and  C_18
REMARK    9  A    between atoms: C_15  and  C_17
REMARK   10  A    between atoms: C_18  and  C_20
REMARK   11  A    between atoms: C_18  and  C_22
REMARK   12  A    between atoms: C_19  and  C_21
REMARK   13  A    between atoms: C_20  and  C_23
REMARK                            x       y       z     vdW  Elec       q    Type
REMARK                         _______ _______ _______ _____ _____    ______ ____
ROOT
ATOM     11  C   UNL     1      12.854   9.433  15.309  0.00  0.00    +0.167 C 
ATOM     12  C   UNL     1      13.372  10.610  16.157  0.00  0.00    +0.128 C 
ATOM     13  C   UNL     1      11.510   8.912  15.833  0.00  0.00    +0.149 C 
ATOM     14  C   UNL     1      11.584   8.508  17.316  0.00  0.00    +0.074 C 
ATOM     15  C   UNL     1      12.432   9.433  18.143  0.00  0.00    +0.015 C 
ATOM     16  C   UNL     1      13.230  10.385  17.638  0.00  0.00    +0.006 C 
ENDROOT
BRANCH  15  17
ATOM      4  O   UNL     1      12.097  10.274  20.312  0.00  0.00    -0.271 OA
ATOM      9  N   UNL     1      12.644   8.024  20.045  0.00  0.00    -0.300 N 
ATOM     17  C   UNL     1      12.369   9.306  19.602  0.00  0.00    +0.241 C 
ATOM     39  H   UNL     1      12.782   7.287  19.358  0.00  0.00    +0.150 HD
BRANCH   9  18
ATOM     18  C   UNL     1      12.646   7.654  21.442  0.00  0.00    +0.163 C 
BRANCH  18  22
ATOM      6  O   UNL     1      10.302   7.213  21.910  0.00  0.00    -0.274 OA
ATOM     10  N   UNL     1      11.700   5.431  21.534  0.00  0.00    -0.328 N 
ATOM     22  C   UNL     1      11.425   6.775  21.673  0.00  0.00    +0.231 C 
ATOM     40  H   UNL     1      12.629   5.084  21.316  0.00  0.00    +0.145 HD
ATOM     41  H   UNL     1      10.971   4.735  21.650  0.00  0.00    +0.145 HD
ENDBRANCH  18  22
BRANCH  18  20
ATOM     20  C   UNL     1      13.925   6.910  21.845  0.00  0.00    +0.067 C 
BRANCH  20  23
ATOM     23  C   UNL     1      15.167   7.739  21.620  0.00  0.00    -0.045 A 
ATOM     26  C   UNL     1      16.260   7.166  20.989  0.00  0.00    +0.004 A 
ATOM     27  C   UNL     1      15.190   9.056  22.048  0.00  0.00    +0.004 A 
ATOM     31  C   UNL     1      17.406   7.932  20.781  0.00  0.00    +0.000 A 
ATOM     32  C   UNL     1      16.338   9.822  21.839  0.00  0.00    +0.000 A 
ATOM     33  C   UNL     1      17.446   9.260  21.206  0.00  0.00    +0.000 A 
ENDBRANCH  20  23
ENDBRANCH  18  20
ENDBRANCH   9  18
ENDBRANCH  15  17
BRANCH  12   8
ATOM      5  O   UNL     1      14.564  13.219  16.015  0.00  0.00    -0.270 OA
ATOM      8  N   UNL     1      14.752  10.912  15.862  0.00  0.00    -0.302 N 
ATOM     19  C   UNL     1      15.237  12.211  15.815  0.00  0.00    +0.248 C 
ATOM     36  H   UNL     1      15.344  10.136  15.584  0.00  0.00    +0.150 HD
BRANCH  19  21
ATOM     21  C   UNL     1      16.675  12.355  15.472  0.00  0.00    +0.078 A 
ATOM     24  C   UNL     1      17.112  12.047  14.199  0.00  0.00    +0.133 A 
ATOM     25  C   UNL     1      17.537  12.798  16.455  0.00  0.00    +0.018 A 
ATOM     28  C   UNL     1      18.466  12.187  13.897  0.00  0.00    +0.061 A 
ATOM     29  C   UNL     1      18.891  12.938  16.153  0.00  0.00    +0.015 A 
ATOM     30  C   UNL     1      19.356  12.633  14.874  0.00  0.00    +0.011 A 
BRANCH  30   1
ATOM      1  S   UNL     1      21.086  12.813  14.488  0.00  0.00    -0.128 S 
ATOM     35  C   UNL     1      21.688  11.113  14.688  0.00  0.00    +0.090 C 
ENDBRANCH  30   1
BRANCH  24   7
ATOM      7  O   UNL     1      16.257  11.610  13.231  0.00  0.00    -0.494 OA
ATOM     34  C   UNL     1      16.046  12.474  12.116  0.00  0.00    +0.277 C 
ENDBRANCH  24   7
ENDBRANCH  19  21
ENDBRANCH  12   8
BRANCH  11   2
ATOM      2  O   UNL     1      13.804   8.366  15.338  0.00  0.00    -0.387 OA
ATOM     37  H   UNL     1      14.606   8.677  14.886  0.00  0.00    +0.210 HD
ENDBRANCH  11   2
BRANCH  13   3
ATOM      3  O   UNL     1      10.494   9.895  15.644  0.00  0.00    -0.389 OA
ATOM     38  H   UNL     1      10.568  10.535  16.373  0.00  0.00    +0.210 HD
ENDBRANCH  13   3
TORSDOF 11
ENDMDL
MODEL 5
REMARK VINA RESULT:      -6.7      3.127      8.467
REMARK  Name = 11866303
REMARK  13 active torsions:
REMARK  status: ('A' for Active; 'I' for Inactive)
REMARK    1  A    between atoms: S_1  and  C_30
REMARK    2  A    between atoms: S_1  and  C_35
REMARK    3  A    between atoms: O_2  and  C_11
REMARK    4  A    between atoms: O_3  and  C_13
REMARK    5  A    between atoms: O_7  and  C_24
REMARK    6  A    between atoms: O_7  and  C_34
REMARK    7  A    between atoms: N_8  and  C_12
REMARK    8  A    between atoms: N_9  and  C_18
REMARK    9  A    between atoms: C_15  and  C_17
REMARK   10  A    between atoms: C_18  and  C_20
REMARK   11  A    between atoms: C_18  and  C_22
REMARK   12  A    between atoms: C_19  and  C_21
REMARK   13  A    between atoms: C_20  and  C_23
REMARK                            x       y       z     vdW  Elec       q    Type
REMARK                         _______ _______ _______ _____ _____    ______ ____
ROOT
ATOM     11  C   UNL     1      -3.944 -11.392  16.620  0.00  0.00    +0.167 C 
ATOM     12  C   UNL     1      -5.233 -11.835  15.901  0.00  0.00    +0.128 C 
ATOM     13  C   UNL     1      -4.060 -11.567  18.140  0.00  0.00    +0.149 C 
ATOM     14  C   UNL     1      -5.276 -10.821  18.717  0.00  0.00    +0.074 C 
ATOM     15  C   UNL     1      -6.491 -10.889  17.835  0.00  0.00    +0.015 C 
ATOM     16  C   UNL     1      -6.488 -11.349  16.575  0.00  0.00    +0.006 C 
ENDROOT
BRANCH  15  17
ATOM      4  O   UNL     1      -8.106 -10.746  19.536  0.00  0.00    -0.271 OA
ATOM      9  N   UNL     1      -8.513  -9.687  17.500  0.00  0.00    -0.300 N 
ATOM     17  C   UNL     1      -7.772 -10.445  18.391  0.00  0.00    +0.241 C 
ATOM     39  H   UNL     1      -8.100  -9.440  16.605  0.00  0.00    +0.150 HD
BRANCH   9  18
ATOM     18  C   UNL     1      -9.812  -9.139  17.819  0.00  0.00    +0.163 C 
BRANCH  18  22
ATOM      6  O   UNL     1     -10.814  -7.032  17.141  0.00  0.00    -0.274 OA
ATOM     10  N   UNL     1      -9.227  -7.981  15.779  0.00  0.00    -0.328 N 
ATOM     22  C   UNL     1     -10.034  -7.949  16.897  0.00  0.00    +0.231 C 
ATOM     40  H   UNL     1      -8.570  -8.735  15.602  0.00  0.00    +0.145 HD
ATOM     41  H   UNL     1      -9.265  -7.240  15.088  0.00  0.00    +0.145 HD
ENDBRANCH  18  22
BRANCH  18  20
ATOM     20  C   UNL     1     -10.936 -10.168  17.645  0.00  0.00    +0.067 C 
BRANCH  20  23
ATOM     23  C   UNL     1     -12.065  -9.956  18.626  0.00  0.00    -0.045 A 
ATOM     26  C   UNL     1     -13.347  -9.738  18.148  0.00  0.00    +0.004 A 
ATOM     27  C   UNL     1     -11.797  -9.983  19.984  0.00  0.00    +0.004 A 
ATOM     31  C   UNL     1     -14.389  -9.542  19.053  0.00  0.00    +0.000 A 
ATOM     32  C   UNL     1     -12.841  -9.787  20.891  0.00  0.00    +0.000 A 
ATOM     33  C   UNL     1     -14.137  -9.566  20.425  0.00  0.00    +0.000 A 
ENDBRANCH  20  23
ENDBRANCH  18  20
ENDBRANCH   9  18
ENDBRANCH  15  17
BRANCH  12   8
ATOM      5  O   UNL     1      -4.820 -13.484  13.587  0.00  0.00    -0.270 OA
ATOM      8  N   UNL     1      -5.249 -11.406  14.523  0.00  0.00    -0.302 N 
ATOM     19  C   UNL     1      -5.037 -12.281  13.468  0.00  0.00    +0.248 C 
ATOM     36  H   UNL     1      -5.318 -10.408  14.352  0.00  0.00    +0.150 HD
BRANCH  19  21
ATOM     21  C   UNL     1      -5.057 -11.678  12.111  0.00  0.00    +0.078 A 
ATOM     24  C   UNL     1      -4.121 -10.724  11.768  0.00  0.00    +0.133 A 
ATOM     25  C   UNL     1      -6.031 -12.100  11.227  0.00  0.00    +0.018 A 
ATOM     28  C   UNL     1      -4.158 -10.169  10.489  0.00  0.00    +0.061 A 
ATOM     29  C   UNL     1      -6.068 -11.544   9.948  0.00  0.00    +0.015 A 
ATOM     30  C   UNL     1      -5.132 -10.579   9.579  0.00  0.00    +0.011 A 
BRANCH  30   1
ATOM      1  S   UNL     1      -5.180  -9.870   7.945  0.00  0.00    -0.128 S 
ATOM     35  C   UNL     1      -4.890 -11.327   6.902  0.00  0.00    +0.090 C 
ENDBRANCH  30   1
BRANCH  24   7
ATOM      7  O   UNL     1      -3.161 -10.310  12.644  0.00  0.00    -0.494 OA
ATOM     34  C   UNL     1      -1.804 -10.435  12.224  0.00  0.00    +0.277 C 
ENDBRANCH  24   7
ENDBRANCH  19  21
ENDBRANCH  12   8
BRANCH  11   2
ATOM      2  O   UNL     1      -3.684 -10.016  16.334  0.00  0.00    -0.387 OA
ATOM     37  H   UNL     1      -4.319  -9.487  16.847  0.00  0.00    +0.210 HD
ENDBRANCH  11   2
BRANCH  13   3
ATOM      3  O   UNL     1      -4.134 -12.952  18.471  0.00  0.00    -0.389 OA
ATOM     38  H   UNL     1      -5.002 -13.278  18.175  0.00  0.00    +0.210 HD
ENDBRANCH  13   3
TORSDOF 11
ENDMDL
MODEL 6
REMARK VINA RESULT:      -6.4     26.315     30.582
REMARK  Name = 11866303
REMARK  13 active torsions:
REMARK  status: ('A' for Active; 'I' for Inactive)
REMARK    1  A    between atoms: S_1  and  C_30
REMARK    2  A    between atoms: S_1  and  C_35
REMARK    3  A    between atoms: O_2  and  C_11
REMARK    4  A    between atoms: O_3  and  C_13
REMARK    5  A    between atoms: O_7  and  C_24
REMARK    6  A    between atoms: O_7  and  C_34
REMARK    7  A    between atoms: N_8  and  C_12
REMARK    8  A    between atoms: N_9  and  C_18
REMARK    9  A    between atoms: C_15  and  C_17
REMARK   10  A    between atoms: C_18  and  C_20
REMARK   11  A    between atoms: C_18  and  C_22
REMARK   12  A    between atoms: C_19  and  C_21
REMARK   13  A    between atoms: C_20  and  C_23
REMARK                            x       y       z     vdW  Elec       q    Type
REMARK                         _______ _______ _______ _____ _____    ______ ____
ROOT
ATOM     11  C   UNL     1      14.876  10.204   5.535  0.00  0.00    +0.167 C 
ATOM     12  C   UNL     1      15.660   9.056   6.198  0.00  0.00    +0.128 C 
ATOM     13  C   UNL     1      13.570  10.498   6.284  0.00  0.00    +0.149 C 
ATOM     14  C   UNL     1      12.681   9.248   6.409  0.00  0.00    +0.074 C 
ATOM     15  C   UNL     1      13.457   7.988   6.671  0.00  0.00    +0.015 C 
ATOM     16  C   UNL     1      14.792   7.890   6.589  0.00  0.00    +0.006 C 
ENDROOT
BRANCH  15  17
ATOM      4  O   UNL     1      13.246   5.901   7.731  0.00  0.00    -0.271 OA
ATOM      9  N   UNL     1      11.406   6.791   6.610  0.00  0.00    -0.300 N 
ATOM     17  C   UNL     1      12.713   6.789   7.065  0.00  0.00    +0.241 C 
ATOM     39  H   UNL     1      11.054   7.616   6.132  0.00  0.00    +0.150 HD
BRANCH   9  18
ATOM     18  C   UNL     1      10.477   5.714   6.870  0.00  0.00    +0.163 C 
BRANCH  18  22
ATOM      6  O   UNL     1      10.321   5.265   9.253  0.00  0.00    -0.274 OA
ATOM     10  N   UNL     1       9.027   6.942   8.364  0.00  0.00    -0.328 N 
ATOM     22  C   UNL     1       9.943   5.915   8.281  0.00  0.00    +0.231 C 
ATOM     40  H   UNL     1       8.742   7.486   7.555  0.00  0.00    +0.145 HD
ATOM     41  H   UNL     1       8.603   7.191   9.252  0.00  0.00    +0.145 HD
ENDBRANCH  18  22
BRANCH  18  20
ATOM     20  C   UNL     1       9.323   5.685   5.860  0.00  0.00    +0.067 C 
BRANCH  20  23
ATOM     23  C   UNL     1       9.810   5.629   4.432  0.00  0.00    -0.045 A 
ATOM     26  C   UNL     1       9.526   6.681   3.576  0.00  0.00    +0.004 A 
ATOM     27  C   UNL     1      10.533   4.528   4.004  0.00  0.00    +0.004 A 
ATOM     31  C   UNL     1       9.976   6.630   2.258  0.00  0.00    +0.000 A 
ATOM     32  C   UNL     1      10.983   4.476   2.684  0.00  0.00    +0.000 A 
ATOM     33  C   UNL     1      10.705   5.528   1.811  0.00  0.00    +0.000 A 
ENDBRANCH  20  23
ENDBRANCH  18  20
ENDBRANCH   9  18
ENDBRANCH  15  17
BRANCH  12   8
ATOM      5  O   UNL     1      18.465   9.592   6.499  0.00  0.00    -0.270 OA
ATOM      8  N   UNL     1      16.725   8.579   5.348  0.00  0.00    -0.302 N 
ATOM     19  C   UNL     1      18.056   8.894   5.575  0.00  0.00    +0.248 C 
ATOM     36  H   UNL     1      16.455   8.082   4.506  0.00  0.00    +0.150 HD
BRANCH  19  21
ATOM     21  C   UNL     1      19.029   8.347   4.595  0.00  0.00    +0.078 A 
ATOM     24  C   UNL     1      18.799   8.496   3.242  0.00  0.00    +0.133 A 
ATOM     25  C   UNL     1      20.147   7.697   5.080  0.00  0.00    +0.018 A 
ATOM     28  C   UNL     1      19.722   7.974   2.337  0.00  0.00    +0.061 A 
ATOM     29  C   UNL     1      21.071   7.175   4.175  0.00  0.00    +0.015 A 
ATOM     30  C   UNL     1      20.859   7.313   2.804  0.00  0.00    +0.011 A 
BRANCH  30   1
ATOM      1  S   UNL     1      22.041   6.647   1.648  0.00  0.00    -0.128 S 
ATOM     35  C   UNL     1      21.579   7.501   0.115  0.00  0.00    +0.090 C 
ENDBRANCH  30   1
BRANCH  24   7
ATOM      7  O   UNL     1      17.694   9.138   2.766  0.00  0.00    -0.494 OA
ATOM     34  C   UNL     1      17.620   9.342   1.357  0.00  0.00    +0.277 C 
ENDBRANCH  24   7
ENDBRANCH  19  21
ENDBRANCH  12   8
BRANCH  11   2
ATOM      2  O   UNL     1      14.563   9.856   4.185  0.00  0.00    -0.387 OA
ATOM     37  H   UNL     1      15.160  10.362   3.608  0.00  0.00    +0.210 HD
ENDBRANCH  11   2
BRANCH  13   3
ATOM      3  O   UNL     1      13.853  11.027   7.577  0.00  0.00    -0.389 OA
ATOM     38  H   UNL     1      13.989  10.274   8.179  0.00  0.00    +0.210 HD
ENDBRANCH  13   3
TORSDOF 11
ENDMDL
MODEL 7
REMARK VINA RESULT:      -6.2     24.682     28.810
REMARK  Name = 11866303
REMARK  13 active torsions:
REMARK  status: ('A' for Active; 'I' for Inactive)
REMARK    1  A    between atoms: S_1  and  C_30
REMARK    2  A    between atoms: S_1  and  C_35
REMARK    3  A    between atoms: O_2  and  C_11
REMARK    4  A    between atoms: O_3  and  C_13
REMARK    5  A    between atoms: O_7  and  C_24
REMARK    6  A    between atoms: O_7  and  C_34
REMARK    7  A    between atoms: N_8  and  C_12
REMARK    8  A    between atoms: N_9  and  C_18
REMARK    9  A    between atoms: C_15  and  C_17
REMARK   10  A    between atoms: C_18  and  C_20
REMARK   11  A    between atoms: C_18  and  C_22
REMARK   12  A    between atoms: C_19  and  C_21
REMARK   13  A    between atoms: C_20  and  C_23
REMARK                            x       y       z     vdW  Elec       q    Type
REMARK                         _______ _______ _______ _____ _____    ______ ____
ROOT
ATOM     11  C   UNL     1      15.144   7.031   1.777  0.00  0.00    +0.167 C 
ATOM     12  C   UNL     1      14.129   5.879   1.905  0.00  0.00    +0.128 C 
ATOM     13  C   UNL     1      15.460   7.656   3.141  0.00  0.00    +0.149 C 
ATOM     14  C   UNL     1      14.190   8.143   3.862  0.00  0.00    +0.074 C 
ATOM     15  C   UNL     1      13.016   7.223   3.686  0.00  0.00    +0.015 C 
ATOM     16  C   UNL     1      12.978   6.199   2.819  0.00  0.00    +0.006 C 
ENDROOT
BRANCH  15  17
ATOM      4  O   UNL     1      11.952   7.680   5.731  0.00  0.00    -0.271 OA
ATOM      9  N   UNL     1      10.646   7.339   3.830  0.00  0.00    -0.300 N 
ATOM     17  C   UNL     1      11.837   7.440   4.530  0.00  0.00    +0.241 C 
ATOM     39  H   UNL     1      10.679   7.211   2.823  0.00  0.00    +0.150 HD
BRANCH   9  18
ATOM     18  C   UNL     1       9.351   7.511   4.448  0.00  0.00    +0.163 C 
BRANCH  18  22
ATOM      6  O   UNL     1       7.428   8.790   3.693  0.00  0.00    -0.274 OA
ATOM     10  N   UNL     1       8.913   8.011   2.123  0.00  0.00    -0.328 N 
ATOM     22  C   UNL     1       8.445   8.160   3.412  0.00  0.00    +0.231 C 
ATOM     40  H   UNL     1       9.767   7.506   1.909  0.00  0.00    +0.145 HD
ATOM     41  H   UNL     1       8.410   8.408   1.337  0.00  0.00    +0.145 HD
ENDBRANCH  18  22
BRANCH  18  20
ATOM     20  C   UNL     1       8.753   6.181   4.925  0.00  0.00    +0.067 C 
BRANCH  20  23
ATOM     23  C   UNL     1       9.060   5.902   6.377  0.00  0.00    -0.045 A 
ATOM     26  C   UNL     1       8.799   6.878   7.326  0.00  0.00    +0.004 A 
ATOM     27  C   UNL     1       9.597   4.676   6.733  0.00  0.00    +0.004 A 
ATOM     31  C   UNL     1       9.083   6.619   8.666  0.00  0.00    +0.000 A 
ATOM     32  C   UNL     1       9.881   4.418   8.075  0.00  0.00    +0.000 A 
ATOM     33  C   UNL     1       9.624   5.390   9.041  0.00  0.00    +0.000 A 
ENDBRANCH  20  23
ENDBRANCH  18  20
ENDBRANCH   9  18
ENDBRANCH  15  17
BRANCH  12   8
ATOM      5  O   UNL     1      13.386   3.225   1.099  0.00  0.00    -0.270 OA
ATOM      8  N   UNL     1      13.606   5.484   0.619  0.00  0.00    -0.302 N 
ATOM     19  C   UNL     1      13.275   4.170   0.322  0.00  0.00    +0.248 C 
ATOM     36  H   UNL     1      13.585   6.192  -0.107  0.00  0.00    +0.150 HD
BRANCH  19  21
ATOM     21  C   UNL     1      12.776   3.922  -1.055  0.00  0.00    +0.078 A 
ATOM     24  C   UNL     1      13.649   3.972  -2.122  0.00  0.00    +0.133 A 
ATOM     25  C   UNL     1      11.432   3.649  -1.220  0.00  0.00    +0.018 A 
ATOM     28  C   UNL     1      13.160   3.738  -3.408  0.00  0.00    +0.061 A 
ATOM     29  C   UNL     1      10.943   3.415  -2.505  0.00  0.00    +0.015 A 
ATOM     30  C   UNL     1      11.806   3.460  -3.599  0.00  0.00    +0.011 A 
BRANCH  30   1
ATOM      1  S   UNL     1      11.182   3.160  -5.241  0.00  0.00    -0.128 S 
ATOM     35  C   UNL     1      12.531   3.800  -6.272  0.00  0.00    +0.090 C 
ENDBRANCH  30   1
BRANCH  24   7
ATOM      7  O   UNL     1      14.975   4.242  -1.956  0.00  0.00    -0.494 OA
ATOM     34  C   UNL     1      15.506   5.348  -2.682  0.00  0.00    +0.277 C 
ENDBRANCH  24   7
ENDBRANCH  19  21
ENDBRANCH  12   8
BRANCH  11   2
ATOM      2  O   UNL     1      14.615   8.043   0.918  0.00  0.00    -0.387 OA
ATOM     37  H   UNL     1      13.770   7.715   0.566  0.00  0.00    +0.210 HD
ENDBRANCH  11   2
BRANCH  13   3
ATOM      3  O   UNL     1      16.160   6.722   3.959  0.00  0.00    -0.389 OA
ATOM     38  H   UNL     1      16.705   6.170   3.373  0.00  0.00    +0.210 HD
ENDBRANCH  13   3
TORSDOF 11
ENDMDL
MODEL 8
REMARK VINA RESULT:      -6.2     26.163     29.877
REMARK  Name = 11866303
REMARK  13 active torsions:
REMARK  status: ('A' for Active; 'I' for Inactive)
REMARK    1  A    between atoms: S_1  and  C_30
REMARK    2  A    between atoms: S_1  and  C_35
REMARK    3  A    between atoms: O_2  and  C_11
REMARK    4  A    between atoms: O_3  and  C_13
REMARK    5  A    between atoms: O_7  and  C_24
REMARK    6  A    between atoms: O_7  and  C_34
REMARK    7  A    between atoms: N_8  and  C_12
REMARK    8  A    between atoms: N_9  and  C_18
REMARK    9  A    between atoms: C_15  and  C_17
REMARK   10  A    between atoms: C_18  and  C_20
REMARK   11  A    between atoms: C_18  and  C_22
REMARK   12  A    between atoms: C_19  and  C_21
REMARK   13  A    between atoms: C_20  and  C_23
REMARK                            x       y       z     vdW  Elec       q    Type
REMARK                         _______ _______ _______ _____ _____    ______ ____
ROOT
ATOM     11  C   UNL     1      20.379  -9.352   1.743  0.00  0.00    +0.167 C 
ATOM     12  C   UNL     1      19.764  -9.542   0.343  0.00  0.00    +0.128 C 
ATOM     13  C   UNL     1      20.713 -10.698   2.397  0.00  0.00    +0.149 C 
ATOM     14  C   UNL     1      19.486 -11.624   2.475  0.00  0.00    +0.074 C 
ATOM     15  C   UNL     1      18.607 -11.551   1.259  0.00  0.00    +0.015 C 
ATOM     16  C   UNL     1      18.726 -10.630   0.291  0.00  0.00    +0.006 C 
ENDROOT
BRANCH  15  17
ATOM      4  O   UNL     1      16.460 -12.277   0.635  0.00  0.00    -0.271 OA
ATOM      9  N   UNL     1      17.960 -13.822   1.528  0.00  0.00    -0.300 N 
ATOM     17  C   UNL     1      17.561 -12.567   1.102  0.00  0.00    +0.241 C 
ATOM     39  H   UNL     1      18.922 -13.956   1.826  0.00  0.00    +0.150 HD
BRANCH   9  18
ATOM     18  C   UNL     1      17.101 -14.983   1.475  0.00  0.00    +0.163 C 
BRANCH  18  22
ATOM      6  O   UNL     1      18.723 -16.767   1.166  0.00  0.00    -0.274 OA
ATOM     10  N   UNL     1      17.390 -16.174  -0.609  0.00  0.00    -0.328 N 
ATOM     22  C   UNL     1      17.844 -16.053   0.688  0.00  0.00    +0.231 C 
ATOM     40  H   UNL     1      16.647 -15.592  -0.983  0.00  0.00    +0.145 HD
ATOM     41  H   UNL     1      17.791 -16.860  -1.239  0.00  0.00    +0.145 HD
ENDBRANCH  18  22
BRANCH  18  20
ATOM     20  C   UNL     1      16.738 -15.503   2.872  0.00  0.00    +0.067 C 
BRANCH  20  23
ATOM     23  C   UNL     1      16.334 -14.391   3.811  0.00  0.00    -0.045 A 
ATOM     26  C   UNL     1      17.185 -14.032   4.844  0.00  0.00    +0.004 A 
ATOM     27  C   UNL     1      15.120 -13.751   3.622  0.00  0.00    +0.004 A 
ATOM     31  C   UNL     1      16.811 -13.006   5.711  0.00  0.00    +0.000 A 
ATOM     32  C   UNL     1      14.747 -12.724   4.490  0.00  0.00    +0.000 A 
ATOM     33  C   UNL     1      15.593 -12.351   5.534  0.00  0.00    +0.000 A 
ENDBRANCH  20  23
ENDBRANCH  18  20
ENDBRANCH   9  18
ENDBRANCH  15  17
BRANCH  12   8
ATOM      5  O   UNL     1      20.337  -8.263  -2.163  0.00  0.00    -0.270 OA
ATOM      8  N   UNL     1      19.181  -8.318  -0.154  0.00  0.00    -0.302 N 
ATOM     19  C   UNL     1      19.524  -7.775  -1.383  0.00  0.00    +0.248 C 
ATOM     36  H   UNL     1      18.579  -7.804   0.481  0.00  0.00    +0.150 HD
BRANCH  19  21
ATOM     21  C   UNL     1      18.855  -6.497  -1.737  0.00  0.00    +0.078 A 
ATOM     24  C   UNL     1      19.263  -5.320  -1.143  0.00  0.00    +0.133 A 
ATOM     25  C   UNL     1      17.831  -6.534  -2.663  0.00  0.00    +0.018 A 
ATOM     28  C   UNL     1      18.621  -4.131  -1.488  0.00  0.00    +0.061 A 
ATOM     29  C   UNL     1      17.189  -5.345  -3.008  0.00  0.00    +0.015 A 
ATOM     30  C   UNL     1      17.584  -4.143  -2.421  0.00  0.00    +0.011 A 
BRANCH  30   1
ATOM      1  S   UNL     1      16.764  -2.624  -2.862  0.00  0.00    -0.128 S 
ATOM     35  C   UNL     1      17.326  -2.384  -4.571  0.00  0.00    +0.090 C 
ENDBRANCH  30   1
BRANCH  24   7
ATOM      7  O   UNL     1      20.275  -5.288  -0.230  0.00  0.00    -0.494 OA
ATOM     34  C   UNL     1      19.920  -4.993   1.119  0.00  0.00    +0.277 C 
ENDBRANCH  24   7
ENDBRANCH  19  21
ENDBRANCH  12   8
BRANCH  11   2
ATOM      2  O   UNL     1      19.458  -8.649   2.580  0.00  0.00    -0.387 OA
ATOM     37  H   UNL     1      19.823  -7.761   2.734  0.00  0.00    +0.210 HD
ENDBRANCH  11   2
BRANCH  13   3
ATOM      3  O   UNL     1      21.767 -11.342   1.686  0.00  0.00    -0.389 OA
ATOM     38  H   UNL     1      21.395 -11.678   0.852  0.00  0.00    +0.210 HD
ENDBRANCH  13   3
TORSDOF 11
ENDMDL
MODEL 9
REMARK VINA RESULT:      -6.2     23.772     26.359
REMARK  Name = 11866303
REMARK  13 active torsions:
REMARK  status: ('A' for Active; 'I' for Inactive)
REMARK    1  A    between atoms: S_1  and  C_30
REMARK    2  A    between atoms: S_1  and  C_35
REMARK    3  A    between atoms: O_2  and  C_11
REMARK    4  A    between atoms: O_3  and  C_13
REMARK    5  A    between atoms: O_7  and  C_24
REMARK    6  A    between atoms: O_7  and  C_34
REMARK    7  A    between atoms: N_8  and  C_12
REMARK    8  A    between atoms: N_9  and  C_18
REMARK    9  A    between atoms: C_15  and  C_17
REMARK   10  A    between atoms: C_18  and  C_20
REMARK   11  A    between atoms: C_18  and  C_22
REMARK   12  A    between atoms: C_19  and  C_21
REMARK   13  A    between atoms: C_20  and  C_23
REMARK                            x       y       z     vdW  Elec       q    Type
REMARK                         _______ _______ _______ _____ _____    ______ ____
ROOT
ATOM     11  C   UNL     1      15.873 -10.002  28.199  0.00  0.00    +0.167 C 
ATOM     12  C   UNL     1      15.383  -9.673  26.776  0.00  0.00    +0.128 C 
ATOM     13  C   UNL     1      16.072  -8.730  29.032  0.00  0.00    +0.149 C 
ATOM     14  C   UNL     1      17.033  -7.738  28.354  0.00  0.00    +0.074 C 
ATOM     15  C   UNL     1      16.861  -7.667  26.863  0.00  0.00    +0.015 C 
ATOM     16  C   UNL     1      16.118  -8.521  26.144  0.00  0.00    +0.006 C 
ENDROOT
BRANCH  15  17
ATOM      4  O   UNL     1      17.922  -5.574  26.733  0.00  0.00    -0.271 OA
ATOM      9  N   UNL     1      17.650  -6.825  24.786  0.00  0.00    -0.300 N 
ATOM     17  C   UNL     1      17.530  -6.579  26.143  0.00  0.00    +0.241 C 
ATOM     39  H   UNL     1      17.355  -7.727  24.423  0.00  0.00    +0.150 HD
BRANCH   9  18
ATOM     18  C   UNL     1      18.271  -5.898  23.868  0.00  0.00    +0.163 C 
BRANCH  18  22
ATOM      6  O   UNL     1      20.086  -7.450  23.415  0.00  0.00    -0.274 OA
ATOM     10  N   UNL     1      18.935  -6.558  21.639  0.00  0.00    -0.328 N 
ATOM     22  C   UNL     1      19.208  -6.707  22.982  0.00  0.00    +0.231 C 
ATOM     40  H   UNL     1      18.192  -5.957  21.296  0.00  0.00    +0.145 HD
ATOM     41  H   UNL     1      19.478  -7.053  20.939  0.00  0.00    +0.145 HD
ENDBRANCH  18  22
BRANCH  18  20
ATOM     20  C   UNL     1      17.242  -5.148  23.013  0.00  0.00    +0.067 C 
BRANCH  20  23
ATOM     23  C   UNL     1      17.175  -3.678  23.353  0.00  0.00    -0.045 A 
ATOM     26  C   UNL     1      17.734  -2.754  22.485  0.00  0.00    +0.004 A 
ATOM     27  C   UNL     1      16.556  -3.282  24.527  0.00  0.00    +0.004 A 
ATOM     31  C   UNL     1      17.672  -1.397  22.800  0.00  0.00    +0.000 A 
ATOM     32  C   UNL     1      16.495  -1.923  24.842  0.00  0.00    +0.000 A 
ATOM     33  C   UNL     1      17.052  -0.981  23.978  0.00  0.00    +0.000 A 
ENDBRANCH  20  23
ENDBRANCH  18  20
ENDBRANCH   9  18
ENDBRANCH  15  17
BRANCH  12   8
ATOM      5  O   UNL     1      13.550 -10.386  24.684  0.00  0.00    -0.270 OA
ATOM      8  N   UNL     1      15.475 -10.819  25.903  0.00  0.00    -0.302 N 
ATOM     19  C   UNL     1      14.535 -11.081  24.917  0.00  0.00    +0.248 C 
ATOM     36  H   UNL     1      16.206 -11.494  26.104  0.00  0.00    +0.150 HD
BRANCH  19  21
ATOM     21  C   UNL     1      14.758 -12.315  24.120  0.00  0.00    +0.078 A 
ATOM     24  C   UNL     1      14.530 -13.551  24.689  0.00  0.00    +0.133 A 
ATOM     25  C   UNL     1      15.194 -12.177  22.817  0.00  0.00    +0.018 A 
ATOM     28  C   UNL     1      14.746 -14.698  23.925  0.00  0.00    +0.061 A 
ATOM     29  C   UNL     1      15.410 -13.324  22.053  0.00  0.00    +0.015 A 
ATOM     30  C   UNL     1      15.187 -14.584  22.606  0.00  0.00    +0.011 A 
BRANCH  30   1
ATOM      1  S   UNL     1      15.462 -16.049  21.630  0.00  0.00    -0.128 S 
ATOM     35  C   UNL     1      13.788 -16.415  21.032  0.00  0.00    +0.090 C 
ENDBRANCH  30   1
BRANCH  24   7
ATOM      7  O   UNL     1      14.099 -13.683  25.976  0.00  0.00    -0.494 OA
ATOM     34  C   UNL     1      14.989 -14.312  26.895  0.00  0.00    +0.277 C 
ENDBRANCH  24   7
ENDBRANCH  19  21
ENDBRANCH  12   8
BRANCH  11   2
ATOM      2  O   UNL     1      17.116 -10.704  28.128  0.00  0.00    -0.387 OA
ATOM     37  H   UNL     1      16.977 -11.487  27.568  0.00  0.00    +0.210 HD
ENDBRANCH  11   2
BRANCH  13   3
ATOM      3  O   UNL     1      14.816  -8.103  29.279  0.00  0.00    -0.389 OA
ATOM     38  H   UNL     1      14.948  -7.142  29.202  0.00  0.00    +0.210 HD
ENDBRANCH  13   3
TORSDOF 11
ENDMDL
MODEL 10
REMARK VINA RESULT:      -6.2      3.257      8.372
REMARK  Name = 11866303
REMARK  13 active torsions:
REMARK  status: ('A' for Active; 'I' for Inactive)
REMARK    1  A    between atoms: S_1  and  C_30
REMARK    2  A    between atoms: S_1  and  C_35
REMARK    3  A    between atoms: O_2  and  C_11
REMARK    4  A    between atoms: O_3  and  C_13
REMARK    5  A    between atoms: O_7  and  C_24
REMARK    6  A    between atoms: O_7  and  C_34
REMARK    7  A    between atoms: N_8  and  C_12
REMARK    8  A    between atoms: N_9  and  C_18
REMARK    9  A    between atoms: C_15  and  C_17
REMARK   10  A    between atoms: C_18  and  C_20
REMARK   11  A    between atoms: C_18  and  C_22
REMARK   12  A    between atoms: C_19  and  C_21
REMARK   13  A    between atoms: C_20  and  C_23
REMARK                            x       y       z     vdW  Elec       q    Type
REMARK                         _______ _______ _______ _____ _____    ______ ____
ROOT
ATOM     11  C   UNL     1      -3.871 -11.410  17.033  0.00  0.00    +0.167 C 
ATOM     12  C   UNL     1      -5.128 -11.895  16.285  0.00  0.00    +0.128 C 
ATOM     13  C   UNL     1      -3.982 -11.664  18.541  0.00  0.00    +0.149 C 
ATOM     14  C   UNL     1      -5.243 -11.022  19.145  0.00  0.00    +0.074 C 
ATOM     15  C   UNL     1      -6.448 -11.121  18.253  0.00  0.00    +0.015 C 
ATOM     16  C   UNL     1      -6.412 -11.520  16.973  0.00  0.00    +0.006 C 
ENDROOT
BRANCH  15  17
ATOM      4  O   UNL     1      -7.997 -10.964  20.014  0.00  0.00    -0.271 OA
ATOM      9  N   UNL     1      -8.634 -10.266  17.883  0.00  0.00    -0.300 N 
ATOM     17  C   UNL     1      -7.757 -10.783  18.820  0.00  0.00    +0.241 C 
ATOM     39  H   UNL     1      -8.298 -10.092  16.940  0.00  0.00    +0.150 HD
BRANCH   9  18
ATOM     18  C   UNL     1      -9.984  -9.862  18.204  0.00  0.00    +0.163 C 
BRANCH  18  22
ATOM      6  O   UNL     1     -11.213  -8.853  16.365  0.00  0.00    -0.274 OA
ATOM     10  N   UNL     1      -9.669  -7.574  17.487  0.00  0.00    -0.328 N 
ATOM     22  C   UNL     1     -10.357  -8.744  17.241  0.00  0.00    +0.231 C 
ATOM     40  H   UNL     1      -8.980  -7.492  18.228  0.00  0.00    +0.145 HD
ATOM     41  H   UNL     1      -9.832  -6.746  16.925  0.00  0.00    +0.145 HD
ENDBRANCH  18  22
BRANCH  18  20
ATOM     20  C   UNL     1     -10.981 -11.021  18.090  0.00  0.00    +0.067 C 
BRANCH  20  23
ATOM     23  C   UNL     1     -11.883 -11.124  19.297  0.00  0.00    -0.045 A 
ATOM     26  C   UNL     1     -11.922 -12.308  20.016  0.00  0.00    +0.004 A 
ATOM     27  C   UNL     1     -12.654 -10.033  19.662  0.00  0.00    +0.004 A 
ATOM     31  C   UNL     1     -12.755 -12.402  21.131  0.00  0.00    +0.000 A 
ATOM     32  C   UNL     1     -13.488 -10.128  20.777  0.00  0.00    +0.000 A 
ATOM     33  C   UNL     1     -13.538 -11.313  21.512  0.00  0.00    +0.000 A 
ENDBRANCH  20  23
ENDBRANCH  18  20
ENDBRANCH   9  18
ENDBRANCH  15  17
BRANCH  12   8
ATOM      5  O   UNL     1      -3.669 -12.937  14.042  0.00  0.00    -0.270 OA
ATOM      8  N   UNL     1      -5.164 -11.402  14.929  0.00  0.00    -0.302 N 
ATOM     19  C   UNL     1      -4.419 -11.974  13.908  0.00  0.00    +0.248 C 
ATOM     36  H   UNL     1      -5.682 -10.545  14.764  0.00  0.00    +0.150 HD
BRANCH  19  21
ATOM     21  C   UNL     1      -4.547 -11.333  12.574  0.00  0.00    +0.078 A 
ATOM     24  C   UNL     1      -5.743 -11.402  11.890  0.00  0.00    +0.133 A 
ATOM     25  C   UNL     1      -3.444 -10.681  12.058  0.00  0.00    +0.018 A 
ATOM     28  C   UNL     1      -5.842 -10.796  10.638  0.00  0.00    +0.061 A 
ATOM     29  C   UNL     1      -3.543 -10.075  10.806  0.00  0.00    +0.015 A 
ATOM     30  C   UNL     1      -4.742 -10.132  10.095  0.00  0.00    +0.011 A 
BRANCH  30   1
ATOM      1  S   UNL     1      -4.869  -9.356   8.496  0.00  0.00    -0.128 S 
ATOM     35  C   UNL     1      -5.217 -10.777   7.423  0.00  0.00    +0.090 C 
ENDBRANCH  30   1
BRANCH  24   7
ATOM      7  O   UNL     1      -6.830 -12.046  12.403  0.00  0.00    -0.494 OA
ATOM     34  C   UNL     1      -8.005 -11.267  12.612  0.00  0.00    +0.277 C 
ENDBRANCH  24   7
ENDBRANCH  19  21
ENDBRANCH  12   8
BRANCH  11   2
ATOM      2  O   UNL     1      -3.695 -10.009  16.814  0.00  0.00    -0.387 OA
ATOM     37  H   UNL     1      -3.224  -9.902  15.970  0.00  0.00    +0.210 HD
ENDBRANCH  11   2
BRANCH  13   3
ATOM      3  O   UNL     1      -3.973 -13.065  18.805  0.00  0.00    -0.389 OA
ATOM     38  H   UNL     1      -4.330 -13.514  18.019  0.00  0.00    +0.210 HD
ENDBRANCH  13   3
TORSDOF 11
ENDMDL
