MODEL 1
REMARK VINA RESULT:      -7.1      0.000      0.000
REMARK  Name = 11883181
REMARK  10 active torsions:
REMARK  status: ('A' for Active; 'I' for Inactive)
REMARK    1  A    between atoms: O_3  and  C_14
REMARK    2  A    between atoms: O_4  and  C_19
REMARK    3  A    between atoms: O_6  and  C_32
REMARK    4  A    between atoms: N_8  and  C_26
REMARK    5  A    between atoms: C_9  and  C_17
REMARK    6  A    between atoms: C_11  and  C_19
REMARK    7  A    between atoms: C_11  and  C_20
REMARK    8  A    between atoms: C_12  and  C_22
REMARK    9  A    between atoms: C_22  and  C_23
REMARK   10  A    between atoms: C_24  and  C_25
REMARK                            x       y       z     vdW  Elec       q    Type
REMARK                         _______ _______ _______ _____ _____    ______ ____
ROOT
ATOM      1  S   UNL     1      18.016   6.184  20.046  0.00  0.00    -0.072 S 
ATOM      7  N   UNL     1      18.278   8.363  21.416  0.00  0.00    -0.243 NA
ATOM      9  C   UNL     1      14.804   9.434  20.129  0.00  0.00    -0.020 C 
ATOM     10  C   UNL     1      14.287   7.931  20.036  0.00  0.00    +0.011 C 
ATOM     11  C   UNL     1      12.856   7.702  19.415  0.00  0.00    +0.021 C 
ATOM     12  C   UNL     1      16.027   9.473  21.157  0.00  0.00    +0.053 C 
ATOM     13  C   UNL     1      13.671  10.335  20.684  0.00  0.00    +0.010 C 
ATOM     14  C   UNL     1      11.857   8.714  20.045  0.00  0.00    +0.123 C 
ATOM     15  C   UNL     1      15.381   6.989  19.454  0.00  0.00    +0.049 C 
ATOM     16  C   UNL     1      12.337  10.159  19.971  0.00  0.00    +0.032 C 
ATOM     17  C   UNL     1      15.263   9.997  18.761  0.00  0.00    +0.012 C 
ATOM     18  C   UNL     1      17.003   8.358  20.880  0.00  0.00    +0.056 A 
ATOM     20  C   UNL     1      12.365   6.275  19.786  0.00  0.00    +0.016 C 
ATOM     21  C   UNL     1      16.686   7.244  20.129  0.00  0.00    +0.014 A 
ATOM     24  C   UNL     1      18.905   7.270  21.036  0.00  0.00    +0.109 A 
ENDROOT
BRANCH  24  25
ATOM      2  S   UNL     1      22.316   6.343  22.888  0.00  0.00    -0.104 S 
ATOM     25  C   UNL     1      20.299   6.990  21.443  0.00  0.00    +0.014 A 
ATOM     27  C   UNL     1      21.435   7.094  20.595  0.00  0.00    +0.018 A 
ATOM     28  C   UNL     1      20.631   6.592  22.716  0.00  0.00    +0.055 A 
ATOM     29  C   UNL     1      22.600   6.771  21.254  0.00  0.00    +0.046 A 
ENDBRANCH  24  25
BRANCH  14   3
ATOM      3  O   UNL     1      10.581   8.621  19.412  0.00  0.00    -0.391 OA
ATOM     35  H   UNL     1       9.907   8.528  20.105  0.00  0.00    +0.210 HD
ENDBRANCH  14   3
BRANCH  11  19
ATOM     19  C   UNL     1      12.809   7.770  17.872  0.00  0.00    +0.165 C 
BRANCH  19   4
ATOM      4  O   UNL     1      11.703   7.010  17.441  0.00  0.00    -0.394 OA
ATOM     36  H   UNL     1      10.956   7.616  17.303  0.00  0.00    +0.209 HD
ENDBRANCH  19   4
ENDBRANCH  11  19
BRANCH  12  22
ATOM     22  C   UNL     1      16.738  10.830  21.251  0.00  0.00    +0.106 C 
BRANCH  22  23
ATOM      5  O   UNL     1      15.606  12.896  21.750  0.00  0.00    -0.275 OA
ATOM      8  N   UNL     1      15.851  11.262  23.419  0.00  0.00    -0.285 N 
ATOM     23  C   UNL     1      15.997  11.803  22.146  0.00  0.00    +0.218 C 
ATOM     37  H   UNL     1      16.244  10.339  23.591  0.00  0.00    +0.155 HD
BRANCH   8  26
ATOM     26  C   UNL     1      15.219  11.852  24.540  0.00  0.00    +0.037 A 
ATOM     30  C   UNL     1      13.839  11.810  24.640  0.00  0.00    +0.068 A 
ATOM     31  C   UNL     1      15.996  12.460  25.512  0.00  0.00    +0.023 A 
ATOM     32  C   UNL     1      13.217  12.390  25.745  0.00  0.00    +0.119 A 
ATOM     33  C   UNL     1      15.373  13.042  26.617  0.00  0.00    +0.005 A 
ATOM     34  C   UNL     1      13.984  13.007  26.733  0.00  0.00    +0.045 A 
BRANCH  32   6
ATOM      6  O   UNL     1      11.861  12.356  25.858  0.00  0.00    -0.507 OA
ATOM     38  H   UNL     1      11.501  11.776  25.165  0.00  0.00    +0.292 HD
ENDBRANCH  32   6
ENDBRANCH   8  26
ENDBRANCH  22  23
ENDBRANCH  12  22
TORSDOF 8
ENDMDL
MODEL 2
REMARK VINA RESULT:      -6.9     15.725     18.331
REMARK  Name = 11883181
REMARK  10 active torsions:
REMARK  status: ('A' for Active; 'I' for Inactive)
REMARK    1  A    between atoms: O_3  and  C_14
REMARK    2  A    between atoms: O_4  and  C_19
REMARK    3  A    between atoms: O_6  and  C_32
REMARK    4  A    between atoms: N_8  and  C_26
REMARK    5  A    between atoms: C_9  and  C_17
REMARK    6  A    between atoms: C_11  and  C_19
REMARK    7  A    between atoms: C_11  and  C_20
REMARK    8  A    between atoms: C_12  and  C_22
REMARK    9  A    between atoms: C_22  and  C_23
REMARK   10  A    between atoms: C_24  and  C_25
REMARK                            x       y       z     vdW  Elec       q    Type
REMARK                         _______ _______ _______ _____ _____    ______ ____
ROOT
ATOM      1  S   UNL     1      12.776   5.537   1.263  0.00  0.00    -0.072 S 
ATOM      7  N   UNL     1      14.786   6.568   2.523  0.00  0.00    -0.243 NA
ATOM      9  C   UNL     1      12.284   7.976   5.097  0.00  0.00    -0.020 C 
ATOM     10  C   UNL     1      11.273   6.762   4.896  0.00  0.00    +0.011 C 
ATOM     11  C   UNL     1       9.896   6.843   5.660  0.00  0.00    +0.021 C 
ATOM     12  C   UNL     1      13.731   7.497   4.618  0.00  0.00    +0.053 C 
ATOM     13  C   UNL     1      12.363   8.337   6.603  0.00  0.00    +0.010 C 
ATOM     14  C   UNL     1      10.153   7.260   7.136  0.00  0.00    +0.123 C 
ATOM     15  C   UNL     1      11.135   6.381   3.393  0.00  0.00    +0.049 C 
ATOM     16  C   UNL     1      11.004   8.518   7.266  0.00  0.00    +0.032 C 
ATOM     17  C   UNL     1      11.871   9.240   4.303  0.00  0.00    +0.012 C 
ATOM     18  C   UNL     1      13.656   6.793   3.287  0.00  0.00    +0.056 A 
ATOM     20  C   UNL     1       9.246   5.431   5.685  0.00  0.00    +0.016 C 
ATOM     21  C   UNL     1      12.484   6.284   2.765  0.00  0.00    +0.014 A 
ATOM     24  C   UNL     1      14.441   5.921   1.431  0.00  0.00    +0.109 A 
ENDROOT
BRANCH  24  25
ATOM      2  S   UNL     1      17.343   5.715  -1.301  0.00  0.00    -0.104 S 
ATOM     25  C   UNL     1      15.435   5.541   0.402  0.00  0.00    +0.014 A 
ATOM     27  C   UNL     1      15.593   4.237  -0.140  0.00  0.00    +0.018 A 
ATOM     28  C   UNL     1      16.320   6.444  -0.138  0.00  0.00    +0.055 A 
ATOM     29  C   UNL     1      16.599   4.189  -1.080  0.00  0.00    +0.046 A 
ENDBRANCH  24  25
BRANCH  14   3
ATOM      3  O   UNL     1       8.918   7.468   7.822  0.00  0.00    -0.391 OA
ATOM     35  H   UNL     1       9.024   7.154   8.734  0.00  0.00    +0.210 HD
ENDBRANCH  14   3
BRANCH  11  19
ATOM     19  C   UNL     1       8.851   7.770   5.000  0.00  0.00    +0.165 C 
BRANCH  19   4
ATOM      4  O   UNL     1       7.572   7.250   5.285  0.00  0.00    -0.394 OA
ATOM     36  H   UNL     1       7.229   7.707   6.072  0.00  0.00    +0.209 HD
ENDBRANCH  19   4
ENDBRANCH  11  19
BRANCH  12  22
ATOM     22  C   UNL     1      14.798   8.600   4.610  0.00  0.00    +0.106 C 
BRANCH  22  23
ATOM      5  O   UNL     1      15.895   7.804   6.601  0.00  0.00    -0.275 OA
ATOM      8  N   UNL     1      17.173   8.481   4.750  0.00  0.00    -0.285 N 
ATOM     23  C   UNL     1      16.000   8.240   5.459  0.00  0.00    +0.218 C 
ATOM     37  H   UNL     1      17.089   8.856   3.807  0.00  0.00    +0.155 HD
BRANCH   8  26
ATOM     26  C   UNL     1      18.503   8.275   5.188  0.00  0.00    +0.037 A 
ATOM     30  C   UNL     1      18.871   8.686   6.457  0.00  0.00    +0.068 A 
ATOM     31  C   UNL     1      19.409   7.666   4.335  0.00  0.00    +0.023 A 
ATOM     32  C   UNL     1      20.181   8.483   6.888  0.00  0.00    +0.119 A 
ATOM     33  C   UNL     1      20.720   7.464   4.766  0.00  0.00    +0.005 A 
ATOM     34  C   UNL     1      21.107   7.872   6.042  0.00  0.00    +0.045 A 
BRANCH  32   6
ATOM      6  O   UNL     1      20.558   8.881   8.134  0.00  0.00    -0.507 OA
ATOM     38  H   UNL     1      20.207   8.250   8.786  0.00  0.00    +0.292 HD
ENDBRANCH  32   6
ENDBRANCH   8  26
ENDBRANCH  22  23
ENDBRANCH  12  22
TORSDOF 8
ENDMDL
MODEL 3
REMARK VINA RESULT:      -6.8     30.267     32.855
REMARK  Name = 11883181
REMARK  10 active torsions:
REMARK  status: ('A' for Active; 'I' for Inactive)
REMARK    1  A    between atoms: O_3  and  C_14
REMARK    2  A    between atoms: O_4  and  C_19
REMARK    3  A    between atoms: O_6  and  C_32
REMARK    4  A    between atoms: N_8  and  C_26
REMARK    5  A    between atoms: C_9  and  C_17
REMARK    6  A    between atoms: C_11  and  C_19
REMARK    7  A    between atoms: C_11  and  C_20
REMARK    8  A    between atoms: C_12  and  C_22
REMARK    9  A    between atoms: C_22  and  C_23
REMARK   10  A    between atoms: C_24  and  C_25
REMARK                            x       y       z     vdW  Elec       q    Type
REMARK                         _______ _______ _______ _____ _____    ______ ____
ROOT
ATOM      1  S   UNL     1     -10.187 -12.587  20.224  0.00  0.00    -0.072 S 
ATOM      7  N   UNL     1     -10.732 -10.502  18.794  0.00  0.00    -0.243 NA
ATOM      9  C   UNL     1      -7.128 -10.655  17.430  0.00  0.00    -0.020 C 
ATOM     10  C   UNL     1      -7.060 -12.240  17.567  0.00  0.00    +0.011 C 
ATOM     11  C   UNL     1      -5.679 -12.928  17.241  0.00  0.00    +0.021 C 
ATOM     12  C   UNL     1      -8.668 -10.231  17.369  0.00  0.00    +0.053 C 
ATOM     13  C   UNL     1      -6.450 -10.222  16.106  0.00  0.00    +0.010 C 
ATOM     14  C   UNL     1      -5.120 -12.348  15.912  0.00  0.00    +0.123 C 
ATOM     15  C   UNL     1      -7.704 -12.724  18.899  0.00  0.00    +0.049 C 
ATOM     16  C   UNL     1      -5.068 -10.824  15.895  0.00  0.00    +0.032 C 
ATOM     17  C   UNL     1      -6.439  -9.920  18.606  0.00  0.00    +0.012 C 
ATOM     18  C   UNL     1      -9.466 -10.929  18.441  0.00  0.00    +0.056 A 
ATOM     20  C   UNL     1      -5.911 -14.449  17.021  0.00  0.00    +0.016 C 
ATOM     21  C   UNL     1      -9.022 -12.057  19.101  0.00  0.00    +0.014 A 
ATOM     24  C   UNL     1     -11.205 -11.295  19.731  0.00  0.00    +0.109 A 
ENDROOT
BRANCH  24  25
ATOM      2  S   UNL     1     -14.708 -11.529  21.630  0.00  0.00    -0.104 S 
ATOM     25  C   UNL     1     -12.545 -11.090  20.325  0.00  0.00    +0.014 A 
ATOM     27  C   UNL     1     -13.326  -9.909  20.194  0.00  0.00    +0.018 A 
ATOM     28  C   UNL     1     -13.173 -12.052  21.079  0.00  0.00    +0.055 A 
ATOM     29  C   UNL     1     -14.528 -10.012  20.856  0.00  0.00    +0.046 A 
ENDBRANCH  24  25
BRANCH  14   3
ATOM      3  O   UNL     1      -3.810 -12.855  15.654  0.00  0.00    -0.391 OA
ATOM     35  H   UNL     1      -3.801 -13.797  15.886  0.00  0.00    +0.210 HD
ENDBRANCH  14   3
BRANCH  11  19
ATOM     19  C   UNL     1      -4.631 -12.827  18.371  0.00  0.00    +0.165 C 
BRANCH  19   4
ATOM      4  O   UNL     1      -4.027 -14.092  18.514  0.00  0.00    -0.394 OA
ATOM     36  H   UNL     1      -4.704 -14.715  18.828  0.00  0.00    +0.209 HD
ENDBRANCH  19   4
ENDBRANCH  11  19
BRANCH  12  22
ATOM     22  C   UNL     1      -8.914  -8.716  17.384  0.00  0.00    +0.106 C 
BRANCH  22  23
ATOM      5  O   UNL     1      -9.455  -8.583  15.040  0.00  0.00    -0.275 OA
ATOM      8  N   UNL     1     -10.776  -7.446  16.614  0.00  0.00    -0.285 N 
ATOM     23  C   UNL     1      -9.728  -8.257  16.191  0.00  0.00    +0.218 C 
ATOM     37  H   UNL     1     -10.861  -7.262  17.612  0.00  0.00    +0.155 HD
BRANCH   8  26
ATOM     26  C   UNL     1     -11.760  -6.820  15.813  0.00  0.00    +0.037 A 
ATOM     30  C   UNL     1     -11.382  -5.823  14.930  0.00  0.00    +0.068 A 
ATOM     31  C   UNL     1     -13.081  -7.218  15.929  0.00  0.00    +0.023 A 
ATOM     32  C   UNL     1     -12.352  -5.206  14.140  0.00  0.00    +0.119 A 
ATOM     33  C   UNL     1     -14.052  -6.601  15.140  0.00  0.00    +0.005 A 
ATOM     34  C   UNL     1     -13.687  -5.595  14.245  0.00  0.00    +0.045 A 
BRANCH  32   6
ATOM      6  O   UNL     1     -11.995  -4.225  13.267  0.00  0.00    -0.507 OA
ATOM     38  H   UNL     1     -11.160  -4.475  12.836  0.00  0.00    +0.292 HD
ENDBRANCH  32   6
ENDBRANCH   8  26
ENDBRANCH  22  23
ENDBRANCH  12  22
TORSDOF 8
ENDMDL
MODEL 4
REMARK VINA RESULT:      -6.4     28.962     31.394
REMARK  Name = 11883181
REMARK  10 active torsions:
REMARK  status: ('A' for Active; 'I' for Inactive)
REMARK    1  A    between atoms: O_3  and  C_14
REMARK    2  A    between atoms: O_4  and  C_19
REMARK    3  A    between atoms: O_6  and  C_32
REMARK    4  A    between atoms: N_8  and  C_26
REMARK    5  A    between atoms: C_9  and  C_17
REMARK    6  A    between atoms: C_11  and  C_19
REMARK    7  A    between atoms: C_11  and  C_20
REMARK    8  A    between atoms: C_12  and  C_22
REMARK    9  A    between atoms: C_22  and  C_23
REMARK   10  A    between atoms: C_24  and  C_25
REMARK                            x       y       z     vdW  Elec       q    Type
REMARK                         _______ _______ _______ _____ _____    ______ ____
ROOT
ATOM      1  S   UNL     1      -7.827 -10.099  12.825  0.00  0.00    -0.072 S 
ATOM      7  N   UNL     1      -5.321 -10.738  12.741  0.00  0.00    -0.243 NA
ATOM      9  C   UNL     1      -5.382 -10.956  16.591  0.00  0.00    -0.020 C 
ATOM     10  C   UNL     1      -6.908 -11.408  16.620  0.00  0.00    +0.011 C 
ATOM     11  C   UNL     1      -7.585 -11.553  18.037  0.00  0.00    +0.021 C 
ATOM     12  C   UNL     1      -4.794 -11.296  15.144  0.00  0.00    +0.053 C 
ATOM     13  C   UNL     1      -4.584 -11.765  17.645  0.00  0.00    +0.010 C 
ATOM     14  C   UNL     1      -6.636 -12.346  18.979  0.00  0.00    +0.123 C 
ATOM     15  C   UNL     1      -7.760 -10.601  15.597  0.00  0.00    +0.049 C 
ATOM     16  C   UNL     1      -5.223 -11.776  19.027  0.00  0.00    +0.032 C 
ATOM     17  C   UNL     1      -5.197  -9.445  16.879  0.00  0.00    +0.012 C 
ATOM     18  C   UNL     1      -5.734 -10.843  14.057  0.00  0.00    +0.056 A 
ATOM     20  C   UNL     1      -8.892 -12.383  17.891  0.00  0.00    +0.016 C 
ATOM     21  C   UNL     1      -7.065 -10.554  14.279  0.00  0.00    +0.014 A 
ATOM     24  C   UNL     1      -6.338 -10.346  12.005  0.00  0.00    +0.109 A 
ENDROOT
BRANCH  24  25
ATOM      2  S   UNL     1      -5.156  -9.826   8.228  0.00  0.00    -0.104 S 
ATOM     25  C   UNL     1      -6.209 -10.133  10.546  0.00  0.00    +0.014 A 
ATOM     27  C   UNL     1      -7.295  -9.953   9.646  0.00  0.00    +0.018 A 
ATOM     28  C   UNL     1      -4.990 -10.086   9.913  0.00  0.00    +0.055 A 
ATOM     29  C   UNL     1      -6.864  -9.776   8.350  0.00  0.00    +0.046 A 
ENDBRANCH  24  25
BRANCH  14   3
ATOM      3  O   UNL     1      -7.161 -12.384  20.306  0.00  0.00    -0.391 OA
ATOM     35  H   UNL     1      -6.423 -12.267  20.925  0.00  0.00    +0.210 HD
ENDBRANCH  14   3
BRANCH  11  19
ATOM     19  C   UNL     1      -8.012 -10.216  18.683  0.00  0.00    +0.165 C 
BRANCH  19   4
ATOM      4  O   UNL     1      -8.974 -10.503  19.672  0.00  0.00    -0.394 OA
ATOM     36  H   UNL     1      -9.057 -11.469  19.740  0.00  0.00    +0.209 HD
ENDBRANCH  19   4
ENDBRANCH  11  19
BRANCH  12  22
ATOM     22  C   UNL     1      -3.367 -10.788  14.900  0.00  0.00    +0.106 C 
BRANCH  22  23
ATOM      5  O   UNL     1      -1.170 -11.775  14.956  0.00  0.00    -0.275 OA
ATOM      8  N   UNL     1      -3.031 -13.089  14.385  0.00  0.00    -0.285 N 
ATOM     23  C   UNL     1      -2.372 -11.922  14.758  0.00  0.00    +0.218 C 
ATOM     37  H   UNL     1      -4.039 -13.043  14.251  0.00  0.00    +0.155 HD
BRANCH   8  26
ATOM     26  C   UNL     1      -2.462 -14.364  14.152  0.00  0.00    +0.037 A 
ATOM     30  C   UNL     1      -1.505 -14.509  13.162  0.00  0.00    +0.068 A 
ATOM     31  C   UNL     1      -2.876 -15.440  14.920  0.00  0.00    +0.023 A 
ATOM     32  C   UNL     1      -0.945 -15.766  12.933  0.00  0.00    +0.119 A 
ATOM     33  C   UNL     1      -2.316 -16.697  14.691  0.00  0.00    +0.005 A 
ATOM     34  C   UNL     1      -1.351 -16.860  13.697  0.00  0.00    +0.045 A 
BRANCH  32   6
ATOM      6  O   UNL     1      -0.003 -15.925  11.964  0.00  0.00    -0.507 OA
ATOM     38  H   UNL     1       0.876 -15.944  12.379  0.00  0.00    +0.292 HD
ENDBRANCH  32   6
ENDBRANCH   8  26
ENDBRANCH  22  23
ENDBRANCH  12  22
TORSDOF 8
ENDMDL
MODEL 5
REMARK VINA RESULT:      -6.4     15.749     19.459
REMARK  Name = 11883181
REMARK  10 active torsions:
REMARK  status: ('A' for Active; 'I' for Inactive)
REMARK    1  A    between atoms: O_3  and  C_14
REMARK    2  A    between atoms: O_4  and  C_19
REMARK    3  A    between atoms: O_6  and  C_32
REMARK    4  A    between atoms: N_8  and  C_26
REMARK    5  A    between atoms: C_9  and  C_17
REMARK    6  A    between atoms: C_11  and  C_19
REMARK    7  A    between atoms: C_11  and  C_20
REMARK    8  A    between atoms: C_12  and  C_22
REMARK    9  A    between atoms: C_22  and  C_23
REMARK   10  A    between atoms: C_24  and  C_25
REMARK                            x       y       z     vdW  Elec       q    Type
REMARK                         _______ _______ _______ _____ _____    ______ ____
ROOT
ATOM      1  S   UNL     1      15.507   7.918   2.406  0.00  0.00    -0.072 S 
ATOM      7  N   UNL     1      13.324   8.344   3.728  0.00  0.00    -0.243 NA
ATOM      9  C   UNL     1      11.409   6.591   0.876  0.00  0.00    -0.020 C 
ATOM     10  C   UNL     1      12.636   5.636   0.533  0.00  0.00    +0.011 C 
ATOM     11  C   UNL     1      12.481   4.695  -0.722  0.00  0.00    +0.021 C 
ATOM     12  C   UNL     1      11.589   7.105   2.379  0.00  0.00    +0.053 C 
ATOM     13  C   UNL     1      10.088   5.785   0.792  0.00  0.00    +0.010 C 
ATOM     14  C   UNL     1      11.089   4.003  -0.674  0.00  0.00    +0.123 C 
ATOM     15  C   UNL     1      13.987   6.408   0.575  0.00  0.00    +0.049 C 
ATOM     16  C   UNL     1       9.936   4.984  -0.494  0.00  0.00    +0.032 C 
ATOM     17  C   UNL     1      11.311   7.809  -0.075  0.00  0.00    +0.012 C 
ATOM     18  C   UNL     1      13.000   7.575   2.626  0.00  0.00    +0.056 A 
ATOM     20  C   UNL     1      13.557   3.575  -0.652  0.00  0.00    +0.016 C 
ATOM     21  C   UNL     1      14.064   7.235   1.814  0.00  0.00    +0.014 A 
ATOM     24  C   UNL     1      14.616   8.592   3.711  0.00  0.00    +0.109 A 
ENDROOT
BRANCH  24  25
ATOM      2  S   UNL     1      17.083  10.626   6.099  0.00  0.00    -0.104 S 
ATOM     25  C   UNL     1      15.269   9.405   4.761  0.00  0.00    +0.014 A 
ATOM     27  C   UNL     1      14.603  10.002   5.865  0.00  0.00    +0.018 A 
ATOM     28  C   UNL     1      16.619   9.662   4.762  0.00  0.00    +0.055 A 
ATOM     29  C   UNL     1      15.472  10.698   6.675  0.00  0.00    +0.046 A 
ENDBRANCH  24  25
BRANCH  14   3
ATOM      3  O   UNL     1      10.864   3.243  -1.862  0.00  0.00    -0.391 OA
ATOM     35  H   UNL     1      10.008   3.511  -2.233  0.00  0.00    +0.210 HD
ENDBRANCH  14   3
BRANCH  11  19
ATOM     19  C   UNL     1      12.701   5.397  -2.081  0.00  0.00    +0.165 C 
BRANCH  19   4
ATOM      4  O   UNL     1      13.331   4.478  -2.944  0.00  0.00    -0.394 OA
ATOM     36  H   UNL     1      13.676   4.971  -3.708  0.00  0.00    +0.209 HD
ENDBRANCH  19   4
ENDBRANCH  11  19
BRANCH  12  22
ATOM     22  C   UNL     1      10.563   8.157   2.821  0.00  0.00    +0.106 C 
BRANCH  22  23
ATOM      5  O   UNL     1       8.467   7.587   3.863  0.00  0.00    -0.275 OA
ATOM      8  N   UNL     1      10.476   7.328   5.053  0.00  0.00    -0.285 N 
ATOM     23  C   UNL     1       9.688   7.662   3.955  0.00  0.00    +0.218 C 
ATOM     37  H   UNL     1      11.482   7.457   4.972  0.00  0.00    +0.155 HD
BRANCH   8  26
ATOM     26  C   UNL     1      10.044   6.828   6.304  0.00  0.00    +0.037 A 
ATOM     30  C   UNL     1      10.386   5.539   6.674  0.00  0.00    +0.068 A 
ATOM     31  C   UNL     1       9.287   7.640   7.133  0.00  0.00    +0.023 A 
ATOM     32  C   UNL     1       9.961   5.047   7.908  0.00  0.00    +0.119 A 
ATOM     33  C   UNL     1       8.861   7.148   8.366  0.00  0.00    +0.005 A 
ATOM     34  C   UNL     1       9.198   5.851   8.754  0.00  0.00    +0.045 A 
BRANCH  32   6
ATOM      6  O   UNL     1      10.290   3.781   8.286  0.00  0.00    -0.507 OA
ATOM     38  H   UNL     1      10.206   3.191   7.518  0.00  0.00    +0.292 HD
ENDBRANCH  32   6
ENDBRANCH   8  26
ENDBRANCH  22  23
ENDBRANCH  12  22
TORSDOF 8
ENDMDL
MODEL 6
REMARK VINA RESULT:      -6.4     24.937     29.018
REMARK  Name = 11883181
REMARK  10 active torsions:
REMARK  status: ('A' for Active; 'I' for Inactive)
REMARK    1  A    between atoms: O_3  and  C_14
REMARK    2  A    between atoms: O_4  and  C_19
REMARK    3  A    between atoms: O_6  and  C_32
REMARK    4  A    between atoms: N_8  and  C_26
REMARK    5  A    between atoms: C_9  and  C_17
REMARK    6  A    between atoms: C_11  and  C_19
REMARK    7  A    between atoms: C_11  and  C_20
REMARK    8  A    between atoms: C_12  and  C_22
REMARK    9  A    between atoms: C_22  and  C_23
REMARK   10  A    between atoms: C_24  and  C_25
REMARK                            x       y       z     vdW  Elec       q    Type
REMARK                         _______ _______ _______ _____ _____    ______ ____
ROOT
ATOM      1  S   UNL     1      -5.808   7.892  42.524  0.00  0.00    -0.072 S 
ATOM      7  N   UNL     1      -7.049   8.836  40.459  0.00  0.00    -0.243 NA
ATOM      9  C   UNL     1      -3.652   8.961  38.639  0.00  0.00    -0.020 C 
ATOM     10  C   UNL     1      -3.088   7.706  39.439  0.00  0.00    +0.011 C 
ATOM     11  C   UNL     1      -1.580   7.316  39.190  0.00  0.00    +0.021 C 
ATOM     12  C   UNL     1      -5.248   8.904  38.694  0.00  0.00    +0.053 C 
ATOM     13  C   UNL     1      -3.211   8.867  37.155  0.00  0.00    +0.010 C 
ATOM     14  C   UNL     1      -1.298   7.315  37.661  0.00  0.00    +0.123 C 
ATOM     15  C   UNL     1      -3.478   7.769  40.945  0.00  0.00    +0.049 C 
ATOM     16  C   UNL     1      -1.723   8.605  36.969  0.00  0.00    +0.032 C 
ATOM     17  C   UNL     1      -3.165  10.312  39.218  0.00  0.00    +0.012 C 
ATOM     18  C   UNL     1      -5.732   8.625  40.094  0.00  0.00    +0.056 A 
ATOM     20  C   UNL     1      -1.338   5.870  39.706  0.00  0.00    +0.016 C 
ATOM     21  C   UNL     1      -4.926   8.098  41.083  0.00  0.00    +0.014 A 
ATOM     24  C   UNL     1      -7.202   8.492  41.720  0.00  0.00    +0.109 A 
ENDROOT
BRANCH  24  25
ATOM      2  S   UNL     1     -10.354   9.482  43.959  0.00  0.00    -0.104 S 
ATOM     25  C   UNL     1      -8.506   8.613  42.409  0.00  0.00    +0.014 A 
ATOM     27  C   UNL     1      -9.621   7.753  42.207  0.00  0.00    +0.018 A 
ATOM     28  C   UNL     1      -8.764   9.597  43.334  0.00  0.00    +0.055 A 
ATOM     29  C   UNL     1     -10.696   8.113  42.989  0.00  0.00    +0.046 A 
ENDBRANCH  24  25
BRANCH  14   3
ATOM      3  O   UNL     1       0.089   7.092  37.405  0.00  0.00    -0.391 OA
ATOM     35  H   UNL     1       0.422   7.839  36.882  0.00  0.00    +0.210 HD
ENDBRANCH  14   3
BRANCH  11  19
ATOM     19  C   UNL     1      -0.558   8.201  39.937  0.00  0.00    +0.165 C 
BRANCH  19   4
ATOM      4  O   UNL     1       0.644   7.472  40.048  0.00  0.00    -0.394 OA
ATOM     36  H   UNL     1       0.610   6.957  40.871  0.00  0.00    +0.209 HD
ENDBRANCH  19   4
ENDBRANCH  11  19
BRANCH  12  22
ATOM     22  C   UNL     1      -5.952  10.127  38.091  0.00  0.00    +0.106 C 
BRANCH  22  23
ATOM      5  O   UNL     1      -6.679   9.558  35.867  0.00  0.00    -0.275 OA
ATOM      8  N   UNL     1      -8.235   9.637  37.624  0.00  0.00    -0.285 N 
ATOM     23  C   UNL     1      -6.975   9.740  37.043  0.00  0.00    +0.218 C 
ATOM     37  H   UNL     1      -8.316   9.831  38.620  0.00  0.00    +0.155 HD
BRANCH   8  26
ATOM     26  C   UNL     1      -9.453   9.298  36.988  0.00  0.00    +0.037 A 
ATOM     30  C   UNL     1     -10.168   8.200  37.435  0.00  0.00    +0.068 A 
ATOM     31  C   UNL     1      -9.904  10.072  35.932  0.00  0.00    +0.023 A 
ATOM     32  C   UNL     1     -11.369   7.866  36.809  0.00  0.00    +0.119 A 
ATOM     33  C   UNL     1     -11.104   9.737  35.305  0.00  0.00    +0.005 A 
ATOM     34  C   UNL     1     -11.837   8.635  35.743  0.00  0.00    +0.045 A 
BRANCH  32   6
ATOM      6  O   UNL     1     -12.084   6.790  37.237  0.00  0.00    -0.507 OA
ATOM     38  H   UNL     1     -12.167   6.155  36.505  0.00  0.00    +0.292 HD
ENDBRANCH  32   6
ENDBRANCH   8  26
ENDBRANCH  22  23
ENDBRANCH  12  22
TORSDOF 8
ENDMDL
MODEL 7
REMARK VINA RESULT:      -6.4     17.084     21.276
REMARK  Name = 11883181
REMARK  10 active torsions:
REMARK  status: ('A' for Active; 'I' for Inactive)
REMARK    1  A    between atoms: O_3  and  C_14
REMARK    2  A    between atoms: O_4  and  C_19
REMARK    3  A    between atoms: O_6  and  C_32
REMARK    4  A    between atoms: N_8  and  C_26
REMARK    5  A    between atoms: C_9  and  C_17
REMARK    6  A    between atoms: C_11  and  C_19
REMARK    7  A    between atoms: C_11  and  C_20
REMARK    8  A    between atoms: C_12  and  C_22
REMARK    9  A    between atoms: C_22  and  C_23
REMARK   10  A    between atoms: C_24  and  C_25
REMARK                            x       y       z     vdW  Elec       q    Type
REMARK                         _______ _______ _______ _____ _____    ______ ____
ROOT
ATOM      1  S   UNL     1       9.005   8.519  -0.004  0.00  0.00    -0.072 S 
ATOM      7  N   UNL     1       9.567   7.386   2.253  0.00  0.00    -0.243 NA
ATOM      9  C   UNL     1      11.961   5.050   0.333  0.00  0.00    -0.020 C 
ATOM     10  C   UNL     1      12.293   6.159  -0.760  0.00  0.00    +0.011 C 
ATOM     11  C   UNL     1      13.204   5.721  -1.970  0.00  0.00    +0.021 C 
ATOM     12  C   UNL     1      11.427   5.794   1.643  0.00  0.00    +0.053 C 
ATOM     13  C   UNL     1      13.258   4.285   0.702  0.00  0.00    +0.010 C 
ATOM     14  C   UNL     1      14.428   4.930  -1.429  0.00  0.00    +0.123 C 
ATOM     15  C   UNL     1      11.014   6.937  -1.187  0.00  0.00    +0.049 C 
ATOM     16  C   UNL     1      14.041   3.782  -0.504  0.00  0.00    +0.032 C 
ATOM     17  C   UNL     1      10.901   4.029  -0.148  0.00  0.00    +0.012 C 
ATOM     18  C   UNL     1      10.396   6.836   1.292  0.00  0.00    +0.056 A 
ATOM     20  C   UNL     1      13.751   6.992  -2.679  0.00  0.00    +0.016 C 
ATOM     21  C   UNL     1      10.241   7.349   0.020  0.00  0.00    +0.014 A 
ATOM     24  C   UNL     1       8.786   8.278   1.683  0.00  0.00    +0.109 A 
ENDROOT
BRANCH  24  25
ATOM      2  S   UNL     1       5.705  10.446   2.999  0.00  0.00    -0.104 S 
ATOM     25  C   UNL     1       7.776   9.037   2.453  0.00  0.00    +0.014 A 
ATOM     27  C   UNL     1       7.794   9.226   3.862  0.00  0.00    +0.018 A 
ATOM     28  C   UNL     1       6.697   9.645   1.856  0.00  0.00    +0.055 A 
ATOM     29  C   UNL     1       6.723   9.977   4.293  0.00  0.00    +0.046 A 
ENDBRANCH  24  25
BRANCH  14   3
ATOM      3  O   UNL     1      15.206   4.407  -2.507  0.00  0.00    -0.391 OA
ATOM     35  H   UNL     1      14.615   4.270  -3.266  0.00  0.00    +0.210 HD
ENDBRANCH  14   3
BRANCH  11  19
ATOM     19  C   UNL     1      12.470   4.918  -3.067  0.00  0.00    +0.165 C 
BRANCH  19   4
ATOM      4  O   UNL     1      12.430   5.713  -4.231  0.00  0.00    -0.394 OA
ATOM     36  H   UNL     1      11.819   5.295  -4.860  0.00  0.00    +0.209 HD
ENDBRANCH  19   4
ENDBRANCH  11  19
BRANCH  12  22
ATOM     22  C   UNL     1      10.922   4.856   2.748  0.00  0.00    +0.106 C 
BRANCH  22  23
ATOM      5  O   UNL     1      11.995   6.148   4.474  0.00  0.00    -0.275 OA
ATOM      8  N   UNL     1       9.890   5.184   4.870  0.00  0.00    -0.285 N 
ATOM     23  C   UNL     1      11.026   5.483   4.123  0.00  0.00    +0.218 C 
ATOM     37  H   UNL     1       9.173   4.607   4.433  0.00  0.00    +0.155 HD
BRANCH   8  26
ATOM     26  C   UNL     1       9.600   5.581   6.197  0.00  0.00    +0.037 A 
ATOM     30  C   UNL     1       9.891   4.720   7.241  0.00  0.00    +0.068 A 
ATOM     31  C   UNL     1       9.032   6.824   6.422  0.00  0.00    +0.023 A 
ATOM     32  C   UNL     1       9.606   5.112   8.549  0.00  0.00    +0.119 A 
ATOM     33  C   UNL     1       8.746   7.216   7.730  0.00  0.00    +0.005 A 
ATOM     34  C   UNL     1       9.033   6.360   8.793  0.00  0.00    +0.045 A 
BRANCH  32   6
ATOM      6  O   UNL     1       9.886   4.277   9.586  0.00  0.00    -0.507 OA
ATOM     38  H   UNL     1       9.343   3.474   9.500  0.00  0.00    +0.292 HD
ENDBRANCH  32   6
ENDBRANCH   8  26
ENDBRANCH  22  23
ENDBRANCH  12  22
TORSDOF 8
ENDMDL
MODEL 8
REMARK VINA RESULT:      -6.4     24.818     28.347
REMARK  Name = 11883181
REMARK  10 active torsions:
REMARK  status: ('A' for Active; 'I' for Inactive)
REMARK    1  A    between atoms: O_3  and  C_14
REMARK    2  A    between atoms: O_4  and  C_19
REMARK    3  A    between atoms: O_6  and  C_32
REMARK    4  A    between atoms: N_8  and  C_26
REMARK    5  A    between atoms: C_9  and  C_17
REMARK    6  A    between atoms: C_11  and  C_19
REMARK    7  A    between atoms: C_11  and  C_20
REMARK    8  A    between atoms: C_12  and  C_22
REMARK    9  A    between atoms: C_22  and  C_23
REMARK   10  A    between atoms: C_24  and  C_25
REMARK                            x       y       z     vdW  Elec       q    Type
REMARK                         _______ _______ _______ _____ _____    ______ ____
ROOT
ATOM      1  S   UNL     1      20.824  -4.978   0.965  0.00  0.00    -0.072 S 
ATOM      7  N   UNL     1      19.672  -6.981  -0.198  0.00  0.00    -0.243 NA
ATOM      9  C   UNL     1      21.497  -9.303   2.282  0.00  0.00    -0.020 C 
ATOM     10  C   UNL     1      21.494  -8.204   3.435  0.00  0.00    +0.011 C 
ATOM     11  C   UNL     1      22.265  -8.559   4.764  0.00  0.00    +0.021 C 
ATOM     12  C   UNL     1      20.332  -8.938   1.251  0.00  0.00    +0.053 C 
ATOM     13  C   UNL     1      21.190 -10.693   2.895  0.00  0.00    +0.010 C 
ATOM     14  C   UNL     1      21.878  -9.997   5.212  0.00  0.00    +0.123 C 
ATOM     15  C   UNL     1      21.829  -6.791   2.874  0.00  0.00    +0.049 C 
ATOM     16  C   UNL     1      22.044 -11.035   4.108  0.00  0.00    +0.032 C 
ATOM     17  C   UNL     1      22.848  -9.379   1.527  0.00  0.00    +0.012 C 
ATOM     18  C   UNL     1      20.362  -7.474   0.894  0.00  0.00    +0.056 A 
ATOM     20  C   UNL     1      21.810  -7.587   5.889  0.00  0.00    +0.016 C 
ATOM     21  C   UNL     1      21.024  -6.525   1.647  0.00  0.00    +0.014 A 
ATOM     24  C   UNL     1      19.851  -5.679  -0.263  0.00  0.00    +0.109 A 
ENDROOT
BRANCH  24  25
ATOM      2  S   UNL     1      18.813  -2.912  -2.946  0.00  0.00    -0.104 S 
ATOM     25  C   UNL     1      19.243  -4.862  -1.336  0.00  0.00    +0.014 A 
ATOM     27  C   UNL     1      18.127  -5.249  -2.128  0.00  0.00    +0.018 A 
ATOM     28  C   UNL     1      19.716  -3.615  -1.672  0.00  0.00    +0.055 A 
ATOM     29  C   UNL     1      17.787  -4.281  -3.046  0.00  0.00    +0.046 A 
ENDBRANCH  24  25
BRANCH  14   3
ATOM      3  O   UNL     1      22.654 -10.399   6.340  0.00  0.00    -0.391 OA
ATOM     35  H   UNL     1      22.210 -11.153   6.759  0.00  0.00    +0.210 HD
ENDBRANCH  14   3
BRANCH  11  19
ATOM     19  C   UNL     1      23.799  -8.404   4.676  0.00  0.00    +0.165 C 
BRANCH  19   4
ATOM      4  O   UNL     1      24.276  -8.092   5.966  0.00  0.00    -0.394 OA
ATOM     36  H   UNL     1      24.684  -7.210   5.931  0.00  0.00    +0.209 HD
ENDBRANCH  19   4
ENDBRANCH  11  19
BRANCH  12  22
ATOM     22  C   UNL     1      20.292  -9.820  -0.005  0.00  0.00    +0.106 C 
BRANCH  22  23
ATOM      5  O   UNL     1      19.822 -12.178  -0.149  0.00  0.00    -0.275 OA
ATOM      8  N   UNL     1      18.241 -10.724   0.801  0.00  0.00    -0.285 N 
ATOM     23  C   UNL     1      19.447 -11.062   0.194  0.00  0.00    +0.218 C 
ATOM     37  H   UNL     1      18.077  -9.742   1.016  0.00  0.00    +0.155 HD
BRANCH   8  26
ATOM     26  C   UNL     1      17.181 -11.592   1.156  0.00  0.00    +0.037 A 
ATOM     30  C   UNL     1      16.715 -11.593   2.460  0.00  0.00    +0.068 A 
ATOM     31  C   UNL     1      16.633 -12.421   0.192  0.00  0.00    +0.023 A 
ATOM     32  C   UNL     1      15.670 -12.448   2.810  0.00  0.00    +0.119 A 
ATOM     33  C   UNL     1      15.589 -13.277   0.542  0.00  0.00    +0.005 A 
ATOM     34  C   UNL     1      15.107 -13.291   1.851  0.00  0.00    +0.045 A 
BRANCH  32   6
ATOM      6  O   UNL     1      15.200 -12.461   4.087  0.00  0.00    -0.507 OA
ATOM     38  H   UNL     1      15.949 -12.359   4.699  0.00  0.00    +0.292 HD
ENDBRANCH  32   6
ENDBRANCH   8  26
ENDBRANCH  22  23
ENDBRANCH  12  22
TORSDOF 8
ENDMDL
MODEL 9
REMARK VINA RESULT:      -6.3     25.534     29.127
REMARK  Name = 11883181
REMARK  10 active torsions:
REMARK  status: ('A' for Active; 'I' for Inactive)
REMARK    1  A    between atoms: O_3  and  C_14
REMARK    2  A    between atoms: O_4  and  C_19
REMARK    3  A    between atoms: O_6  and  C_32
REMARK    4  A    between atoms: N_8  and  C_26
REMARK    5  A    between atoms: C_9  and  C_17
REMARK    6  A    between atoms: C_11  and  C_19
REMARK    7  A    between atoms: C_11  and  C_20
REMARK    8  A    between atoms: C_12  and  C_22
REMARK    9  A    between atoms: C_22  and  C_23
REMARK   10  A    between atoms: C_24  and  C_25
REMARK                            x       y       z     vdW  Elec       q    Type
REMARK                         _______ _______ _______ _____ _____    ______ ____
ROOT
ATOM      1  S   UNL     1      18.824  -5.814  -2.181  0.00  0.00    -0.072 S 
ATOM      7  N   UNL     1      18.416  -8.322  -1.698  0.00  0.00    -0.243 NA
ATOM      9  C   UNL     1      21.485  -8.238   0.635  0.00  0.00    -0.020 C 
ATOM     10  C   UNL     1      21.245  -6.713   1.026  0.00  0.00    +0.011 C 
ATOM     11  C   UNL     1      22.333  -6.028   1.938  0.00  0.00    +0.021 C 
ATOM     12  C   UNL     1      20.100  -8.836   0.109  0.00  0.00    +0.053 C 
ATOM     13  C   UNL     1      21.912  -9.032   1.896  0.00  0.00    +0.010 C 
ATOM     14  C   UNL     1      22.678  -6.975   3.123  0.00  0.00    +0.123 C 
ATOM     15  C   UNL     1      20.842  -5.865  -0.215  0.00  0.00    +0.049 C 
ATOM     16  C   UNL     1      23.047  -8.385   2.677  0.00  0.00    +0.032 C 
ATOM     17  C   UNL     1      22.570  -8.415  -0.456  0.00  0.00    +0.012 C 
ATOM     18  C   UNL     1      19.445  -7.901  -0.876  0.00  0.00    +0.056 A 
ATOM     20  C   UNL     1      21.739  -4.726   2.545  0.00  0.00    +0.016 C 
ATOM     21  C   UNL     1      19.780  -6.568  -0.991  0.00  0.00    +0.014 A 
ATOM     24  C   UNL     1      18.016  -7.308  -2.435  0.00  0.00    +0.109 A 
ENDROOT
BRANCH  24  25
ATOM      2  S   UNL     1      15.523  -7.097  -5.544  0.00  0.00    -0.104 S 
ATOM     25  C   UNL     1      16.928  -7.446  -3.427  0.00  0.00    +0.014 A 
ATOM     27  C   UNL     1      15.806  -8.310  -3.297  0.00  0.00    +0.018 A 
ATOM     28  C   UNL     1      16.902  -6.727  -4.599  0.00  0.00    +0.055 A 
ATOM     29  C   UNL     1      14.960  -8.221  -4.380  0.00  0.00    +0.046 A 
ENDBRANCH  24  25
BRANCH  14   3
ATOM      3  O   UNL     1      23.753  -6.441   3.896  0.00  0.00    -0.391 OA
ATOM     35  H   UNL     1      24.577  -6.582   3.404  0.00  0.00    +0.210 HD
ENDBRANCH  14   3
BRANCH  11  19
ATOM     19  C   UNL     1      23.613  -5.592   1.191  0.00  0.00    +0.165 C 
BRANCH  19   4
ATOM      4  O   UNL     1      24.142  -4.469   1.859  0.00  0.00    -0.394 OA
ATOM     36  H   UNL     1      24.648  -3.946   1.215  0.00  0.00    +0.209 HD
ENDBRANCH  19   4
ENDBRANCH  11  19
BRANCH  12  22
ATOM     22  C   UNL     1      20.191 -10.263  -0.449  0.00  0.00    +0.106 C 
BRANCH  22  23
ATOM      5  O   UNL     1      20.014 -12.252   0.898  0.00  0.00    -0.275 OA
ATOM      8  N   UNL     1      18.131 -10.887   0.570  0.00  0.00    -0.285 N 
ATOM     23  C   UNL     1      19.461 -11.266   0.421  0.00  0.00    +0.218 C 
ATOM     37  H   UNL     1      17.823 -10.038   0.098  0.00  0.00    +0.155 HD
BRANCH   8  26
ATOM     26  C   UNL     1      17.121 -11.552   1.305  0.00  0.00    +0.037 A 
ATOM     30  C   UNL     1      16.969 -11.276   2.653  0.00  0.00    +0.068 A 
ATOM     31  C   UNL     1      16.306 -12.467   0.659  0.00  0.00    +0.023 A 
ATOM     32  C   UNL     1      15.973 -11.931   3.377  0.00  0.00    +0.119 A 
ATOM     33  C   UNL     1      15.311 -13.124   1.383  0.00  0.00    +0.005 A 
ATOM     34  C   UNL     1      15.144 -12.856   2.742  0.00  0.00    +0.045 A 
BRANCH  32   6
ATOM      6  O   UNL     1      15.812 -11.670   4.702  0.00  0.00    -0.507 OA
ATOM     38  H   UNL     1      16.518 -11.068   4.993  0.00  0.00    +0.292 HD
ENDBRANCH  32   6
ENDBRANCH   8  26
ENDBRANCH  22  23
ENDBRANCH  12  22
TORSDOF 8
ENDMDL
MODEL 10
REMARK VINA RESULT:      -6.3     16.512     21.437
REMARK  Name = 11883181
REMARK  10 active torsions:
REMARK  status: ('A' for Active; 'I' for Inactive)
REMARK    1  A    between atoms: O_3  and  C_14
REMARK    2  A    between atoms: O_4  and  C_19
REMARK    3  A    between atoms: O_6  and  C_32
REMARK    4  A    between atoms: N_8  and  C_26
REMARK    5  A    between atoms: C_9  and  C_17
REMARK    6  A    between atoms: C_11  and  C_19
REMARK    7  A    between atoms: C_11  and  C_20
REMARK    8  A    between atoms: C_12  and  C_22
REMARK    9  A    between atoms: C_22  and  C_23
REMARK   10  A    between atoms: C_24  and  C_25
REMARK                            x       y       z     vdW  Elec       q    Type
REMARK                         _______ _______ _______ _____ _____    ______ ____
ROOT
ATOM      1  S   UNL     1       6.349  10.145   3.808  0.00  0.00    -0.072 S 
ATOM      7  N   UNL     1       7.383   8.858   1.816  0.00  0.00    -0.243 NA
ATOM      9  C   UNL     1      10.204   7.719   4.186  0.00  0.00    -0.020 C 
ATOM     10  C   UNL     1       9.247   7.729   5.458  0.00  0.00    +0.011 C 
ATOM     11  C   UNL     1       9.913   7.437   6.857  0.00  0.00    +0.021 C 
ATOM     12  C   UNL     1       9.289   7.594   2.881  0.00  0.00    +0.053 C 
ATOM     13  C   UNL     1      11.134   6.480   4.250  0.00  0.00    +0.010 C 
ATOM     14  C   UNL     1      10.844   6.198   6.733  0.00  0.00    +0.123 C 
ATOM     15  C   UNL     1       8.312   8.974   5.456  0.00  0.00    +0.049 C 
ATOM     16  C   UNL     1      11.843   6.310   5.587  0.00  0.00    +0.032 C 
ATOM     17  C   UNL     1      11.079   8.993   4.081  0.00  0.00    +0.012 C 
ATOM     18  C   UNL     1       8.127   8.553   2.941  0.00  0.00    +0.056 A 
ATOM     20  C   UNL     1       8.801   7.079   7.883  0.00  0.00    +0.016 C 
ATOM     21  C   UNL     1       7.694   9.146   4.110  0.00  0.00    +0.014 A 
ATOM     24  C   UNL     1       6.425   9.694   2.152  0.00  0.00    +0.109 A 
ENDROOT
BRANCH  24  25
ATOM      2  S   UNL     1       4.143  11.859  -0.305  0.00  0.00    -0.104 S 
ATOM     25  C   UNL     1       5.461  10.216   1.159  0.00  0.00    +0.014 A 
ATOM     27  C   UNL     1       4.569   9.422   0.388  0.00  0.00    +0.018 A 
ATOM     28  C   UNL     1       5.337  11.558   0.885  0.00  0.00    +0.055 A 
ATOM     29  C   UNL     1       3.793  10.189  -0.452  0.00  0.00    +0.046 A 
ENDBRANCH  24  25
BRANCH  14   3
ATOM      3  O   UNL     1      11.561   5.984   7.948  0.00  0.00    -0.391 OA
ATOM     35  H   UNL     1      12.479   6.269   7.811  0.00  0.00    +0.210 HD
ENDBRANCH  14   3
BRANCH  11  19
ATOM     19  C   UNL     1      10.671   8.637   7.469  0.00  0.00    +0.165 C 
BRANCH  19   4
ATOM      4  O   UNL     1       9.847   9.208   8.460  0.00  0.00    -0.394 OA
ATOM     36  H   UNL     1      10.271  10.026   8.769  0.00  0.00    +0.209 HD
ENDBRANCH  19   4
ENDBRANCH  11  19
BRANCH  12  22
ATOM     22  C   UNL     1      10.050   7.717   1.554  0.00  0.00    +0.106 C 
BRANCH  22  23
ATOM      5  O   UNL     1      10.091   5.376   0.990  0.00  0.00    -0.275 OA
ATOM      8  N   UNL     1      12.089   6.609   1.018  0.00  0.00    -0.285 N 
ATOM     23  C   UNL     1      10.718   6.417   1.155  0.00  0.00    +0.218 C 
ATOM     37  H   UNL     1      12.459   7.541   1.200  0.00  0.00    +0.155 HD
BRANCH   8  26
ATOM     26  C   UNL     1      13.063   5.648   0.658  0.00  0.00    +0.037 A 
ATOM     30  C   UNL     1      13.712   4.935   1.651  0.00  0.00    +0.068 A 
ATOM     31  C   UNL     1      13.347   5.442  -0.682  0.00  0.00    +0.023 A 
ATOM     32  C   UNL     1      14.672   3.988   1.296  0.00  0.00    +0.119 A 
ATOM     33  C   UNL     1      14.307   4.495  -1.038  0.00  0.00    +0.005 A 
ATOM     34  C   UNL     1      14.970   3.768  -0.049  0.00  0.00    +0.045 A 
BRANCH  32   6
ATOM      6  O   UNL     1      15.318   3.279   2.261  0.00  0.00    -0.507 OA
ATOM     38  H   UNL     1      16.182   2.993   1.917  0.00  0.00    +0.292 HD
ENDBRANCH  32   6
ENDBRANCH   8  26
ENDBRANCH  22  23
ENDBRANCH  12  22
TORSDOF 8
ENDMDL
