MODEL 1
REMARK VINA RESULT:      -6.5      0.000      0.000
REMARK  Name = 75536869
REMARK  5 active torsions:
REMARK  status: ('A' for Active; 'I' for Inactive)
REMARK    1  A    between atoms: O_5  and  C_13
REMARK    2  A    between atoms: O_5  and  C_16
REMARK    3  A    between atoms: N_6  and  C_10
REMARK    4  A    between atoms: C_7  and  C_10
REMARK    5  A    between atoms: C_21  and  C_22
REMARK                            x       y       z     vdW  Elec       q    Type
REMARK                         _______ _______ _______ _____ _____    ______ ____
ROOT
ATOM      5  O   UNL     1      15.070   6.296  19.129  0.00  0.00    -0.485 OA
ENDROOT
BRANCH   5  13
ATOM      4  O   UNL     1      14.280   9.083  16.993  0.00  0.00    -0.375 OA
ATOM      6  N   UNL     1      12.047   8.481  19.084  0.00  0.00    -0.296 NA
ATOM     11  C   UNL     1      13.074   7.554  19.574  0.00  0.00    +0.131 C 
ATOM     12  C   UNL     1      12.566   9.773  18.633  0.00  0.00    +0.112 C 
ATOM     13  C   UNL     1      14.432   7.544  18.855  0.00  0.00    +0.213 C 
ATOM     14  C   UNL     1      13.002   9.678  17.171  0.00  0.00    +0.175 C 
ATOM     15  C   UNL     1      14.344   7.705  17.343  0.00  0.00    +0.205 C 
BRANCH   6  10
ATOM     10  C   UNL     1      10.998   8.646  20.091  0.00  0.00    +0.088 C 
BRANCH  10   7
ATOM      7  C   UNL     1      11.578   8.934  21.438  0.00  0.00    +0.003 C 
ATOM      8  C   UNL     1      10.786   8.636  22.682  0.00  0.00    +0.005 C 
ATOM      9  C   UNL     1      11.033  10.061  22.272  0.00  0.00    +0.005 C 
ENDBRANCH  10   7
ENDBRANCH   6  10
ENDBRANCH   5  13
BRANCH   5  16
ATOM     16  C   UNL     1      16.344   6.356  19.624  0.00  0.00    +0.121 A 
ATOM     17  C   UNL     1      16.633   7.188  20.706  0.00  0.00    +0.046 A 
ATOM     18  C   UNL     1      17.353   5.586  19.046  0.00  0.00    +0.046 A 
ATOM     19  C   UNL     1      17.932   7.251  21.209  0.00  0.00    +0.016 A 
ATOM     20  C   UNL     1      18.652   5.649  19.551  0.00  0.00    +0.016 A 
ATOM     21  C   UNL     1      18.942   6.481  20.632  0.00  0.00    +0.055 A 
BRANCH  21  22
ATOM      1  F   UNL     1      21.295   6.494  20.204  0.00  0.00    -0.166 F 
ATOM      2  F   UNL     1      20.633   5.531  22.032  0.00  0.00    -0.166 F 
ATOM      3  F   UNL     1      20.571   7.698  21.863  0.00  0.00    -0.166 F 
ATOM     22  C   UNL     1      20.331   6.547  21.170  0.00  0.00    +0.417 C 
ENDBRANCH  21  22
ENDBRANCH   5  16
TORSDOF 5
ENDMDL
MODEL 2
REMARK VINA RESULT:      -6.2      1.992      3.773
REMARK  Name = 75536869
REMARK  5 active torsions:
REMARK  status: ('A' for Active; 'I' for Inactive)
REMARK    1  A    between atoms: O_5  and  C_13
REMARK    2  A    between atoms: O_5  and  C_16
REMARK    3  A    between atoms: N_6  and  C_10
REMARK    4  A    between atoms: C_7  and  C_10
REMARK    5  A    between atoms: C_21  and  C_22
REMARK                            x       y       z     vdW  Elec       q    Type
REMARK                         _______ _______ _______ _____ _____    ______ ____
ROOT
ATOM      5  O   UNL     1      14.341   7.671  20.145  0.00  0.00    -0.485 OA
ENDROOT
BRANCH   5  13
ATOM      4  O   UNL     1      11.921   7.529  17.485  0.00  0.00    -0.375 OA
ATOM      6  N   UNL     1      13.657  10.118  17.415  0.00  0.00    -0.296 NA
ATOM     11  C   UNL     1      14.369   9.395  18.474  0.00  0.00    +0.131 C 
ATOM     12  C   UNL     1      13.209   9.276  16.304  0.00  0.00    +0.112 C 
ATOM     13  C   UNL     1      13.883   7.981  18.828  0.00  0.00    +0.213 C 
ATOM     14  C   UNL     1      11.848   8.663  16.631  0.00  0.00    +0.175 C 
ATOM     15  C   UNL     1      12.370   7.812  18.805  0.00  0.00    +0.205 C 
BRANCH   6  10
ATOM     10  C   UNL     1      14.466  11.242  16.942  0.00  0.00    +0.088 C 
BRANCH  10   7
ATOM      7  C   UNL     1      14.982  10.998  15.562  0.00  0.00    +0.003 C 
ATOM      8  C   UNL     1      16.272  11.628  15.113  0.00  0.00    +0.005 C 
ATOM      9  C   UNL     1      14.966  12.101  14.540  0.00  0.00    +0.005 C 
ENDBRANCH  10   7
ENDBRANCH   6  10
ENDBRANCH   5  13
BRANCH   5  16
ATOM     16  C   UNL     1      15.640   7.256  20.258  0.00  0.00    +0.121 A 
ATOM     17  C   UNL     1      16.442   7.750  21.287  0.00  0.00    +0.046 A 
ATOM     18  C   UNL     1      16.161   6.339  19.345  0.00  0.00    +0.046 A 
ATOM     19  C   UNL     1      17.766   7.328  21.401  0.00  0.00    +0.016 A 
ATOM     20  C   UNL     1      17.486   5.917  19.461  0.00  0.00    +0.016 A 
ATOM     21  C   UNL     1      18.289   6.412  20.489  0.00  0.00    +0.055 A 
BRANCH  21  22
ATOM      1  F   UNL     1      20.605   6.833  20.071  0.00  0.00    -0.166 F 
ATOM      2  F   UNL     1      19.953   4.766  19.999  0.00  0.00    -0.166 F 
ATOM      3  F   UNL     1      20.092   5.793  21.910  0.00  0.00    -0.166 F 
ATOM     22  C   UNL     1      19.704   5.960  20.612  0.00  0.00    +0.417 C 
ENDBRANCH  21  22
ENDBRANCH   5  16
TORSDOF 5
ENDMDL
MODEL 3
REMARK VINA RESULT:      -6.1     15.657     17.785
REMARK  Name = 75536869
REMARK  5 active torsions:
REMARK  status: ('A' for Active; 'I' for Inactive)
REMARK    1  A    between atoms: O_5  and  C_13
REMARK    2  A    between atoms: O_5  and  C_16
REMARK    3  A    between atoms: N_6  and  C_10
REMARK    4  A    between atoms: C_7  and  C_10
REMARK    5  A    between atoms: C_21  and  C_22
REMARK                            x       y       z     vdW  Elec       q    Type
REMARK                         _______ _______ _______ _____ _____    ______ ____
ROOT
ATOM      5  O   UNL     1       9.961   5.003   3.462  0.00  0.00    -0.485 OA
ENDROOT
BRANCH   5  13
ATOM      4  O   UNL     1      12.598   6.985   4.901  0.00  0.00    -0.375 OA
ATOM      6  N   UNL     1      10.169   6.611   6.821  0.00  0.00    -0.296 NA
ATOM     11  C   UNL     1       9.759   5.692   5.753  0.00  0.00    +0.131 C 
ATOM     12  C   UNL     1      11.601   6.582   7.126  0.00  0.00    +0.112 C 
ATOM     13  C   UNL     1      10.717   5.498   4.567  0.00  0.00    +0.213 C 
ATOM     14  C   UNL     1      12.352   7.530   6.191  0.00  0.00    +0.175 C 
ATOM     15  C   UNL     1      11.428   6.768   4.119  0.00  0.00    +0.205 C 
BRANCH   6  10
ATOM     10  C   UNL     1       9.362   6.381   8.020  0.00  0.00    +0.088 C 
BRANCH  10   7
ATOM      7  C   UNL     1       9.976   5.339   8.897  0.00  0.00    +0.003 C 
ATOM      8  C   UNL     1       9.463   3.925   8.866  0.00  0.00    +0.005 C 
ATOM      9  C   UNL     1       9.211   4.789  10.069  0.00  0.00    +0.005 C 
ENDBRANCH  10   7
ENDBRANCH   6  10
ENDBRANCH   5  13
BRANCH   5  16
ATOM     16  C   UNL     1      10.672   4.618   2.358  0.00  0.00    +0.121 A 
ATOM     17  C   UNL     1      10.276   5.044   1.090  0.00  0.00    +0.046 A 
ATOM     18  C   UNL     1      11.791   3.798   2.502  0.00  0.00    +0.046 A 
ATOM     19  C   UNL     1      11.000   4.650  -0.034  0.00  0.00    +0.016 A 
ATOM     20  C   UNL     1      12.515   3.405   1.375  0.00  0.00    +0.016 A 
ATOM     21  C   UNL     1      12.120   3.830   0.108  0.00  0.00    +0.055 A 
BRANCH  21  22
ATOM      1  F   UNL     1      12.677   4.199  -2.188  0.00  0.00    -0.166 F 
ATOM      2  F   UNL     1      12.611   2.139  -1.511  0.00  0.00    -0.166 F 
ATOM      3  F   UNL     1      14.242   3.435  -0.888  0.00  0.00    -0.166 F 
ATOM     22  C   UNL     1      12.894   3.409  -1.095  0.00  0.00    +0.417 C 
ENDBRANCH  21  22
ENDBRANCH   5  16
TORSDOF 5
ENDMDL
MODEL 4
REMARK VINA RESULT:      -6.1     30.205     32.732
REMARK  Name = 75536869
REMARK  5 active torsions:
REMARK  status: ('A' for Active; 'I' for Inactive)
REMARK    1  A    between atoms: O_5  and  C_13
REMARK    2  A    between atoms: O_5  and  C_16
REMARK    3  A    between atoms: N_6  and  C_10
REMARK    4  A    between atoms: C_7  and  C_10
REMARK    5  A    between atoms: C_21  and  C_22
REMARK                            x       y       z     vdW  Elec       q    Type
REMARK                         _______ _______ _______ _____ _____    ______ ____
ROOT
ATOM      5  O   UNL     1     -13.949   4.429  33.646  0.00  0.00    -0.485 OA
ENDROOT
BRANCH   5  13
ATOM      4  O   UNL     1     -16.870   6.510  33.343  0.00  0.00    -0.375 OA
ATOM      6  N   UNL     1     -14.215   8.143  33.418  0.00  0.00    -0.296 NA
ATOM     11  C   UNL     1     -13.649   6.791  33.337  0.00  0.00    +0.131 C 
ATOM     12  C   UNL     1     -15.404   8.350  32.589  0.00  0.00    +0.112 C 
ATOM     13  C   UNL     1     -14.626   5.611  33.217  0.00  0.00    +0.213 C 
ATOM     14  C   UNL     1     -16.654   7.915  33.353  0.00  0.00    +0.175 C 
ATOM     15  C   UNL     1     -15.892   5.756  34.051  0.00  0.00    +0.205 C 
BRANCH   6  10
ATOM     10  C   UNL     1     -13.181   9.138  33.131  0.00  0.00    +0.088 C 
BRANCH  10   7
ATOM      7  C   UNL     1     -12.134   8.587  32.218  0.00  0.00    +0.003 C 
ATOM      8  C   UNL     1     -10.751   9.179  32.208  0.00  0.00    +0.005 C 
ATOM      9  C   UNL     1     -11.666   9.386  31.033  0.00  0.00    +0.005 C 
ENDBRANCH  10   7
ENDBRANCH   6  10
ENDBRANCH   5  13
BRANCH   5  16
ATOM     16  C   UNL     1     -14.063   3.332  32.837  0.00  0.00    +0.121 A 
ATOM     17  C   UNL     1     -13.563   3.370  31.536  0.00  0.00    +0.046 A 
ATOM     18  C   UNL     1     -14.681   2.175  33.315  0.00  0.00    +0.046 A 
ATOM     19  C   UNL     1     -13.680   2.252  30.711  0.00  0.00    +0.016 A 
ATOM     20  C   UNL     1     -14.797   1.057  32.488  0.00  0.00    +0.016 A 
ATOM     21  C   UNL     1     -14.297   1.095  31.187  0.00  0.00    +0.055 A 
BRANCH  21  22
ATOM      1  F   UNL     1     -14.868   0.192  29.047  0.00  0.00    -0.166 F 
ATOM      2  F   UNL     1     -15.290  -1.043  30.780  0.00  0.00    -0.166 F 
ATOM      3  F   UNL     1     -13.236  -0.752  30.130  0.00  0.00    -0.166 F 
ATOM     22  C   UNL     1     -14.422  -0.101  30.305  0.00  0.00    +0.417 C 
ENDBRANCH  21  22
ENDBRANCH   5  16
TORSDOF 5
ENDMDL
MODEL 5
REMARK VINA RESULT:      -5.8     15.221     17.814
REMARK  Name = 75536869
REMARK  5 active torsions:
REMARK  status: ('A' for Active; 'I' for Inactive)
REMARK    1  A    between atoms: O_5  and  C_13
REMARK    2  A    between atoms: O_5  and  C_16
REMARK    3  A    between atoms: N_6  and  C_10
REMARK    4  A    between atoms: C_7  and  C_10
REMARK    5  A    between atoms: C_21  and  C_22
REMARK                            x       y       z     vdW  Elec       q    Type
REMARK                         _______ _______ _______ _____ _____    ______ ____
ROOT
ATOM      5  O   UNL     1      11.059   6.675   3.922  0.00  0.00    -0.485 OA
ENDROOT
BRANCH   5  13
ATOM      4  O   UNL     1      10.084   4.456   1.262  0.00  0.00    -0.375 OA
ATOM      6  N   UNL     1      13.116   5.179   1.194  0.00  0.00    -0.296 NA
ATOM     11  C   UNL     1      12.764   5.795   2.478  0.00  0.00    +0.131 C 
ATOM     12  C   UNL     1      12.468   3.890   0.945  0.00  0.00    +0.112 C 
ATOM     13  C   UNL     1      11.319   5.637   2.977  0.00  0.00    +0.213 C 
ATOM     14  C   UNL     1      11.091   4.112   0.320  0.00  0.00    +0.175 C 
ATOM     15  C   UNL     1      10.263   5.724   1.882  0.00  0.00    +0.205 C 
BRANCH   6  10
ATOM     10  C   UNL     1      14.571   5.081   1.066  0.00  0.00    +0.088 C 
BRANCH  10   7
ATOM      7  C   UNL     1      14.959   4.069   0.037  0.00  0.00    +0.003 C 
ATOM      8  C   UNL     1      16.345   4.075  -0.546  0.00  0.00    +0.005 C 
ATOM      9  C   UNL     1      15.173   4.486  -1.392  0.00  0.00    +0.005 C 
ENDBRANCH  10   7
ENDBRANCH   6  10
ENDBRANCH   5  13
BRANCH   5  16
ATOM     16  C   UNL     1      10.685   6.280   5.177  0.00  0.00    +0.121 A 
ATOM     17  C   UNL     1      10.864   7.138   6.261  0.00  0.00    +0.046 A 
ATOM     18  C   UNL     1      10.124   5.017   5.371  0.00  0.00    +0.046 A 
ATOM     19  C   UNL     1      10.483   6.734   7.541  0.00  0.00    +0.016 A 
ATOM     20  C   UNL     1       9.743   4.614   6.652  0.00  0.00    +0.016 A 
ATOM     21  C   UNL     1       9.922   5.472   7.736  0.00  0.00    +0.055 A 
BRANCH  21  22
ATOM      1  F   UNL     1      10.514   5.145  10.030  0.00  0.00    -0.166 F 
ATOM      2  F   UNL     1       9.105   3.739   9.168  0.00  0.00    -0.166 F 
ATOM      3  F   UNL     1       8.478   5.776   9.600  0.00  0.00    -0.166 F 
ATOM     22  C   UNL     1       9.515   5.040   9.104  0.00  0.00    +0.417 C 
ENDBRANCH  21  22
ENDBRANCH   5  16
TORSDOF 5
ENDMDL
MODEL 6
REMARK VINA RESULT:      -5.6      5.688      9.710
REMARK  Name = 75536869
REMARK  5 active torsions:
REMARK  status: ('A' for Active; 'I' for Inactive)
REMARK    1  A    between atoms: O_5  and  C_13
REMARK    2  A    between atoms: O_5  and  C_16
REMARK    3  A    between atoms: N_6  and  C_10
REMARK    4  A    between atoms: C_7  and  C_10
REMARK    5  A    between atoms: C_21  and  C_22
REMARK                            x       y       z     vdW  Elec       q    Type
REMARK                         _______ _______ _______ _____ _____    ______ ____
ROOT
ATOM      5  O   UNL     1      21.829   5.557  21.839  0.00  0.00    -0.485 OA
ENDROOT
BRANCH   5  13
ATOM      4  O   UNL     1      24.214   3.948  19.676  0.00  0.00    -0.375 OA
ATOM      6  N   UNL     1      23.850   2.473  22.399  0.00  0.00    -0.296 NA
ATOM     11  C   UNL     1      22.773   3.460  22.529  0.00  0.00    +0.131 C 
ATOM     12  C   UNL     1      23.995   1.910  21.056  0.00  0.00    +0.112 C 
ATOM     13  C   UNL     1      22.525   4.411  21.348  0.00  0.00    +0.213 C 
ATOM     14  C   UNL     1      24.887   2.813  20.205  0.00  0.00    +0.175 C 
ATOM     15  C   UNL     1      23.793   4.893  20.653  0.00  0.00    +0.205 C 
BRANCH   6  10
ATOM     10  C   UNL     1      23.693   1.422  23.406  0.00  0.00    +0.088 C 
BRANCH  10   7
ATOM      7  C   UNL     1      22.652   1.786  24.414  0.00  0.00    +0.003 C 
ATOM      8  C   UNL     1      22.960   1.706  25.884  0.00  0.00    +0.005 C 
ATOM      9  C   UNL     1      22.012   0.721  25.260  0.00  0.00    +0.005 C 
ENDBRANCH  10   7
ENDBRANCH   6  10
ENDBRANCH   5  13
BRANCH   5  16
ATOM     16  C   UNL     1      20.577   5.775  21.333  0.00  0.00    +0.121 A 
ATOM     17  C   UNL     1      20.116   5.011  20.261  0.00  0.00    +0.046 A 
ATOM     18  C   UNL     1      19.762   6.760  21.890  0.00  0.00    +0.046 A 
ATOM     19  C   UNL     1      18.840   5.234  19.744  0.00  0.00    +0.016 A 
ATOM     20  C   UNL     1      18.485   6.981  21.373  0.00  0.00    +0.016 A 
ATOM     21  C   UNL     1      18.024   6.219  20.301  0.00  0.00    +0.055 A 
BRANCH  21  22
ATOM      1  F   UNL     1      16.457   5.884  18.525  0.00  0.00    -0.166 F 
ATOM      2  F   UNL     1      16.360   7.778  19.577  0.00  0.00    -0.166 F 
ATOM      3  F   UNL     1      15.673   5.959  20.552  0.00  0.00    -0.166 F 
ATOM     22  C   UNL     1      16.659   6.456  19.749  0.00  0.00    +0.417 C 
ENDBRANCH  21  22
ENDBRANCH   5  16
TORSDOF 5
ENDMDL
MODEL 7
REMARK VINA RESULT:      -5.5     15.767     18.380
REMARK  Name = 75536869
REMARK  5 active torsions:
REMARK  status: ('A' for Active; 'I' for Inactive)
REMARK    1  A    between atoms: O_5  and  C_13
REMARK    2  A    between atoms: O_5  and  C_16
REMARK    3  A    between atoms: N_6  and  C_10
REMARK    4  A    between atoms: C_7  and  C_10
REMARK    5  A    between atoms: C_21  and  C_22
REMARK                            x       y       z     vdW  Elec       q    Type
REMARK                         _______ _______ _______ _____ _____    ______ ____
ROOT
ATOM      5  O   UNL     1      10.630   6.534   2.957  0.00  0.00    -0.485 OA
ENDROOT
BRANCH   5  13
ATOM      4  O   UNL     1      10.055   4.327   0.173  0.00  0.00    -0.375 OA
ATOM      6  N   UNL     1      13.080   4.879   0.685  0.00  0.00    -0.296 NA
ATOM     11  C   UNL     1      12.525   5.535   1.873  0.00  0.00    +0.131 C 
ATOM     12  C   UNL     1      12.418   3.624   0.323  0.00  0.00    +0.112 C 
ATOM     13  C   UNL     1      11.004   5.467   2.085  0.00  0.00    +0.213 C 
ATOM     14  C   UNL     1      11.202   3.912  -0.557  0.00  0.00    +0.175 C 
ATOM     15  C   UNL     1      10.185   5.594   0.808  0.00  0.00    +0.205 C 
BRANCH   6  10
ATOM     10  C   UNL     1      14.524   4.697   0.839  0.00  0.00    +0.088 C 
BRANCH  10   7
ATOM      7  C   UNL     1      15.234   4.851  -0.467  0.00  0.00    +0.003 C 
ATOM      8  C   UNL     1      16.531   4.130  -0.713  0.00  0.00    +0.005 C 
ATOM      9  C   UNL     1      16.522   5.623  -0.543  0.00  0.00    +0.005 C 
ENDBRANCH  10   7
ENDBRANCH   6  10
ENDBRANCH   5  13
BRANCH   5  16
ATOM     16  C   UNL     1      10.420   6.206   4.269  0.00  0.00    +0.121 A 
ATOM     17  C   UNL     1       9.993   4.922   4.607  0.00  0.00    +0.046 A 
ATOM     18  C   UNL     1      10.634   7.157   5.267  0.00  0.00    +0.046 A 
ATOM     19  C   UNL     1       9.778   4.589   5.944  0.00  0.00    +0.016 A 
ATOM     20  C   UNL     1      10.420   6.822   6.605  0.00  0.00    +0.016 A 
ATOM     21  C   UNL     1       9.992   5.538   6.943  0.00  0.00    +0.055 A 
BRANCH  21  22
ATOM      1  F   UNL     1       9.577   3.844   8.579  0.00  0.00    -0.166 F 
ATOM      2  F   UNL     1       8.664   5.783   8.918  0.00  0.00    -0.166 F 
ATOM      3  F   UNL     1      10.809   5.533   9.176  0.00  0.00    -0.166 F 
ATOM     22  C   UNL     1       9.763   5.182   8.373  0.00  0.00    +0.417 C 
ENDBRANCH  21  22
ENDBRANCH   5  16
TORSDOF 5
ENDMDL
MODEL 8
REMARK VINA RESULT:      -5.5     26.842     28.343
REMARK  Name = 75536869
REMARK  5 active torsions:
REMARK  status: ('A' for Active; 'I' for Inactive)
REMARK    1  A    between atoms: O_5  and  C_13
REMARK    2  A    between atoms: O_5  and  C_16
REMARK    3  A    between atoms: N_6  and  C_10
REMARK    4  A    between atoms: C_7  and  C_10
REMARK    5  A    between atoms: C_21  and  C_22
REMARK                            x       y       z     vdW  Elec       q    Type
REMARK                         _______ _______ _______ _____ _____    ______ ____
ROOT
ATOM      5  O   UNL     1     -13.420   9.460  22.466  0.00  0.00    -0.485 OA
ENDROOT
BRANCH   5  13
ATOM      4  O   UNL     1     -14.261  12.953  22.687  0.00  0.00    -0.375 OA
ATOM      6  N   UNL     1     -12.897  11.863  25.270  0.00  0.00    -0.296 NA
ATOM     11  C   UNL     1     -12.726  10.688  24.409  0.00  0.00    +0.131 C 
ATOM     12  C   UNL     1     -12.698  13.144  24.591  0.00  0.00    +0.112 C 
ATOM     13  C   UNL     1     -13.216  10.786  22.956  0.00  0.00    +0.213 C 
ATOM     14  C   UNL     1     -14.001  13.592  23.930  0.00  0.00    +0.175 C 
ATOM     15  C   UNL     1     -14.519  11.556  22.784  0.00  0.00    +0.205 C 
BRANCH   6  10
ATOM     10  C   UNL     1     -12.045  11.747  26.455  0.00  0.00    +0.088 C 
BRANCH  10   7
ATOM      7  C   UNL     1     -11.450  10.380  26.565  0.00  0.00    +0.003 C 
ATOM      8  C   UNL     1     -11.066   9.828  27.910  0.00  0.00    +0.005 C 
ATOM      9  C   UNL     1      -9.999  10.212  26.924  0.00  0.00    +0.005 C 
ENDBRANCH  10   7
ENDBRANCH   6  10
ENDBRANCH   5  13
BRANCH   5  16
ATOM     16  C   UNL     1     -12.775   9.131  21.306  0.00  0.00    +0.121 A 
ATOM     17  C   UNL     1     -12.322  10.137  20.451  0.00  0.00    +0.046 A 
ATOM     18  C   UNL     1     -12.570   7.791  20.977  0.00  0.00    +0.046 A 
ATOM     19  C   UNL     1     -11.665   9.802  19.268  0.00  0.00    +0.016 A 
ATOM     20  C   UNL     1     -11.912   7.457  19.793  0.00  0.00    +0.016 A 
ATOM     21  C   UNL     1     -11.460   8.462  18.938  0.00  0.00    +0.055 A 
BRANCH  21  22
ATOM      1  F   UNL     1     -11.527   8.263  16.556  0.00  0.00    -0.166 F 
ATOM      2  F   UNL     1     -10.333   6.806  17.631  0.00  0.00    -0.166 F 
ATOM      3  F   UNL     1      -9.642   8.861  17.459  0.00  0.00    -0.166 F 
ATOM     22  C   UNL     1     -10.757   8.104  17.673  0.00  0.00    +0.417 C 
ENDBRANCH  21  22
ENDBRANCH   5  16
TORSDOF 5
ENDMDL
MODEL 9
REMARK VINA RESULT:      -5.5     28.213     31.136
REMARK  Name = 75536869
REMARK  5 active torsions:
REMARK  status: ('A' for Active; 'I' for Inactive)
REMARK    1  A    between atoms: O_5  and  C_13
REMARK    2  A    between atoms: O_5  and  C_16
REMARK    3  A    between atoms: N_6  and  C_10
REMARK    4  A    between atoms: C_7  and  C_10
REMARK    5  A    between atoms: C_21  and  C_22
REMARK                            x       y       z     vdW  Elec       q    Type
REMARK                         _______ _______ _______ _____ _____    ______ ____
ROOT
ATOM      5  O   UNL     1     -15.420   4.259  22.565  0.00  0.00    -0.485 OA
ENDROOT
BRANCH   5  13
ATOM      4  O   UNL     1     -18.174   5.745  24.342  0.00  0.00    -0.375 OA
ATOM      6  N   UNL     1     -16.656   3.601  26.022  0.00  0.00    -0.296 NA
ATOM     11  C   UNL     1     -15.752   3.670  24.869  0.00  0.00    +0.131 C 
ATOM     12  C   UNL     1     -17.194   4.895  26.445  0.00  0.00    +0.112 C 
ATOM     13  C   UNL     1     -16.080   4.681  23.759  0.00  0.00    +0.213 C 
ATOM     14  C   UNL     1     -18.448   5.228  25.638  0.00  0.00    +0.175 C 
ATOM     15  C   UNL     1     -17.565   4.817  23.452  0.00  0.00    +0.205 C 
BRANCH   6  10
ATOM     10  C   UNL     1     -16.004   2.904  27.131  0.00  0.00    +0.088 C 
BRANCH  10   7
ATOM      7  C   UNL     1     -16.067   3.706  28.390  0.00  0.00    +0.003 C 
ATOM      8  C   UNL     1     -15.040   3.503  29.470  0.00  0.00    +0.005 C 
ATOM      9  C   UNL     1     -16.457   3.051  29.687  0.00  0.00    +0.005 C 
ENDBRANCH  10   7
ENDBRANCH   6  10
ENDBRANCH   5  13
BRANCH   5  16
ATOM     16  C   UNL     1     -14.584   5.167  21.975  0.00  0.00    +0.121 A 
ATOM     17  C   UNL     1     -13.206   5.078  22.175  0.00  0.00    +0.046 A 
ATOM     18  C   UNL     1     -15.109   6.182  21.176  0.00  0.00    +0.046 A 
ATOM     19  C   UNL     1     -12.354   6.005  21.575  0.00  0.00    +0.016 A 
ATOM     20  C   UNL     1     -14.255   7.109  20.576  0.00  0.00    +0.016 A 
ATOM     21  C   UNL     1     -12.878   7.020  20.775  0.00  0.00    +0.055 A 
BRANCH  21  22
ATOM      1  F   UNL     1     -12.159   8.138  18.788  0.00  0.00    -0.166 F 
ATOM      2  F   UNL     1     -10.642   7.708  20.277  0.00  0.00    -0.166 F 
ATOM      3  F   UNL     1     -12.112   9.267  20.645  0.00  0.00    -0.166 F 
ATOM     22  C   UNL     1     -11.966   8.010  20.134  0.00  0.00    +0.417 C 
ENDBRANCH  21  22
ENDBRANCH   5  16
TORSDOF 5
ENDMDL
MODEL 10
REMARK VINA RESULT:      -5.5     25.757     28.120
REMARK  Name = 75536869
REMARK  5 active torsions:
REMARK  status: ('A' for Active; 'I' for Inactive)
REMARK    1  A    between atoms: O_5  and  C_13
REMARK    2  A    between atoms: O_5  and  C_16
REMARK    3  A    between atoms: N_6  and  C_10
REMARK    4  A    between atoms: C_7  and  C_10
REMARK    5  A    between atoms: C_21  and  C_22
REMARK                            x       y       z     vdW  Elec       q    Type
REMARK                         _______ _______ _______ _____ _____    ______ ____
ROOT
ATOM      5  O   UNL     1     -12.151   9.862  19.412  0.00  0.00    -0.485 OA
ENDROOT
BRANCH   5  13
ATOM      4  O   UNL     1     -12.631   8.418  16.150  0.00  0.00    -0.375 OA
ATOM      6  N   UNL     1     -11.111  11.139  16.065  0.00  0.00    -0.296 NA
ATOM     11  C   UNL     1     -11.143  10.941  17.518  0.00  0.00    +0.131 C 
ATOM     12  C   UNL     1     -10.865   9.919  15.295  0.00  0.00    +0.112 C 
ATOM     13  C   UNL     1     -11.773   9.645  18.052  0.00  0.00    +0.213 C 
ATOM     14  C   UNL     1     -12.183   9.187  15.042  0.00  0.00    +0.175 C 
ATOM     15  C   UNL     1     -13.008   9.185  17.288  0.00  0.00    +0.205 C 
BRANCH   6  10
ATOM     10  C   UNL     1     -10.154  12.191  15.722  0.00  0.00    +0.088 C 
BRANCH  10   7
ATOM      7  C   UNL     1      -9.292  12.545  16.890  0.00  0.00    +0.003 C 
ATOM      8  C   UNL     1      -9.148  13.979  17.318  0.00  0.00    +0.005 C 
ATOM      9  C   UNL     1      -7.990  13.266  16.680  0.00  0.00    +0.005 C 
ENDBRANCH  10   7
ENDBRANCH   6  10
ENDBRANCH   5  13
BRANCH   5  16
ATOM     16  C   UNL     1     -12.473   8.751  20.142  0.00  0.00    +0.121 A 
ATOM     17  C   UNL     1     -13.683   8.697  20.834  0.00  0.00    +0.046 A 
ATOM     18  C   UNL     1     -11.590   7.672  20.195  0.00  0.00    +0.046 A 
ATOM     19  C   UNL     1     -14.010   7.565  21.579  0.00  0.00    +0.016 A 
ATOM     20  C   UNL     1     -11.918   6.539  20.940  0.00  0.00    +0.016 A 
ATOM     21  C   UNL     1     -13.127   6.485  21.632  0.00  0.00    +0.055 A 
BRANCH  21  22
ATOM      1  F   UNL     1     -14.244   4.374  21.746  0.00  0.00    -0.166 F 
ATOM      2  F   UNL     1     -14.181   5.552  23.566  0.00  0.00    -0.166 F 
ATOM      3  F   UNL     1     -12.377   4.580  22.840  0.00  0.00    -0.166 F 
ATOM     22  C   UNL     1     -13.477   5.274  22.429  0.00  0.00    +0.417 C 
ENDBRANCH  21  22
ENDBRANCH   5  16
TORSDOF 5
ENDMDL
