MODEL 1
REMARK VINA RESULT:      -7.2      0.000      0.000
REMARK  Name = 9421697
REMARK  4 active torsions:
REMARK  status: ('A' for Active; 'I' for Inactive)
REMARK    1  A    between atoms: O_3  and  C_29
REMARK    2  A    between atoms: O_3  and  C_30
REMARK    3  A    between atoms: C_13  and  C_14
REMARK    4  A    between atoms: C_23  and  C_24
REMARK                            x       y       z     vdW  Elec       q    Type
REMARK                         _______ _______ _______ _____ _____    ______ ____
ROOT
ATOM      1  O   UNL     1      10.592   9.291  21.961  0.00  0.00    -0.267 OA
ATOM      2  O   UNL     1      15.196   6.959  21.688  0.00  0.00    -0.270 OA
ATOM      4  N   UNL     1      12.042   9.470  20.140  0.00  0.00    -0.312 N 
ATOM      5  N   UNL     1      14.802   7.995  19.627  0.00  0.00    -0.297 N 
ATOM      6  C   UNL     1      12.589   7.490  18.609  0.00  0.00    +0.027 C 
ATOM      7  C   UNL     1      13.647   9.677  18.210  0.00  0.00    +0.054 C 
ATOM      8  C   UNL     1      12.839   8.560  17.551  0.00  0.00    +0.018 C 
ATOM      9  C   UNL     1      11.731   8.094  19.728  0.00  0.00    +0.130 C 
ATOM     10  C   UNL     1      13.924   6.934  19.136  0.00  0.00    +0.113 C 
ATOM     11  C   UNL     1      14.999   9.118  18.695  0.00  0.00    +0.117 C 
ATOM     12  C   UNL     1      12.894  10.277  19.382  0.00  0.00    +0.027 A 
ATOM     14  C   UNL     1      11.609  11.398  21.634  0.00  0.00    +0.020 A 
ATOM     15  C   UNL     1      11.363   9.961  21.274  0.00  0.00    +0.255 A 
ATOM     16  C   UNL     1      13.073  11.567  19.713  0.00  0.00    +0.022 A 
ATOM     19  C   UNL     1      12.419  12.130  20.858  0.00  0.00    +0.011 A 
ATOM     23  C   UNL     1      15.357   7.894  20.904  0.00  0.00    +0.247 C 
ENDROOT
BRANCH  14  13
ATOM     13  C   UNL     1      10.918  11.943  22.848  0.00  0.00    +0.024 C 
ATOM     17  C   UNL     1      10.543  13.419  22.647  0.00  0.00    +0.008 C 
ATOM     18  C   UNL     1      11.792  11.770  24.098  0.00  0.00    +0.008 C 
ATOM     20  C   UNL     1       9.881  14.008  23.890  0.00  0.00    +0.001 C 
ATOM     21  C   UNL     1      11.128  12.364  25.339  0.00  0.00    +0.001 C 
ATOM     22  C   UNL     1      10.749  13.826  25.130  0.00  0.00    +0.000 C 
ENDBRANCH  14  13
BRANCH  23  24
ATOM     24  C   UNL     1      16.194   9.000  21.380  0.00  0.00    +0.037 A 
ATOM     25  C   UNL     1      15.600  10.117  21.964  0.00  0.00    +0.016 A 
ATOM     26  C   UNL     1      17.578   8.930  21.247  0.00  0.00    +0.016 A 
ATOM     27  C   UNL     1      16.396  11.169  22.417  0.00  0.00    +0.046 A 
ATOM     28  C   UNL     1      18.375   9.982  21.699  0.00  0.00    +0.046 A 
ATOM     29  C   UNL     1      17.783  11.102  22.285  0.00  0.00    +0.120 A 
BRANCH  29   3
ATOM      3  O   UNL     1      18.560  12.127  22.728  0.00  0.00    -0.495 OA
ATOM     30  C   UNL     1      18.262  12.656  24.020  0.00  0.00    +0.277 C 
ENDBRANCH  29   3
ENDBRANCH  23  24
TORSDOF 3
ENDMDL
MODEL 2
REMARK VINA RESULT:      -6.5     28.166     31.163
REMARK  Name = 9421697
REMARK  4 active torsions:
REMARK  status: ('A' for Active; 'I' for Inactive)
REMARK    1  A    between atoms: O_3  and  C_29
REMARK    2  A    between atoms: O_3  and  C_30
REMARK    3  A    between atoms: C_13  and  C_14
REMARK    4  A    between atoms: C_23  and  C_24
REMARK                            x       y       z     vdW  Elec       q    Type
REMARK                         _______ _______ _______ _____ _____    ______ ____
ROOT
ATOM      1  O   UNL     1     -11.126  -9.370  19.362  0.00  0.00    -0.267 OA
ATOM      2  O   UNL     1      -6.438 -11.243  20.464  0.00  0.00    -0.270 OA
ATOM      4  N   UNL     1     -10.351 -11.453  18.650  0.00  0.00    -0.312 N 
ATOM      5  N   UNL     1      -7.629 -12.922  19.348  0.00  0.00    -0.297 N 
ATOM      6  C   UNL     1      -9.893 -13.385  20.269  0.00  0.00    +0.027 C 
ATOM      7  C   UNL     1      -9.469 -13.678  17.862  0.00  0.00    +0.054 C 
ATOM      8  C   UNL     1     -10.192 -14.276  19.068  0.00  0.00    +0.018 C 
ATOM      9  C   UNL     1     -10.483 -11.993  20.010  0.00  0.00    +0.130 C 
ATOM     10  C   UNL     1      -8.378 -13.332  20.535  0.00  0.00    +0.113 C 
ATOM     11  C   UNL     1      -7.950 -13.670  18.123  0.00  0.00    +0.117 C 
ATOM     12  C   UNL     1      -9.946 -12.264  17.586  0.00  0.00    +0.027 A 
ATOM     14  C   UNL     1     -10.704  -9.597  17.049  0.00  0.00    +0.020 A 
ATOM     15  C   UNL     1     -10.748 -10.115  18.457  0.00  0.00    +0.255 A 
ATOM     16  C   UNL     1      -9.943 -11.781  16.333  0.00  0.00    +0.022 A 
ATOM     19  C   UNL     1     -10.328 -10.425  16.066  0.00  0.00    +0.011 A 
ATOM     23  C   UNL     1      -6.711 -11.874  19.442  0.00  0.00    +0.247 C 
ENDROOT
BRANCH  14  13
ATOM     13  C   UNL     1     -11.099  -8.169  16.815  0.00  0.00    +0.024 C 
ATOM     17  C   UNL     1     -12.525  -8.082  16.253  0.00  0.00    +0.008 C 
ATOM     18  C   UNL     1     -10.102  -7.472  15.880  0.00  0.00    +0.008 C 
ATOM     20  C   UNL     1     -12.931  -6.639  15.962  0.00  0.00    +0.001 C 
ATOM     21  C   UNL     1     -10.513  -6.030  15.588  0.00  0.00    +0.001 C 
ATOM     22  C   UNL     1     -11.933  -5.949  15.038  0.00  0.00    +0.000 C 
ENDBRANCH  14  13
BRANCH  23  24
ATOM     24  C   UNL     1      -6.014 -11.459  18.221  0.00  0.00    +0.037 A 
ATOM     25  C   UNL     1      -4.759 -11.987  17.926  0.00  0.00    +0.016 A 
ATOM     26  C   UNL     1      -6.608 -10.539  17.360  0.00  0.00    +0.016 A 
ATOM     27  C   UNL     1      -4.095 -11.593  16.763  0.00  0.00    +0.046 A 
ATOM     28  C   UNL     1      -5.945 -10.145  16.198  0.00  0.00    +0.046 A 
ATOM     29  C   UNL     1      -4.688 -10.672  15.900  0.00  0.00    +0.120 A 
BRANCH  29   3
ATOM      3  O   UNL     1      -4.042 -10.289  14.766  0.00  0.00    -0.495 OA
ATOM     30  C   UNL     1      -2.695 -10.730  14.605  0.00  0.00    +0.277 C 
ENDBRANCH  29   3
ENDBRANCH  23  24
TORSDOF 3
ENDMDL
MODEL 3
REMARK VINA RESULT:      -6.5     22.414     24.440
REMARK  Name = 9421697
REMARK  4 active torsions:
REMARK  status: ('A' for Active; 'I' for Inactive)
REMARK    1  A    between atoms: O_3  and  C_29
REMARK    2  A    between atoms: O_3  and  C_30
REMARK    3  A    between atoms: C_13  and  C_14
REMARK    4  A    between atoms: C_23  and  C_24
REMARK                            x       y       z     vdW  Elec       q    Type
REMARK                         _______ _______ _______ _____ _____    ______ ____
ROOT
ATOM      1  O   UNL     1       9.783  -9.233  32.723  0.00  0.00    -0.267 OA
ATOM      2  O   UNL     1       9.197  -7.627  37.599  0.00  0.00    -0.270 OA
ATOM      4  N   UNL     1       8.837  -7.184  33.319  0.00  0.00    -0.312 N 
ATOM      5  N   UNL     1       8.550  -5.872  36.192  0.00  0.00    -0.297 N 
ATOM      6  C   UNL     1      10.190  -5.302  34.410  0.00  0.00    +0.027 C 
ATOM      7  C   UNL     1       7.782  -4.999  33.997  0.00  0.00    +0.054 C 
ATOM      8  C   UNL     1       9.160  -4.380  33.767  0.00  0.00    +0.018 C 
ATOM      9  C   UNL     1      10.157  -6.657  33.692  0.00  0.00    +0.130 C 
ATOM     10  C   UNL     1       9.919  -5.439  35.920  0.00  0.00    +0.113 C 
ATOM     11  C   UNL     1       7.505  -5.091  35.511  0.00  0.00    +0.117 C 
ATOM     12  C   UNL     1       7.694  -6.381  33.378  0.00  0.00    +0.027 A 
ATOM     14  C   UNL     1       7.464  -8.997  32.337  0.00  0.00    +0.020 A 
ATOM     15  C   UNL     1       8.800  -8.497  32.808  0.00  0.00    +0.255 A 
ATOM     16  C   UNL     1       6.519  -6.847  32.925  0.00  0.00    +0.022 A 
ATOM     19  C   UNL     1       6.408  -8.176  32.398  0.00  0.00    +0.011 A 
ATOM     23  C   UNL     1       8.328  -6.969  37.027  0.00  0.00    +0.247 C 
ENDROOT
BRANCH  14  13
ATOM     13  C   UNL     1       7.389 -10.399  31.809  0.00  0.00    +0.024 C 
ATOM     17  C   UNL     1       7.036 -10.400  30.314  0.00  0.00    +0.008 C 
ATOM     18  C   UNL     1       6.375 -11.230  32.607  0.00  0.00    +0.008 C 
ATOM     20  C   UNL     1       6.906 -11.819  29.766  0.00  0.00    +0.001 C 
ATOM     21  C   UNL     1       6.246 -12.647  32.054  0.00  0.00    +0.001 C 
ATOM     22  C   UNL     1       5.904 -12.642  30.567  0.00  0.00    +0.000 C 
ENDBRANCH  14  13
BRANCH  23  24
ATOM     24  C   UNL     1       6.943  -7.404  37.239  0.00  0.00    +0.037 A 
ATOM     25  C   UNL     1       6.359  -8.307  36.355  0.00  0.00    +0.016 A 
ATOM     26  C   UNL     1       6.220  -6.913  38.323  0.00  0.00    +0.016 A 
ATOM     27  C   UNL     1       5.041  -8.722  36.556  0.00  0.00    +0.046 A 
ATOM     28  C   UNL     1       4.903  -7.326  38.524  0.00  0.00    +0.046 A 
ATOM     29  C   UNL     1       4.314  -8.231  37.640  0.00  0.00    +0.120 A 
BRANCH  29   3
ATOM      3  O   UNL     1       3.030  -8.636  37.838  0.00  0.00    -0.495 OA
ATOM     30  C   UNL     1       2.554  -9.706  37.021  0.00  0.00    +0.277 C 
ENDBRANCH  29   3
ENDBRANCH  23  24
TORSDOF 3
ENDMDL
MODEL 4
REMARK VINA RESULT:      -6.5     12.286     16.128
REMARK  Name = 9421697
REMARK  4 active torsions:
REMARK  status: ('A' for Active; 'I' for Inactive)
REMARK    1  A    between atoms: O_3  and  C_29
REMARK    2  A    between atoms: O_3  and  C_30
REMARK    3  A    between atoms: C_13  and  C_14
REMARK    4  A    between atoms: C_23  and  C_24
REMARK                            x       y       z     vdW  Elec       q    Type
REMARK                         _______ _______ _______ _____ _____    ______ ____
ROOT
ATOM      1  O   UNL     1      12.502   7.559   3.363  0.00  0.00    -0.267 OA
ATOM      2  O   UNL     1       8.589   9.759   5.922  0.00  0.00    -0.270 OA
ATOM      4  N   UNL     1      11.611   6.727   5.353  0.00  0.00    -0.312 N 
ATOM      5  N   UNL     1       9.104   7.748   7.004  0.00  0.00    -0.297 N 
ATOM      6  C   UNL     1       9.242   5.763   5.511  0.00  0.00    +0.027 C 
ATOM      7  C   UNL     1      10.654   5.879   7.524  0.00  0.00    +0.054 C 
ATOM      8  C   UNL     1       9.806   4.942   6.666  0.00  0.00    +0.018 C 
ATOM      9  C   UNL     1      10.407   6.265   4.648  0.00  0.00    +0.130 C 
ATOM     10  C   UNL     1       8.376   6.918   6.045  0.00  0.00    +0.113 C 
ATOM     11  C   UNL     1       9.767   7.006   8.089  0.00  0.00    +0.117 C 
ATOM     12  C   UNL     1      11.790   6.480   6.717  0.00  0.00    +0.027 A 
ATOM     14  C   UNL     1      13.880   7.718   5.275  0.00  0.00    +0.020 A 
ATOM     15  C   UNL     1      12.611   7.336   4.569  0.00  0.00    +0.255 A 
ATOM     16  C   UNL     1      12.947   6.808   7.315  0.00  0.00    +0.022 A 
ATOM     19  C   UNL     1      14.004   7.438   6.578  0.00  0.00    +0.011 A 
ATOM     23  C   UNL     1       9.141   9.133   6.827  0.00  0.00    +0.247 C 
ENDROOT
BRANCH  14  13
ATOM     13  C   UNL     1      14.953   8.389   4.471  0.00  0.00    +0.024 C 
ATOM     17  C   UNL     1      16.175   7.471   4.319  0.00  0.00    +0.008 C 
ATOM     18  C   UNL     1      15.355   9.728   5.105  0.00  0.00    +0.008 C 
ATOM     20  C   UNL     1      17.301   8.152   3.544  0.00  0.00    +0.001 C 
ATOM     21  C   UNL     1      16.483  10.404   4.330  0.00  0.00    +0.001 C 
ATOM     22  C   UNL     1      17.690   9.485   4.174  0.00  0.00    +0.000 C 
ENDBRANCH  14  13
BRANCH  23  24
ATOM     24  C   UNL     1       9.921   9.927   7.782  0.00  0.00    +0.037 A 
ATOM     25  C   UNL     1       9.299  10.457   8.910  0.00  0.00    +0.016 A 
ATOM     26  C   UNL     1      11.277  10.148   7.557  0.00  0.00    +0.016 A 
ATOM     27  C   UNL     1      10.041  11.213   9.820  0.00  0.00    +0.046 A 
ATOM     28  C   UNL     1      12.018  10.904   8.466  0.00  0.00    +0.046 A 
ATOM     29  C   UNL     1      11.399  11.437   9.597  0.00  0.00    +0.120 A 
BRANCH  29   3
ATOM      3  O   UNL     1      12.122  12.172  10.485  0.00  0.00    -0.495 OA
ATOM     30  C   UNL     1      11.637  12.232  11.826  0.00  0.00    +0.277 C 
ENDBRANCH  29   3
ENDBRANCH  23  24
TORSDOF 3
ENDMDL
MODEL 5
REMARK VINA RESULT:      -6.3     28.207     30.147
REMARK  Name = 9421697
REMARK  4 active torsions:
REMARK  status: ('A' for Active; 'I' for Inactive)
REMARK    1  A    between atoms: O_3  and  C_29
REMARK    2  A    between atoms: O_3  and  C_30
REMARK    3  A    between atoms: C_13  and  C_14
REMARK    4  A    between atoms: C_23  and  C_24
REMARK                            x       y       z     vdW  Elec       q    Type
REMARK                         _______ _______ _______ _____ _____    ______ ____
ROOT
ATOM      1  O   UNL     1      -6.644 -10.122  14.549  0.00  0.00    -0.267 OA
ATOM      2  O   UNL     1      -5.432 -14.016  11.377  0.00  0.00    -0.270 OA
ATOM      4  N   UNL     1      -4.519 -10.457  13.645  0.00  0.00    -0.312 N 
ATOM      5  N   UNL     1      -3.562 -12.619  11.531  0.00  0.00    -0.297 N 
ATOM      6  C   UNL     1      -4.026 -10.205  11.143  0.00  0.00    +0.027 C 
ATOM      7  C   UNL     1      -2.226 -10.871  12.685  0.00  0.00    +0.054 C 
ATOM      8  C   UNL     1      -2.611  -9.867  11.601  0.00  0.00    +0.018 C 
ATOM      9  C   UNL     1      -4.986 -10.012  12.324  0.00  0.00    +0.130 C 
ATOM     10  C   UNL     1      -4.080 -11.637  10.579  0.00  0.00    +0.113 C 
ATOM     11  C   UNL     1      -2.242 -12.296  12.098  0.00  0.00    +0.117 C 
ATOM     12  C   UNL     1      -3.181 -10.795  13.863  0.00  0.00    +0.027 A 
ATOM     14  C   UNL     1      -4.956 -10.790  16.060  0.00  0.00    +0.020 A 
ATOM     15  C   UNL     1      -5.461 -10.428  14.693  0.00  0.00    +0.255 A 
ATOM     16  C   UNL     1      -2.752 -11.088  15.101  0.00  0.00    +0.022 A 
ATOM     19  C   UNL     1      -3.659 -11.084  16.213  0.00  0.00    +0.011 A 
ATOM     23  C   UNL     1      -4.329 -13.742  11.847  0.00  0.00    +0.247 C 
ENDROOT
BRANCH  14  13
ATOM     13  C   UNL     1      -5.940 -10.789  17.192  0.00  0.00    +0.024 C 
ATOM     17  C   UNL     1      -5.220 -10.642  18.541  0.00  0.00    +0.008 C 
ATOM     18  C   UNL     1      -6.798 -12.062  17.170  0.00  0.00    +0.008 C 
ATOM     20  C   UNL     1      -6.199 -10.688  19.711  0.00  0.00    +0.001 C 
ATOM     21  C   UNL     1      -7.773 -12.106  18.344  0.00  0.00    +0.001 C 
ATOM     22  C   UNL     1      -7.054 -11.950  19.680  0.00  0.00    +0.000 C 
ENDBRANCH  14  13
BRANCH  23  24
ATOM     24  C   UNL     1      -3.797 -14.680  12.841  0.00  0.00    +0.037 A 
ATOM     25  C   UNL     1      -4.038 -14.463  14.196  0.00  0.00    +0.016 A 
ATOM     26  C   UNL     1      -3.055 -15.783  12.427  0.00  0.00    +0.016 A 
ATOM     27  C   UNL     1      -3.533 -15.356  15.142  0.00  0.00    +0.046 A 
ATOM     28  C   UNL     1      -2.549 -16.675  13.373  0.00  0.00    +0.046 A 
ATOM     29  C   UNL     1      -2.788 -16.461  14.730  0.00  0.00    +0.120 A 
BRANCH  29   3
ATOM      3  O   UNL     1      -2.297 -17.333  15.653  0.00  0.00    -0.495 OA
ATOM     30  C   UNL     1      -0.878 -17.422  15.771  0.00  0.00    +0.277 C 
ENDBRANCH  29   3
ENDBRANCH  23  24
TORSDOF 3
ENDMDL
MODEL 6
REMARK VINA RESULT:      -6.2     14.844     18.374
REMARK  Name = 9421697
REMARK  4 active torsions:
REMARK  status: ('A' for Active; 'I' for Inactive)
REMARK    1  A    between atoms: O_3  and  C_29
REMARK    2  A    between atoms: O_3  and  C_30
REMARK    3  A    between atoms: C_13  and  C_14
REMARK    4  A    between atoms: C_23  and  C_24
REMARK                            x       y       z     vdW  Elec       q    Type
REMARK                         _______ _______ _______ _____ _____    ______ ____
ROOT
ATOM      1  O   UNL     1       8.300   7.863   2.987  0.00  0.00    -0.267 OA
ATOM      2  O   UNL     1      11.458  10.231   6.321  0.00  0.00    -0.270 OA
ATOM      4  N   UNL     1       9.272   6.817   4.833  0.00  0.00    -0.312 N 
ATOM      5  N   UNL     1      11.060   8.072   7.132  0.00  0.00    -0.297 N 
ATOM      6  C   UNL     1       8.660   7.424   7.246  0.00  0.00    +0.027 C 
ATOM      7  C   UNL     1      10.370   5.708   6.810  0.00  0.00    +0.054 C 
ATOM      8  C   UNL     1       9.070   5.989   7.560  0.00  0.00    +0.018 C 
ATOM      9  C   UNL     1       8.370   7.536   5.744  0.00  0.00    +0.130 C 
ATOM     10  C   UNL     1       9.755   8.407   7.700  0.00  0.00    +0.113 C 
ATOM     11  C   UNL     1      11.470   6.669   7.305  0.00  0.00    +0.117 C 
ATOM     12  C   UNL     1      10.184   5.873   5.314  0.00  0.00    +0.027 A 
ATOM     14  C   UNL     1       9.957   6.245   2.522  0.00  0.00    +0.020 A 
ATOM     15  C   UNL     1       9.101   7.054   3.454  0.00  0.00    +0.255 A 
ATOM     16  C   UNL     1      10.917   5.146   4.455  0.00  0.00    +0.022 A 
ATOM     19  C   UNL     1      10.798   5.340   3.039  0.00  0.00    +0.011 A 
ATOM     23  C   UNL     1      11.795   9.057   6.469  0.00  0.00    +0.247 C 
ENDROOT
BRANCH  14  13
ATOM     13  C   UNL     1       9.814   6.490   1.050  0.00  0.00    +0.024 C 
ATOM     17  C   UNL     1       9.892   5.171   0.267  0.00  0.00    +0.008 C 
ATOM     18  C   UNL     1      10.876   7.480   0.555  0.00  0.00    +0.008 C 
ATOM     20  C   UNL     1       9.797   5.402  -1.240  0.00  0.00    +0.001 C 
ATOM     21  C   UNL     1      10.780   7.706  -0.953  0.00  0.00    +0.001 C 
ATOM     22  C   UNL     1      10.850   6.392  -1.725  0.00  0.00    +0.000 C 
ENDBRANCH  14  13
BRANCH  23  24
ATOM     24  C   UNL     1      13.078   8.672   5.871  0.00  0.00    +0.037 A 
ATOM     25  C   UNL     1      13.108   8.123   4.591  0.00  0.00    +0.016 A 
ATOM     26  C   UNL     1      14.259   8.857   6.584  0.00  0.00    +0.016 A 
ATOM     27  C   UNL     1      14.328   7.757   4.022  0.00  0.00    +0.046 A 
ATOM     28  C   UNL     1      15.479   8.490   6.015  0.00  0.00    +0.046 A 
ATOM     29  C   UNL     1      15.513   7.941   4.734  0.00  0.00    +0.120 A 
BRANCH  29   3
ATOM      3  O   UNL     1      16.703   7.586   4.178  0.00  0.00    -0.495 OA
ATOM     30  C   UNL     1      17.825   8.423   4.456  0.00  0.00    +0.277 C 
ENDBRANCH  29   3
ENDBRANCH  23  24
TORSDOF 3
ENDMDL
MODEL 7
REMARK VINA RESULT:      -6.2     28.485     30.506
REMARK  Name = 9421697
REMARK  4 active torsions:
REMARK  status: ('A' for Active; 'I' for Inactive)
REMARK    1  A    between atoms: O_3  and  C_29
REMARK    2  A    between atoms: O_3  and  C_30
REMARK    3  A    between atoms: C_13  and  C_14
REMARK    4  A    between atoms: C_23  and  C_24
REMARK                            x       y       z     vdW  Elec       q    Type
REMARK                         _______ _______ _______ _____ _____    ______ ____
ROOT
ATOM      1  O   UNL     1      -6.948 -10.007  14.247  0.00  0.00    -0.267 OA
ATOM      2  O   UNL     1      -7.112 -12.719   9.852  0.00  0.00    -0.270 OA
ATOM      4  N   UNL     1      -5.371  -9.820  12.536  0.00  0.00    -0.312 N 
ATOM      5  N   UNL     1      -5.345 -11.194   9.678  0.00  0.00    -0.297 N 
ATOM      6  C   UNL     1      -5.936  -8.843  10.237  0.00  0.00    +0.027 C 
ATOM      7  C   UNL     1      -3.663  -9.672  10.690  0.00  0.00    +0.054 C 
ATOM      8  C   UNL     1      -4.459  -8.468  10.190  0.00  0.00    +0.018 C 
ATOM      9  C   UNL     1      -6.335  -9.096  11.696  0.00  0.00    +0.130 C 
ATOM     10  C   UNL     1      -6.209 -10.064   9.340  0.00  0.00    +0.113 C 
ATOM     11  C   UNL     1      -3.911 -10.876   9.759  0.00  0.00    +0.117 C 
ATOM     12  C   UNL     1      -4.058 -10.036  12.109  0.00  0.00    +0.027 A 
ATOM     14  C   UNL     1      -4.789 -10.844  14.715  0.00  0.00    +0.020 A 
ATOM     15  C   UNL     1      -5.807 -10.192  13.824  0.00  0.00    +0.255 A 
ATOM     16  C   UNL     1      -3.163 -10.597  12.938  0.00  0.00    +0.022 A 
ATOM     19  C   UNL     1      -3.540 -11.006  14.260  0.00  0.00    +0.011 A 
ATOM     23  C   UNL     1      -5.914 -12.447   9.917  0.00  0.00    +0.247 C 
ENDROOT
BRANCH  14  13
ATOM     13  C   UNL     1      -5.229 -11.272  16.084  0.00  0.00    +0.024 C 
ATOM     17  C   UNL     1      -4.812 -10.237  17.139  0.00  0.00    +0.008 C 
ATOM     18  C   UNL     1      -4.668 -12.658  16.430  0.00  0.00    +0.008 C 
ATOM     20  C   UNL     1      -5.207 -10.675  18.547  0.00  0.00    +0.001 C 
ATOM     21  C   UNL     1      -5.062 -13.091  17.840  0.00  0.00    +0.001 C 
ATOM     22  C   UNL     1      -4.654 -12.056  18.883  0.00  0.00    +0.000 C 
ENDBRANCH  14  13
BRANCH  23  24
ATOM     24  C   UNL     1      -5.021 -13.546  10.301  0.00  0.00    +0.037 A 
ATOM     25  C   UNL     1      -4.641 -13.696  11.633  0.00  0.00    +0.016 A 
ATOM     26  C   UNL     1      -4.558 -14.434   9.334  0.00  0.00    +0.016 A 
ATOM     27  C   UNL     1      -3.792 -14.741  11.998  0.00  0.00    +0.046 A 
ATOM     28  C   UNL     1      -3.709 -15.478   9.699  0.00  0.00    +0.046 A 
ATOM     29  C   UNL     1      -3.326 -15.632  11.032  0.00  0.00    +0.120 A 
BRANCH  29   3
ATOM      3  O   UNL     1      -2.499 -16.652  11.388  0.00  0.00    -0.495 OA
ATOM     30  C   UNL     1      -1.193 -16.301  11.844  0.00  0.00    +0.277 C 
ENDBRANCH  29   3
ENDBRANCH  23  24
TORSDOF 3
ENDMDL
MODEL 8
REMARK VINA RESULT:      -6.1     18.678     22.359
REMARK  Name = 9421697
REMARK  4 active torsions:
REMARK  status: ('A' for Active; 'I' for Inactive)
REMARK    1  A    between atoms: O_3  and  C_29
REMARK    2  A    between atoms: O_3  and  C_30
REMARK    3  A    between atoms: C_13  and  C_14
REMARK    4  A    between atoms: C_23  and  C_24
REMARK                            x       y       z     vdW  Elec       q    Type
REMARK                         _______ _______ _______ _____ _____    ______ ____
ROOT
ATOM      1  O   UNL     1      12.583   7.818   2.540  0.00  0.00    -0.267 OA
ATOM      2  O   UNL     1      13.942   6.346  -2.223  0.00  0.00    -0.270 OA
ATOM      4  N   UNL     1      12.849   5.593   1.886  0.00  0.00    -0.312 N 
ATOM      5  N   UNL     1      13.868   4.430  -0.882  0.00  0.00    -0.297 N 
ATOM      6  C   UNL     1      15.126   4.601   1.258  0.00  0.00    +0.027 C 
ATOM      7  C   UNL     1      13.104   3.202   1.137  0.00  0.00    +0.054 C 
ATOM      8  C   UNL     1      14.517   3.279   1.714  0.00  0.00    +0.018 C 
ATOM      9  C   UNL     1      14.310   5.753   1.857  0.00  0.00    +0.130 C 
ATOM     10  C   UNL     1      15.179   4.666  -0.280  0.00  0.00    +0.113 C 
ATOM     11  C   UNL     1      13.173   3.224  -0.403  0.00  0.00    +0.117 C 
ATOM     12  C   UNL     1      12.251   4.357   1.626  0.00  0.00    +0.027 A 
ATOM     14  C   UNL     1      10.612   6.521   2.409  0.00  0.00    +0.020 A 
ATOM     15  C   UNL     1      12.096   6.716   2.286  0.00  0.00    +0.255 A 
ATOM     16  C   UNL     1      10.925   4.206   1.770  0.00  0.00    +0.022 A 
ATOM     19  C   UNL     1      10.097   5.309   2.168  0.00  0.00    +0.011 A 
ATOM     23  C   UNL     1      13.367   5.337  -1.818  0.00  0.00    +0.247 C 
ENDROOT
BRANCH  14  13
ATOM     13  C   UNL     1       9.782   7.703   2.811  0.00  0.00    +0.024 C 
ATOM     17  C   UNL     1       8.807   7.328   3.937  0.00  0.00    +0.008 C 
ATOM     18  C   UNL     1       9.025   8.275   1.604  0.00  0.00    +0.008 C 
ATOM     20  C   UNL     1       7.918   8.506   4.329  0.00  0.00    +0.001 C 
ATOM     21  C   UNL     1       8.134   9.450   2.001  0.00  0.00    +0.001 C 
ATOM     22  C   UNL     1       7.174   9.074   3.125  0.00  0.00    +0.000 C 
ENDBRANCH  14  13
BRANCH  23  24
ATOM     24  C   UNL     1      12.029   5.092  -2.365  0.00  0.00    +0.037 A 
ATOM     25  C   UNL     1      11.886   4.382  -3.555  0.00  0.00    +0.016 A 
ATOM     26  C   UNL     1      10.906   5.568  -1.693  0.00  0.00    +0.016 A 
ATOM     27  C   UNL     1      10.612   4.148  -4.076  0.00  0.00    +0.046 A 
ATOM     28  C   UNL     1       9.633   5.335  -2.213  0.00  0.00    +0.046 A 
ATOM     29  C   UNL     1       9.487   4.625  -3.405  0.00  0.00    +0.120 A 
BRANCH  29   3
ATOM      3  O   UNL     1       8.245   4.396  -3.911  0.00  0.00    -0.495 OA
ATOM     30  C   UNL     1       7.500   5.533  -4.345  0.00  0.00    +0.277 C 
ENDBRANCH  29   3
ENDBRANCH  23  24
TORSDOF 3
ENDMDL
MODEL 9
REMARK VINA RESULT:      -5.9     15.231     18.834
REMARK  Name = 9421697
REMARK  4 active torsions:
REMARK  status: ('A' for Active; 'I' for Inactive)
REMARK    1  A    between atoms: O_3  and  C_29
REMARK    2  A    between atoms: O_3  and  C_30
REMARK    3  A    between atoms: C_13  and  C_14
REMARK    4  A    between atoms: C_23  and  C_24
REMARK                            x       y       z     vdW  Elec       q    Type
REMARK                         _______ _______ _______ _____ _____    ______ ____
ROOT
ATOM      1  O   UNL     1      22.231  -4.189  25.484  0.00  0.00    -0.267 OA
ATOM      2  O   UNL     1      17.584  -4.661  27.694  0.00  0.00    -0.270 OA
ATOM      4  N   UNL     1      20.210  -3.916  24.348  0.00  0.00    -0.312 N 
ATOM      5  N   UNL     1      17.253  -3.942  25.491  0.00  0.00    -0.297 N 
ATOM      6  C   UNL     1      18.612  -1.970  24.820  0.00  0.00    +0.027 C 
ATOM      7  C   UNL     1      18.012  -3.669  23.143  0.00  0.00    +0.054 C 
ATOM      8  C   UNL     1      18.172  -2.168  23.373  0.00  0.00    +0.018 C 
ATOM      9  C   UNL     1      19.987  -2.623  25.010  0.00  0.00    +0.130 C 
ATOM     10  C   UNL     1      17.559  -2.543  25.785  0.00  0.00    +0.113 C 
ATOM     11  C   UNL     1      16.925  -4.224  24.084  0.00  0.00    +0.117 C 
ATOM     12  C   UNL     1      19.319  -4.401  23.387  0.00  0.00    +0.027 A 
ATOM     14  C   UNL     1      21.681  -5.860  23.906  0.00  0.00    +0.020 A 
ATOM     15  C   UNL     1      21.411  -4.588  24.657  0.00  0.00    +0.255 A 
ATOM     16  C   UNL     1      19.601  -5.527  22.713  0.00  0.00    +0.022 A 
ATOM     19  C   UNL     1      20.802  -6.265  22.981  0.00  0.00    +0.011 A 
ATOM     23  C   UNL     1      17.310  -4.889  26.516  0.00  0.00    +0.247 C 
ENDROOT
BRANCH  14  13
ATOM     13  C   UNL     1      22.940  -6.608  24.229  0.00  0.00    +0.024 C 
ATOM     17  C   UNL     1      24.179  -5.784  23.848  0.00  0.00    +0.008 C 
ATOM     18  C   UNL     1      22.959  -7.974  23.529  0.00  0.00    +0.008 C 
ATOM     20  C   UNL     1      25.472  -6.547  24.123  0.00  0.00    +0.001 C 
ATOM     21  C   UNL     1      24.255  -8.732  23.804  0.00  0.00    +0.001 C 
ATOM     22  C   UNL     1      25.482  -7.906  23.431  0.00  0.00    +0.000 C 
ENDBRANCH  14  13
BRANCH  23  24
ATOM     24  C   UNL     1      17.043  -6.290  26.174  0.00  0.00    +0.037 A 
ATOM     25  C   UNL     1      15.775  -6.826  26.389  0.00  0.00    +0.016 A 
ATOM     26  C   UNL     1      18.056  -7.078  25.635  0.00  0.00    +0.016 A 
ATOM     27  C   UNL     1      15.521  -8.159  26.063  0.00  0.00    +0.046 A 
ATOM     28  C   UNL     1      17.802  -8.410  25.309  0.00  0.00    +0.046 A 
ATOM     29  C   UNL     1      16.534  -8.950  25.524  0.00  0.00    +0.120 A 
BRANCH  29   3
ATOM      3  O   UNL     1      16.285 -10.249  25.204  0.00  0.00    -0.495 OA
ATOM     30  C   UNL     1      14.917 -10.643  25.103  0.00  0.00    +0.277 C 
ENDBRANCH  29   3
ENDBRANCH  23  24
TORSDOF 3
ENDMDL
MODEL 10
REMARK VINA RESULT:      -5.9     15.396     19.078
REMARK  Name = 9421697
REMARK  4 active torsions:
REMARK  status: ('A' for Active; 'I' for Inactive)
REMARK    1  A    between atoms: O_3  and  C_29
REMARK    2  A    between atoms: O_3  and  C_30
REMARK    3  A    between atoms: C_13  and  C_14
REMARK    4  A    between atoms: C_23  and  C_24
REMARK                            x       y       z     vdW  Elec       q    Type
REMARK                         _______ _______ _______ _____ _____    ______ ____
ROOT
ATOM      1  O   UNL     1      10.216  11.316   4.975  0.00  0.00    -0.267 OA
ATOM      2  O   UNL     1      12.732   6.808   4.752  0.00  0.00    -0.270 OA
ATOM      4  N   UNL     1       9.307   9.278   5.659  0.00  0.00    -0.312 N 
ATOM      5  N   UNL     1      10.687   6.427   5.825  0.00  0.00    -0.297 N 
ATOM      6  C   UNL     1      10.180   7.989   7.694  0.00  0.00    +0.027 C 
ATOM      7  C   UNL     1       8.342   7.055   6.349  0.00  0.00    +0.054 C 
ATOM      8  C   UNL     1       8.764   7.429   7.769  0.00  0.00    +0.018 C 
ATOM      9  C   UNL     1      10.159   9.274   6.857  0.00  0.00    +0.130 C 
ATOM     10  C   UNL     1      11.144   6.937   7.117  0.00  0.00    +0.113 C 
ATOM     11  C   UNL     1       9.288   5.970   5.798  0.00  0.00    +0.117 C 
ATOM     12  C   UNL     1       8.369   8.266   5.435  0.00  0.00    +0.027 A 
ATOM     14  C   UNL     1       8.475  10.443   3.638  0.00  0.00    +0.020 A 
ATOM     15  C   UNL     1       9.415  10.396   4.808  0.00  0.00    +0.255 A 
ATOM     16  C   UNL     1       7.523   8.350   4.395  0.00  0.00    +0.022 A 
ATOM     19  C   UNL     1       7.582   9.457   3.485  0.00  0.00    +0.011 A 
ATOM     23  C   UNL     1      11.562   6.427   4.737  0.00  0.00    +0.247 C 
ENDROOT
BRANCH  14  13
ATOM     13  C   UNL     1       8.581  11.609   2.701  0.00  0.00    +0.024 C 
ATOM     17  C   UNL     1       7.234  12.338   2.582  0.00  0.00    +0.008 C 
ATOM     18  C   UNL     1       9.080  11.159   1.321  0.00  0.00    +0.008 C 
ATOM     20  C   UNL     1       7.307  13.501   1.595  0.00  0.00    +0.001 C 
ATOM     21  C   UNL     1       9.148  12.324   0.337  0.00  0.00    +0.001 C 
ATOM     22  C   UNL     1       7.810  13.049   0.229  0.00  0.00    +0.000 C 
ENDBRANCH  14  13
BRANCH  23  24
ATOM     24  C   UNL     1      11.053   5.953   3.445  0.00  0.00    +0.037 A 
ATOM     25  C   UNL     1      10.444   6.850   2.570  0.00  0.00    +0.016 A 
ATOM     26  C   UNL     1      11.181   4.610   3.100  0.00  0.00    +0.016 A 
ATOM     27  C   UNL     1       9.960   6.398   1.341  0.00  0.00    +0.046 A 
ATOM     28  C   UNL     1      10.698   4.160   1.871  0.00  0.00    +0.046 A 
ATOM     29  C   UNL     1      10.087   5.054   0.992  0.00  0.00    +0.120 A 
BRANCH  29   3
ATOM      3  O   UNL     1       9.617   4.615  -0.207  0.00  0.00    -0.495 OA
ATOM     30  C   UNL     1       9.784   5.483  -1.327  0.00  0.00    +0.277 C 
ENDBRANCH  29   3
ENDBRANCH  23  24
TORSDOF 3
ENDMDL
