MODEL 1
REMARK VINA RESULT:      -7.2      0.000      0.000
REMARK  Name = 51137142
REMARK  5 active torsions:
REMARK  status: ('A' for Active; 'I' for Inactive)
REMARK    1  A    between atoms: S_1  and  C_22
REMARK    2  A    between atoms: S_1  and  C_24
REMARK    3  A    between atoms: N_6  and  C_8
REMARK    4  A    between atoms: C_9  and  C_15
REMARK    5  A    between atoms: C_24  and  C_25
REMARK                            x       y       z     vdW  Elec       q    Type
REMARK                         _______ _______ _______ _____ _____    ______ ____
ROOT
ATOM      3  O   UNL     1      14.909   6.523  19.385  0.00  0.00    -0.439 OA
ATOM      7  N   UNL     1      15.275   7.658  21.312  0.00  0.00    -0.213 NA
ATOM     15  C   UNL     1      14.410   7.294  20.391  0.00  0.00    +0.201 A 
ATOM     18  C   UNL     1      16.449   7.084  20.889  0.00  0.00    +0.111 A 
ATOM     19  C   UNL     1      16.229   6.388  19.709  0.00  0.00    +0.155 A 
ATOM     20  C   UNL     1      17.739   7.099  21.435  0.00  0.00    +0.058 A 
ATOM     21  C   UNL     1      17.204   5.689  19.009  0.00  0.00    +0.050 A 
ATOM     22  C   UNL     1      18.751   6.404  20.757  0.00  0.00    +0.090 A 
ATOM     23  C   UNL     1      18.486   5.714  19.568  0.00  0.00    +0.030 A 
ENDROOT
BRANCH  15   9
ATOM      6  N   UNL     1      11.281   9.028  21.184  0.00  0.00    -0.298 NA
ATOM      9  C   UNL     1      12.937   7.620  20.304  0.00  0.00    +0.090 C 
ATOM     10  C   UNL     1      12.629   9.090  20.616  0.00  0.00    +0.097 C 
ATOM     11  C   UNL     1      11.304   7.876  22.084  0.00  0.00    +0.085 C 
ATOM     12  C   UNL     1      12.041   6.822  21.268  0.00  0.00    +0.029 C 
BRANCH   6   8
ATOM      2  O   UNL     1      11.663  12.482  23.540  0.00  0.00    -0.380 OA
ATOM      8  C   UNL     1      10.907  10.263  21.869  0.00  0.00    +0.061 C 
ATOM     13  C   UNL     1      11.116  10.120  23.379  0.00  0.00    +0.047 C 
ATOM     14  C   UNL     1      11.713  11.454  21.339  0.00  0.00    +0.047 C 
ATOM     16  C   UNL     1      10.844  11.445  24.080  0.00  0.00    +0.161 C 
ATOM     17  C   UNL     1      11.408  12.705  22.153  0.00  0.00    +0.161 C 
ENDBRANCH   6   8
ENDBRANCH  15   9
BRANCH  22   1
ATOM      1  S   UNL     1      20.375   6.402  21.409  0.00  0.00    -0.003 S 
ATOM      4  O   UNL     1      20.985   7.697  21.150  0.00  0.00    -0.169 OA
ATOM      5  O   UNL     1      20.305   5.892  22.771  0.00  0.00    -0.169 OA
BRANCH   1  24
ATOM     24  C   UNL     1      21.244   5.209  20.419  0.00  0.00    +0.168 C 
ATOM     25  C   UNL     1      21.442   3.909  21.164  0.00  0.00    +0.028 C 
ENDBRANCH   1  24
ENDBRANCH  22   1
TORSDOF 4
ENDMDL
MODEL 2
REMARK VINA RESULT:      -6.8      3.531      9.910
REMARK  Name = 51137142
REMARK  5 active torsions:
REMARK  status: ('A' for Active; 'I' for Inactive)
REMARK    1  A    between atoms: S_1  and  C_22
REMARK    2  A    between atoms: S_1  and  C_24
REMARK    3  A    between atoms: N_6  and  C_8
REMARK    4  A    between atoms: C_9  and  C_15
REMARK    5  A    between atoms: C_24  and  C_25
REMARK                            x       y       z     vdW  Elec       q    Type
REMARK                         _______ _______ _______ _____ _____    ______ ____
ROOT
ATOM      3  O   UNL     1      18.840   6.277  20.155  0.00  0.00    -0.439 OA
ATOM      7  N   UNL     1      18.482   7.789  21.804  0.00  0.00    -0.213 NA
ATOM     15  C   UNL     1      19.342   7.009  21.189  0.00  0.00    +0.201 A 
ATOM     18  C   UNL     1      17.307   7.562  21.128  0.00  0.00    +0.111 A 
ATOM     19  C   UNL     1      17.524   6.636  20.118  0.00  0.00    +0.155 A 
ATOM     20  C   UNL     1      16.021   8.090  21.298  0.00  0.00    +0.058 A 
ATOM     21  C   UNL     1      16.548   6.179  19.241  0.00  0.00    +0.050 A 
ATOM     22  C   UNL     1      15.008   7.653  20.432  0.00  0.00    +0.090 A 
ATOM     23  C   UNL     1      15.269   6.716  19.424  0.00  0.00    +0.030 A 
ENDROOT
BRANCH  15   9
ATOM      6  N   UNL     1      22.569   5.277  21.291  0.00  0.00    -0.298 NA
ATOM      9  C   UNL     1      20.813   6.819  21.479  0.00  0.00    +0.090 C 
ATOM     10  C   UNL     1      21.502   5.874  20.486  0.00  0.00    +0.097 C 
ATOM     11  C   UNL     1      21.946   4.972  22.578  0.00  0.00    +0.085 C 
ATOM     12  C   UNL     1      21.127   6.225  22.863  0.00  0.00    +0.029 C 
BRANCH   6   8
ATOM      2  O   UNL     1      25.260   2.139  20.550  0.00  0.00    -0.380 OA
ATOM      8  C   UNL     1      23.149   4.093  20.659  0.00  0.00    +0.061 C 
ATOM     13  C   UNL     1      24.536   4.414  20.096  0.00  0.00    +0.047 C 
ATOM     14  C   UNL     1      23.241   2.928  21.649  0.00  0.00    +0.047 C 
ATOM     16  C   UNL     1      25.190   3.152  19.546  0.00  0.00    +0.161 C 
ATOM     17  C   UNL     1      23.967   1.749  21.014  0.00  0.00    +0.161 C 
ENDBRANCH   6   8
ENDBRANCH  15   9
BRANCH  22   1
ATOM      1  S   UNL     1      13.389   8.289  20.616  0.00  0.00    -0.003 S 
ATOM      4  O   UNL     1      13.153   8.568  22.025  0.00  0.00    -0.169 OA
ATOM      5  O   UNL     1      13.211   9.343  19.628  0.00  0.00    -0.169 OA
BRANCH   1  24
ATOM     24  C   UNL     1      12.330   6.933  20.170  0.00  0.00    +0.168 C 
ATOM     25  C   UNL     1      11.608   6.373  21.375  0.00  0.00    +0.028 C 
ENDBRANCH   1  24
ENDBRANCH  22   1
TORSDOF 4
ENDMDL
MODEL 3
REMARK VINA RESULT:      -6.5      2.813      3.954
REMARK  Name = 51137142
REMARK  5 active torsions:
REMARK  status: ('A' for Active; 'I' for Inactive)
REMARK    1  A    between atoms: S_1  and  C_22
REMARK    2  A    between atoms: S_1  and  C_24
REMARK    3  A    between atoms: N_6  and  C_8
REMARK    4  A    between atoms: C_9  and  C_15
REMARK    5  A    between atoms: C_24  and  C_25
REMARK                            x       y       z     vdW  Elec       q    Type
REMARK                         _______ _______ _______ _____ _____    ______ ____
ROOT
ATOM      3  O   UNL     1      16.277   5.912  19.689  0.00  0.00    -0.439 OA
ATOM      7  N   UNL     1      16.440   7.361  21.424  0.00  0.00    -0.213 NA
ATOM     15  C   UNL     1      15.663   6.791  20.529  0.00  0.00    +0.201 A 
ATOM     18  C   UNL     1      17.675   6.820  21.161  0.00  0.00    +0.111 A 
ATOM     19  C   UNL     1      17.579   5.932  20.100  0.00  0.00    +0.155 A 
ATOM     20  C   UNL     1      18.924   7.020  21.765  0.00  0.00    +0.058 A 
ATOM     21  C   UNL     1      18.642   5.209  19.574  0.00  0.00    +0.050 A 
ATOM     22  C   UNL     1      20.022   6.307  21.263  0.00  0.00    +0.090 A 
ATOM     23  C   UNL     1      19.881   5.420  20.188  0.00  0.00    +0.030 A 
ENDROOT
BRANCH  15   9
ATOM      6  N   UNL     1      12.619   8.213  19.067  0.00  0.00    -0.298 NA
ATOM      9  C   UNL     1      14.180   6.985  20.313  0.00  0.00    +0.090 C 
ATOM     10  C   UNL     1      13.835   7.418  18.882  0.00  0.00    +0.097 C 
ATOM     11  C   UNL     1      12.883   9.037  20.246  0.00  0.00    +0.085 C 
ATOM     12  C   UNL     1      13.530   8.052  21.211  0.00  0.00    +0.029 C 
BRANCH   6   8
ATOM      2  O   UNL     1      12.050   9.205  15.027  0.00  0.00    -0.380 OA
ATOM      8  C   UNL     1      12.293   9.014  17.889  0.00  0.00    +0.061 C 
ATOM     13  C   UNL     1      13.510   9.129  16.968  0.00  0.00    +0.047 C 
ATOM     14  C   UNL     1      11.111   8.412  17.123  0.00  0.00    +0.047 C 
ATOM     16  C   UNL     1      13.137   9.859  15.684  0.00  0.00    +0.161 C 
ATOM     17  C   UNL     1      10.870   9.182  15.830  0.00  0.00    +0.161 C 
ENDBRANCH   6   8
ENDBRANCH  15   9
BRANCH  22   1
ATOM      1  S   UNL     1      21.597   6.533  21.991  0.00  0.00    -0.003 S 
ATOM      4  O   UNL     1      21.510   7.607  22.968  0.00  0.00    -0.169 OA
ATOM      5  O   UNL     1      22.091   5.225  22.392  0.00  0.00    -0.169 OA
BRANCH   1  24
ATOM     24  C   UNL     1      22.616   7.122  20.660  0.00  0.00    +0.168 C 
ATOM     25  C   UNL     1      22.124   8.449  20.129  0.00  0.00    +0.028 C 
ENDBRANCH   1  24
ENDBRANCH  22   1
TORSDOF 4
ENDMDL
MODEL 4
REMARK VINA RESULT:      -6.5      2.096      3.348
REMARK  Name = 51137142
REMARK  5 active torsions:
REMARK  status: ('A' for Active; 'I' for Inactive)
REMARK    1  A    between atoms: S_1  and  C_22
REMARK    2  A    between atoms: S_1  and  C_24
REMARK    3  A    between atoms: N_6  and  C_8
REMARK    4  A    between atoms: C_9  and  C_15
REMARK    5  A    between atoms: C_24  and  C_25
REMARK                            x       y       z     vdW  Elec       q    Type
REMARK                         _______ _______ _______ _____ _____    ______ ____
ROOT
ATOM      3  O   UNL     1      17.992   6.171  19.792  0.00  0.00    -0.439 OA
ATOM      7  N   UNL     1      18.280   7.505  21.601  0.00  0.00    -0.213 NA
ATOM     15  C   UNL     1      17.550   7.215  20.547  0.00  0.00    +0.201 A 
ATOM     18  C   UNL     1      19.295   6.580  21.548  0.00  0.00    +0.111 A 
ATOM     19  C   UNL     1      19.121   5.762  20.442  0.00  0.00    +0.155 A 
ATOM     20  C   UNL     1      20.396   6.361  22.387  0.00  0.00    +0.058 A 
ATOM     21  C   UNL     1      19.968   4.719  20.089  0.00  0.00    +0.050 A 
ATOM     22  C   UNL     1      21.274   5.317  22.063  0.00  0.00    +0.090 A 
ATOM     23  C   UNL     1      21.062   4.513  20.936  0.00  0.00    +0.030 A 
ENDROOT
BRANCH  15   9
ATOM      6  N   UNL     1      14.009   8.156  20.560  0.00  0.00    -0.298 NA
ATOM      9  C   UNL     1      16.285   7.888  20.066  0.00  0.00    +0.090 C 
ATOM     10  C   UNL     1      15.320   8.234  21.208  0.00  0.00    +0.097 C 
ATOM     11  C   UNL     1      14.069   6.953  19.731  0.00  0.00    +0.085 C 
ATOM     12  C   UNL     1      15.444   7.056  19.083  0.00  0.00    +0.029 C 
BRANCH   6   8
ATOM      2  O   UNL     1      10.163   8.683  22.162  0.00  0.00    -0.380 OA
ATOM      8  C   UNL     1      12.912   8.113  21.525  0.00  0.00    +0.061 C 
ATOM     13  C   UNL     1      12.417   9.528  21.834  0.00  0.00    +0.047 C 
ATOM     14  C   UNL     1      11.754   7.254  21.007  0.00  0.00    +0.047 C 
ATOM     16  C   UNL     1      11.197   9.477  22.745  0.00  0.00    +0.161 C 
ATOM     17  C   UNL     1      10.570   7.328  21.964  0.00  0.00    +0.161 C 
ENDBRANCH   6   8
ENDBRANCH  15   9
BRANCH  22   1
ATOM      1  S   UNL     1      22.660   5.015  23.087  0.00  0.00    -0.003 S 
ATOM      4  O   UNL     1      23.618   6.095  22.908  0.00  0.00    -0.169 OA
ATOM      5  O   UNL     1      22.168   4.694  24.418  0.00  0.00    -0.169 OA
BRANCH   1  24
ATOM     24  C   UNL     1      23.398   3.548  22.406  0.00  0.00    +0.168 C 
ATOM     25  C   UNL     1      24.683   3.863  21.673  0.00  0.00    +0.028 C 
ENDBRANCH   1  24
ENDBRANCH  22   1
TORSDOF 4
ENDMDL
MODEL 5
REMARK VINA RESULT:      -6.5      2.292      3.197
REMARK  Name = 51137142
REMARK  5 active torsions:
REMARK  status: ('A' for Active; 'I' for Inactive)
REMARK    1  A    between atoms: S_1  and  C_22
REMARK    2  A    between atoms: S_1  and  C_24
REMARK    3  A    between atoms: N_6  and  C_8
REMARK    4  A    between atoms: C_9  and  C_15
REMARK    5  A    between atoms: C_24  and  C_25
REMARK                            x       y       z     vdW  Elec       q    Type
REMARK                         _______ _______ _______ _____ _____    ______ ____
ROOT
ATOM      3  O   UNL     1      17.191   6.917  19.619  0.00  0.00    -0.439 OA
ATOM      7  N   UNL     1      17.123   8.593  21.143  0.00  0.00    -0.213 NA
ATOM     15  C   UNL     1      16.564   8.029  20.095  0.00  0.00    +0.201 A 
ATOM     18  C   UNL     1      18.213   7.794  21.389  0.00  0.00    +0.111 A 
ATOM     19  C   UNL     1      18.257   6.767  20.458  0.00  0.00    +0.155 A 
ATOM     20  C   UNL     1      19.211   7.861  22.371  0.00  0.00    +0.058 A 
ATOM     21  C   UNL     1      19.231   5.777  20.417  0.00  0.00    +0.050 A 
ATOM     22  C   UNL     1      20.212   6.880  22.362  0.00  0.00    +0.090 A 
ATOM     23  C   UNL     1      20.220   5.859  21.404  0.00  0.00    +0.030 A 
ENDROOT
BRANCH  15   9
ATOM      6  N   UNL     1      12.982   8.552  19.527  0.00  0.00    -0.298 NA
ATOM      9  C   UNL     1      15.318   8.454  19.352  0.00  0.00    +0.090 C 
ATOM     10  C   UNL     1      14.185   8.897  20.287  0.00  0.00    +0.097 C 
ATOM     11  C   UNL     1      13.256   7.230  18.967  0.00  0.00    +0.085 C 
ATOM     12  C   UNL     1      14.689   7.362  18.469  0.00  0.00    +0.029 C 
BRANCH   6   8
ATOM      2  O   UNL     1      10.564   8.288  22.950  0.00  0.00    -0.380 OA
ATOM      8  C   UNL     1      11.777   8.568  20.354  0.00  0.00    +0.061 C 
ATOM     13  C   UNL     1      11.570   7.206  21.021  0.00  0.00    +0.047 C 
ATOM     14  C   UNL     1      11.854   9.667  21.419  0.00  0.00    +0.047 C 
ATOM     16  C   UNL     1      10.384   7.258  21.978  0.00  0.00    +0.161 C 
ATOM     17  C   UNL     1      10.653   9.583  22.354  0.00  0.00    +0.161 C 
ENDBRANCH   6   8
ENDBRANCH  15   9
BRANCH  22   1
ATOM      1  S   UNL     1      21.475   6.933  23.572  0.00  0.00    -0.003 S 
ATOM      4  O   UNL     1      21.657   5.597  24.118  0.00  0.00    -0.169 OA
ATOM      5  O   UNL     1      22.608   7.644  22.999  0.00  0.00    -0.169 OA
BRANCH   1  24
ATOM     24  C   UNL     1      20.796   7.938  24.872  0.00  0.00    +0.168 C 
ATOM     25  C   UNL     1      20.316   7.094  26.031  0.00  0.00    +0.028 C 
ENDBRANCH   1  24
ENDBRANCH  22   1
TORSDOF 4
ENDMDL
MODEL 6
REMARK VINA RESULT:      -6.4     28.577     31.579
REMARK  Name = 51137142
REMARK  5 active torsions:
REMARK  status: ('A' for Active; 'I' for Inactive)
REMARK    1  A    between atoms: S_1  and  C_22
REMARK    2  A    between atoms: S_1  and  C_24
REMARK    3  A    between atoms: N_6  and  C_8
REMARK    4  A    between atoms: C_9  and  C_15
REMARK    5  A    between atoms: C_24  and  C_25
REMARK                            x       y       z     vdW  Elec       q    Type
REMARK                         _______ _______ _______ _____ _____    ______ ____
ROOT
ATOM      3  O   UNL     1     -12.124  -7.858  16.661  0.00  0.00    -0.439 OA
ATOM      7  N   UNL     1     -10.485  -6.544  15.812  0.00  0.00    -0.213 NA
ATOM     15  C   UNL     1     -10.812  -7.492  16.661  0.00  0.00    +0.201 A 
ATOM     18  C   UNL     1     -11.676  -6.250  15.192  0.00  0.00    +0.111 A 
ATOM     19  C   UNL     1     -12.681  -7.053  15.709  0.00  0.00    +0.155 A 
ATOM     20  C   UNL     1     -11.996  -5.326  14.188  0.00  0.00    +0.058 A 
ATOM     21  C   UNL     1     -14.010  -7.016  15.306  0.00  0.00    +0.050 A 
ATOM     22  C   UNL     1     -13.328  -5.259  13.754  0.00  0.00    +0.090 A 
ATOM     23  C   UNL     1     -14.313  -6.088  14.303  0.00  0.00    +0.030 A 
ENDROOT
BRANCH  15   9
ATOM      6  N   UNL     1      -8.162  -9.774  17.756  0.00  0.00    -0.298 NA
ATOM      9  C   UNL     1      -9.922  -8.229  17.636  0.00  0.00    +0.090 C 
ATOM     10  C   UNL     1      -8.533  -8.540  17.061  0.00  0.00    +0.097 C 
ATOM     11  C   UNL     1      -9.373 -10.592  17.745  0.00  0.00    +0.085 C 
ATOM     12  C   UNL     1     -10.463  -9.591  18.103  0.00  0.00    +0.029 C 
BRANCH   6   8
ATOM      2  O   UNL     1      -4.237 -10.441  16.422  0.00  0.00    -0.380 OA
ATOM      8  C   UNL     1      -7.028 -10.448  17.127  0.00  0.00    +0.061 C 
ATOM     13  C   UNL     1      -6.473  -9.601  15.979  0.00  0.00    +0.047 C 
ATOM     14  C   UNL     1      -5.922 -10.736  18.148  0.00  0.00    +0.047 C 
ATOM     16  C   UNL     1      -5.217 -10.244  15.403  0.00  0.00    +0.161 C 
ATOM     17  C   UNL     1      -4.697 -11.316  17.453  0.00  0.00    +0.161 C 
ENDBRANCH   6   8
ENDBRANCH  15   9
BRANCH  22   1
ATOM      1  S   UNL     1     -13.765  -4.116  12.503  0.00  0.00    -0.003 S 
ATOM      4  O   UNL     1     -14.299  -4.849  11.366  0.00  0.00    -0.169 OA
ATOM      5  O   UNL     1     -14.552  -3.060  13.122  0.00  0.00    -0.169 OA
BRANCH   1  24
ATOM     24  C   UNL     1     -12.215  -3.415  11.987  0.00  0.00    +0.168 C 
ATOM     25  C   UNL     1     -11.934  -3.701  10.530  0.00  0.00    +0.028 C 
ENDBRANCH   1  24
ENDBRANCH  22   1
TORSDOF 4
ENDMDL
MODEL 7
REMARK VINA RESULT:      -6.3     28.132     31.159
REMARK  Name = 51137142
REMARK  5 active torsions:
REMARK  status: ('A' for Active; 'I' for Inactive)
REMARK    1  A    between atoms: S_1  and  C_22
REMARK    2  A    between atoms: S_1  and  C_24
REMARK    3  A    between atoms: N_6  and  C_8
REMARK    4  A    between atoms: C_9  and  C_15
REMARK    5  A    between atoms: C_24  and  C_25
REMARK                            x       y       z     vdW  Elec       q    Type
REMARK                         _______ _______ _______ _____ _____    ______ ____
ROOT
ATOM      3  O   UNL     1     -15.085   3.947  24.453  0.00  0.00    -0.439 OA
ATOM      7  N   UNL     1     -16.575   5.627  24.142  0.00  0.00    -0.213 NA
ATOM     15  C   UNL     1     -16.281   4.514  24.778  0.00  0.00    +0.201 A 
ATOM     18  C   UNL     1     -15.487   5.821  23.324  0.00  0.00    +0.111 A 
ATOM     19  C   UNL     1     -14.573   4.795  23.513  0.00  0.00    +0.155 A 
ATOM     20  C   UNL     1     -15.190   6.830  22.398  0.00  0.00    +0.058 A 
ATOM     21  C   UNL     1     -13.361   4.681  22.844  0.00  0.00    +0.050 A 
ATOM     22  C   UNL     1     -13.975   6.751  21.703  0.00  0.00    +0.090 A 
ATOM     23  C   UNL     1     -13.080   5.697  21.924  0.00  0.00    +0.030 A 
ENDROOT
BRANCH  15   9
ATOM      6  N   UNL     1     -16.922   2.619  27.847  0.00  0.00    -0.298 NA
ATOM      9  C   UNL     1     -17.096   3.785  25.820  0.00  0.00    +0.090 C 
ATOM     10  C   UNL     1     -16.486   3.871  27.225  0.00  0.00    +0.097 C 
ATOM     11  C   UNL     1     -16.732   1.600  26.816  0.00  0.00    +0.085 C 
ATOM     12  C   UNL     1     -17.273   2.278  25.564  0.00  0.00    +0.029 C 
BRANCH   6   8
ATOM      2  O   UNL     1     -13.719   1.523  30.332  0.00  0.00    -0.380 OA
ATOM      8  C   UNL     1     -16.182   2.317  29.071  0.00  0.00    +0.061 C 
ATOM     13  C   UNL     1     -15.676   0.873  29.046  0.00  0.00    +0.047 C 
ATOM     14  C   UNL     1     -15.006   3.282  29.256  0.00  0.00    +0.047 C 
ATOM     16  C   UNL     1     -14.803   0.596  30.264  0.00  0.00    +0.161 C 
ATOM     17  C   UNL     1     -14.170   2.871  30.463  0.00  0.00    +0.161 C 
ENDBRANCH   6   8
ENDBRANCH  15   9
BRANCH  22   1
ATOM      1  S   UNL     1     -13.571   7.992  20.538  0.00  0.00    -0.003 S 
ATOM      4  O   UNL     1     -14.203   7.665  19.268  0.00  0.00    -0.169 OA
ATOM      5  O   UNL     1     -13.820   9.283  21.161  0.00  0.00    -0.169 OA
BRANCH   1  24
ATOM     24  C   UNL     1     -11.817   7.822  20.305  0.00  0.00    +0.168 C 
ATOM     25  C   UNL     1     -11.490   7.289  18.928  0.00  0.00    +0.028 C 
ENDBRANCH   1  24
ENDBRANCH  22   1
TORSDOF 4
ENDMDL
MODEL 8
REMARK VINA RESULT:      -6.3     26.827     29.331
REMARK  Name = 51137142
REMARK  5 active torsions:
REMARK  status: ('A' for Active; 'I' for Inactive)
REMARK    1  A    between atoms: S_1  and  C_22
REMARK    2  A    between atoms: S_1  and  C_24
REMARK    3  A    between atoms: N_6  and  C_8
REMARK    4  A    between atoms: C_9  and  C_15
REMARK    5  A    between atoms: C_24  and  C_25
REMARK                            x       y       z     vdW  Elec       q    Type
REMARK                         _______ _______ _______ _____ _____    ______ ____
ROOT
ATOM      3  O   UNL     1      -3.462 -11.097  17.497  0.00  0.00    -0.439 OA
ATOM      7  N   UNL     1      -5.345 -11.333  16.257  0.00  0.00    -0.213 NA
ATOM     15  C   UNL     1      -4.803 -11.332  17.455  0.00  0.00    +0.201 A 
ATOM     18  C   UNL     1      -4.279 -11.078  15.428  0.00  0.00    +0.111 A 
ATOM     19  C   UNL     1      -3.125 -10.933  16.184  0.00  0.00    +0.155 A 
ATOM     20  C   UNL     1      -4.196 -10.953  14.035  0.00  0.00    +0.058 A 
ATOM     21  C   UNL     1      -1.865 -10.667  15.662  0.00  0.00    +0.050 A 
ATOM     22  C   UNL     1      -2.941 -10.685  13.470  0.00  0.00    +0.090 A 
ATOM     23  C   UNL     1      -1.800 -10.545  14.270  0.00  0.00    +0.030 A 
ENDROOT
BRANCH  15   9
ATOM      6  N   UNL     1      -7.533 -12.097  19.777  0.00  0.00    -0.298 NA
ATOM      9  C   UNL     1      -5.476 -11.557  18.790  0.00  0.00    +0.090 C 
ATOM     10  C   UNL     1      -6.637 -12.558  18.714  0.00  0.00    +0.097 C 
ATOM     11  C   UNL     1      -7.556 -10.641  19.646  0.00  0.00    +0.085 C 
ATOM     12  C   UNL     1      -6.088 -10.297  19.425  0.00  0.00    +0.029 C 
BRANCH   6   8
ATOM      2  O   UNL     1     -11.311 -13.493  20.963  0.00  0.00    -0.380 OA
ATOM      8  C   UNL     1      -8.867 -12.686  19.675  0.00  0.00    +0.061 C 
ATOM     13  C   UNL     1      -8.961 -13.945  20.541  0.00  0.00    +0.047 C 
ATOM     14  C   UNL     1      -9.947 -11.682  20.089  0.00  0.00    +0.047 C 
ATOM     16  C   UNL     1     -10.384 -14.490  20.532  0.00  0.00    +0.161 C 
ATOM     17  C   UNL     1     -11.316 -12.352  20.105  0.00  0.00    +0.161 C 
ENDBRANCH   6   8
ENDBRANCH  15   9
BRANCH  22   1
ATOM      1  S   UNL     1      -2.799 -10.523  11.734  0.00  0.00    -0.003 S 
ATOM      4  O   UNL     1      -1.615  -9.734  11.432  0.00  0.00    -0.169 OA
ATOM      5  O   UNL     1      -2.957 -11.847  11.151  0.00  0.00    -0.169 OA
BRANCH   1  24
ATOM     24  C   UNL     1      -4.208  -9.545  11.267  0.00  0.00    +0.168 C 
ATOM     25  C   UNL     1      -4.183  -9.203   9.794  0.00  0.00    +0.028 C 
ENDBRANCH   1  24
ENDBRANCH  22   1
TORSDOF 4
ENDMDL
MODEL 9
REMARK VINA RESULT:      -6.2     27.574     29.503
REMARK  Name = 51137142
REMARK  5 active torsions:
REMARK  status: ('A' for Active; 'I' for Inactive)
REMARK    1  A    between atoms: S_1  and  C_22
REMARK    2  A    between atoms: S_1  and  C_24
REMARK    3  A    between atoms: N_6  and  C_8
REMARK    4  A    between atoms: C_9  and  C_15
REMARK    5  A    between atoms: C_24  and  C_25
REMARK                            x       y       z     vdW  Elec       q    Type
REMARK                         _______ _______ _______ _____ _____    ______ ____
ROOT
ATOM      3  O   UNL     1      -2.936 -10.866  14.631  0.00  0.00    -0.439 OA
ATOM      7  N   UNL     1      -5.060 -10.489  13.935  0.00  0.00    -0.213 NA
ATOM     15  C   UNL     1      -3.795 -10.618  13.602  0.00  0.00    +0.201 A 
ATOM     18  C   UNL     1      -5.048 -10.664  15.298  0.00  0.00    +0.111 A 
ATOM     19  C   UNL     1      -3.750 -10.895  15.727  0.00  0.00    +0.155 A 
ATOM     20  C   UNL     1      -6.081 -10.644  16.245  0.00  0.00    +0.058 A 
ATOM     21  C   UNL     1      -3.379 -11.113  17.048  0.00  0.00    +0.050 A 
ATOM     22  C   UNL     1      -5.747 -10.861  17.590  0.00  0.00    +0.090 A 
ATOM     23  C   UNL     1      -4.422 -11.091  17.981  0.00  0.00    +0.030 A 
ENDROOT
BRANCH  15   9
ATOM      6  N   UNL     1      -3.674 -10.141   9.971  0.00  0.00    -0.298 NA
ATOM      9  C   UNL     1      -3.171 -10.528  12.229  0.00  0.00    +0.090 C 
ATOM     10  C   UNL     1      -3.915  -9.563  11.295  0.00  0.00    +0.097 C 
ATOM     11  C   UNL     1      -3.855 -11.581  10.149  0.00  0.00    +0.085 C 
ATOM     12  C   UNL     1      -3.120 -11.857  11.454  0.00  0.00    +0.029 C 
BRANCH   6   8
ATOM      2  O   UNL     1      -7.084  -9.688   7.564  0.00  0.00    -0.380 OA
ATOM      8  C   UNL     1      -4.565  -9.589   8.953  0.00  0.00    +0.061 C 
ATOM     13  C   UNL     1      -4.873 -10.642   7.886  0.00  0.00    +0.047 C 
ATOM     14  C   UNL     1      -5.867  -9.078   9.577  0.00  0.00    +0.047 C 
ATOM     16  C   UNL     1      -5.897 -10.107   6.891  0.00  0.00    +0.161 C 
ATOM     17  C   UNL     1      -6.836  -8.630   8.489  0.00  0.00    +0.161 C 
ENDBRANCH   6   8
ENDBRANCH  15   9
BRANCH  22   1
ATOM      1  S   UNL     1      -7.010 -10.841  18.801  0.00  0.00    -0.003 S 
ATOM      4  O   UNL     1      -6.469 -10.288  20.033  0.00  0.00    -0.169 OA
ATOM      5  O   UNL     1      -8.194 -10.249  18.197  0.00  0.00    -0.169 OA
BRANCH   1  24
ATOM     24  C   UNL     1      -7.350 -12.559  19.107  0.00  0.00    +0.168 C 
ATOM     25  C   UNL     1      -8.679 -12.745  19.804  0.00  0.00    +0.028 C 
ENDBRANCH   1  24
ENDBRANCH  22   1
TORSDOF 4
ENDMDL
MODEL 10
REMARK VINA RESULT:      -6.2     29.590     32.187
REMARK  Name = 51137142
REMARK  5 active torsions:
REMARK  status: ('A' for Active; 'I' for Inactive)
REMARK    1  A    between atoms: S_1  and  C_22
REMARK    2  A    between atoms: S_1  and  C_24
REMARK    3  A    between atoms: N_6  and  C_8
REMARK    4  A    between atoms: C_9  and  C_15
REMARK    5  A    between atoms: C_24  and  C_25
REMARK                            x       y       z     vdW  Elec       q    Type
REMARK                         _______ _______ _______ _____ _____    ______ ____
ROOT
ATOM      3  O   UNL     1     -14.243   6.453  33.606  0.00  0.00    -0.439 OA
ATOM      7  N   UNL     1     -13.837   5.535  35.638  0.00  0.00    -0.213 NA
ATOM     15  C   UNL     1     -14.440   5.422  34.476  0.00  0.00    +0.201 A 
ATOM     18  C   UNL     1     -13.182   6.739  35.540  0.00  0.00    +0.111 A 
ATOM     19  C   UNL     1     -13.429   7.304  34.298  0.00  0.00    +0.155 A 
ATOM     20  C   UNL     1     -12.364   7.427  36.446  0.00  0.00    +0.058 A 
ATOM     21  C   UNL     1     -12.921   8.523  33.867  0.00  0.00    +0.050 A 
ATOM     22  C   UNL     1     -11.831   8.662  36.048  0.00  0.00    +0.090 A 
ATOM     23  C   UNL     1     -12.105   9.197  34.783  0.00  0.00    +0.030 A 
ENDROOT
BRANCH  15   9
ATOM      6  N   UNL     1     -15.641   2.835  32.176  0.00  0.00    -0.298 NA
ATOM      9  C   UNL     1     -15.321   4.299  33.979  0.00  0.00    +0.090 C 
ATOM     10  C   UNL     1     -14.580   3.317  33.062  0.00  0.00    +0.097 C 
ATOM     11  C   UNL     1     -16.411   4.027  31.826  0.00  0.00    +0.085 C 
ATOM     12  C   UNL     1     -16.543   4.751  33.159  0.00  0.00    +0.029 C 
BRANCH   6   8
ATOM      2  O   UNL     1     -15.198  -0.119  29.225  0.00  0.00    -0.380 OA
ATOM      8  C   UNL     1     -15.114   2.146  31.000  0.00  0.00    +0.061 C 
ATOM     13  C   UNL     1     -14.554   0.776  31.390  0.00  0.00    +0.047 C 
ATOM     14  C   UNL     1     -16.194   1.984  29.926  0.00  0.00    +0.047 C 
ATOM     16  C   UNL     1     -14.117   0.007  30.149  0.00  0.00    +0.161 C 
ATOM     17  C   UNL     1     -15.666   1.149  28.765  0.00  0.00    +0.161 C 
ENDBRANCH   6   8
ENDBRANCH  15   9
BRANCH  22   1
ATOM      1  S   UNL     1     -10.806   9.550  37.153  0.00  0.00    -0.003 S 
ATOM      4  O   UNL     1     -11.240  10.938  37.181  0.00  0.00    -0.169 OA
ATOM      5  O   UNL     1     -10.725   8.789  38.391  0.00  0.00    -0.169 OA
BRANCH   1  24
ATOM     24  C   UNL     1      -9.203   9.521  36.385  0.00  0.00    +0.168 C 
ATOM     25  C   UNL     1      -8.403   8.313  36.817  0.00  0.00    +0.028 C 
ENDBRANCH   1  24
ENDBRANCH  22   1
TORSDOF 4
ENDMDL
