MODEL 1
REMARK VINA RESULT:      -5.7      0.000      0.000
REMARK  Name = 28962235
REMARK  11 active torsions:
REMARK  status: ('A' for Active; 'I' for Inactive)
REMARK    1  A    between atoms: O_2  and  C_10
REMARK    2  A    between atoms: O_3  and  C_13
REMARK    3  A    between atoms: N_5  and  C_8
REMARK    4  A    between atoms: N_5  and  C_14
REMARK    5  A    between atoms: N_5  and  C_15
REMARK    6  A    between atoms: N_6  and  C_12
REMARK    7  A    between atoms: C_9  and  C_12
REMARK    8  A    between atoms: C_11  and  C_13
REMARK    9  A    between atoms: C_14  and  C_16
REMARK   10  A    between atoms: C_16  and  C_17
REMARK   11  A    between atoms: C_18  and  C_20
REMARK                            x       y       z     vdW  Elec       q    Type
REMARK                         _______ _______ _______ _____ _____    ______ ____
ROOT
ATOM      1  O   UNL     1      12.302   8.800  22.252  0.00  0.00    -0.365 OA
ATOM      8  C   UNL     1      13.026   7.963  20.143  0.00  0.00    +0.118 C 
ATOM      9  C   UNL     1      13.252   9.058  21.193  0.00  0.00    +0.155 C 
ATOM     10  C   UNL     1      11.572   7.573  20.363  0.00  0.00    +0.165 C 
ATOM     11  C   UNL     1      11.480   7.677  21.880  0.00  0.00    +0.174 C 
ENDROOT
BRANCH  10   2
ATOM      2  O   UNL     1      10.686   8.499  19.748  0.00  0.00    -0.388 OA
ATOM     24  H   UNL     1      11.041   9.391  19.901  0.00  0.00    +0.210 HD
ENDBRANCH  10   2
BRANCH   8   5
ATOM      5  N   UNL     1      13.376   8.303  18.775  0.00  0.00    -0.297 NA
ATOM     15  C   UNL     1      12.711   7.404  17.827  0.00  0.00    +0.105 C 
BRANCH   5  14
ATOM     14  C   UNL     1      14.828   8.254  18.581  0.00  0.00    +0.090 C 
BRANCH  14  16
ATOM     16  C   UNL     1      15.387   6.883  18.964  0.00  0.00    +0.071 C 
BRANCH  16  17
ATOM      7  N   UNL     1      16.699   8.018  20.673  0.00  0.00    -0.260 NA
ATOM     17  C   UNL     1      16.652   7.008  19.775  0.00  0.00    +0.042 A 
ATOM     19  C   UNL     1      17.682   6.105  19.569  0.00  0.00    +0.023 A 
ATOM     21  C   UNL     1      18.834   6.246  20.334  0.00  0.00    +0.003 A 
ATOM     22  C   UNL     1      17.835   8.123  21.398  0.00  0.00    +0.111 A 
ATOM     23  C   UNL     1      18.920   7.272  21.269  0.00  0.00    +0.020 A 
ENDBRANCH  16  17
ENDBRANCH  14  16
ENDBRANCH   5  14
ENDBRANCH   8   5
BRANCH   9  12
ATOM     12  C   UNL     1      13.039  10.498  20.737  0.00  0.00    +0.137 C 
BRANCH  12   6
ATOM      4  O   UNL     1      13.173  12.752  22.563  0.00  0.00    -0.276 OA
ATOM      6  N   UNL     1      11.938  11.116  21.460  0.00  0.00    -0.313 N 
ATOM     18  C   UNL     1      12.111  12.190  22.310  0.00  0.00    +0.210 C 
ATOM     20  C   UNL     1      10.808  12.648  22.907  0.00  0.00    +0.109 C 
ATOM     25  H   UNL     1      11.009  10.728  21.329  0.00  0.00    +0.149 HD
ENDBRANCH  12   6
ENDBRANCH   9  12
BRANCH  11  13
ATOM     13  C   UNL     1      10.081   7.875  22.438  0.00  0.00    +0.190 C 
BRANCH  13   3
ATOM      3  O   UNL     1       9.767   9.257  22.405  0.00  0.00    -0.392 OA
ATOM     26  H   UNL     1       8.841   9.347  22.688  0.00  0.00    +0.210 HD
ENDBRANCH  13   3
ENDBRANCH  11  13
TORSDOF 9
ENDMDL
MODEL 2
REMARK VINA RESULT:      -5.3     25.122     28.578
REMARK  Name = 28962235
REMARK  11 active torsions:
REMARK  status: ('A' for Active; 'I' for Inactive)
REMARK    1  A    between atoms: O_2  and  C_10
REMARK    2  A    between atoms: O_3  and  C_13
REMARK    3  A    between atoms: N_5  and  C_8
REMARK    4  A    between atoms: N_5  and  C_14
REMARK    5  A    between atoms: N_5  and  C_15
REMARK    6  A    between atoms: N_6  and  C_12
REMARK    7  A    between atoms: C_9  and  C_12
REMARK    8  A    between atoms: C_11  and  C_13
REMARK    9  A    between atoms: C_14  and  C_16
REMARK   10  A    between atoms: C_16  and  C_17
REMARK   11  A    between atoms: C_18  and  C_20
REMARK                            x       y       z     vdW  Elec       q    Type
REMARK                         _______ _______ _______ _____ _____    ______ ____
ROOT
ATOM      1  O   UNL     1     -16.395   5.486  22.939  0.00  0.00    -0.365 OA
ATOM      8  C   UNL     1     -14.376   6.458  22.131  0.00  0.00    +0.118 C 
ATOM      9  C   UNL     1     -15.888   6.350  21.896  0.00  0.00    +0.155 C 
ATOM     10  C   UNL     1     -14.050   5.165  22.864  0.00  0.00    +0.165 C 
ATOM     11  C   UNL     1     -15.291   5.014  23.735  0.00  0.00    +0.174 C 
ENDROOT
BRANCH  10   2
ATOM      2  O   UNL     1     -13.943   4.070  21.962  0.00  0.00    -0.388 OA
ATOM     24  H   UNL     1     -14.529   4.251  21.208  0.00  0.00    +0.210 HD
ENDBRANCH  10   2
BRANCH   8   5
ATOM      5  N   UNL     1     -13.562   6.730  20.961  0.00  0.00    -0.297 NA
ATOM     15  C   UNL     1     -12.155   6.407  21.216  0.00  0.00    +0.105 C 
BRANCH   5  14
ATOM     14  C   UNL     1     -13.690   8.131  20.550  0.00  0.00    +0.090 C 
BRANCH  14  16
ATOM     16  C   UNL     1     -13.644   8.262  19.027  0.00  0.00    +0.071 C 
BRANCH  16  17
ATOM      7  N   UNL     1     -11.755   8.068  17.502  0.00  0.00    -0.260 NA
ATOM     17  C   UNL     1     -12.291   8.730  18.552  0.00  0.00    +0.042 A 
ATOM     19  C   UNL     1     -11.676   9.791  19.197  0.00  0.00    +0.023 A 
ATOM     21  C   UNL     1     -10.430  10.200  18.734  0.00  0.00    +0.003 A 
ATOM     22  C   UNL     1     -10.543   8.493  17.081  0.00  0.00    +0.111 A 
ATOM     23  C   UNL     1      -9.846   9.544  17.656  0.00  0.00    +0.020 A 
ENDBRANCH  16  17
ENDBRANCH  14  16
ENDBRANCH   5  14
ENDBRANCH   8   5
BRANCH   9  12
ATOM     12  C   UNL     1     -16.332   5.756  20.563  0.00  0.00    +0.137 C 
BRANCH  12   6
ATOM      4  O   UNL     1     -18.516   4.753  18.934  0.00  0.00    -0.276 OA
ATOM      6  N   UNL     1     -17.097   4.535  20.765  0.00  0.00    -0.313 N 
ATOM     18  C   UNL     1     -18.123   4.148  19.927  0.00  0.00    +0.210 C 
ATOM     20  C   UNL     1     -18.727   2.836  20.349  0.00  0.00    +0.109 C 
ATOM     25  H   UNL     1     -16.859   3.955  21.564  0.00  0.00    +0.149 HD
ENDBRANCH  12   6
ENDBRANCH   9  12
BRANCH  11  13
ATOM     13  C   UNL     1     -15.585   3.604  24.214  0.00  0.00    +0.190 C 
BRANCH  13   3
ATOM      3  O   UNL     1     -16.051   2.836  23.117  0.00  0.00    -0.392 OA
ATOM     26  H   UNL     1     -16.990   3.056  22.992  0.00  0.00    +0.210 HD
ENDBRANCH  13   3
ENDBRANCH  11  13
TORSDOF 9
ENDMDL
MODEL 3
REMARK VINA RESULT:      -5.2      2.481      6.264
REMARK  Name = 28962235
REMARK  11 active torsions:
REMARK  status: ('A' for Active; 'I' for Inactive)
REMARK    1  A    between atoms: O_2  and  C_10
REMARK    2  A    between atoms: O_3  and  C_13
REMARK    3  A    between atoms: N_5  and  C_8
REMARK    4  A    between atoms: N_5  and  C_14
REMARK    5  A    between atoms: N_5  and  C_15
REMARK    6  A    between atoms: N_6  and  C_12
REMARK    7  A    between atoms: C_9  and  C_12
REMARK    8  A    between atoms: C_11  and  C_13
REMARK    9  A    between atoms: C_14  and  C_16
REMARK   10  A    between atoms: C_16  and  C_17
REMARK   11  A    between atoms: C_18  and  C_20
REMARK                            x       y       z     vdW  Elec       q    Type
REMARK                         _______ _______ _______ _____ _____    ______ ____
ROOT
ATOM      1  O   UNL     1      14.659   8.404  21.724  0.00  0.00    -0.365 OA
ATOM      8  C   UNL     1      14.284  10.328  20.371  0.00  0.00    +0.118 C 
ATOM      9  C   UNL     1      13.997   9.690  21.736  0.00  0.00    +0.155 C 
ATOM     10  C   UNL     1      14.520   9.122  19.472  0.00  0.00    +0.165 C 
ATOM     11  C   UNL     1      15.259   8.197  20.431  0.00  0.00    +0.174 C 
ENDROOT
BRANCH  10   2
ATOM      2  O   UNL     1      13.293   8.532  19.062  0.00  0.00    -0.388 OA
ATOM     24  H   UNL     1      12.903   9.106  18.381  0.00  0.00    +0.210 HD
ENDBRANCH  10   2
BRANCH   8   5
ATOM      5  N   UNL     1      13.299  11.278  19.887  0.00  0.00    -0.297 NA
ATOM     15  C   UNL     1      13.530  11.596  18.475  0.00  0.00    +0.105 C 
BRANCH   5  14
ATOM     14  C   UNL     1      13.321  12.506  20.689  0.00  0.00    +0.090 C 
BRANCH  14  16
ATOM     16  C   UNL     1      11.904  13.031  20.925  0.00  0.00    +0.071 C 
BRANCH  16  17
ATOM      7  N   UNL     1      12.571  12.771  23.252  0.00  0.00    -0.260 NA
ATOM     17  C   UNL     1      11.592  13.140  22.396  0.00  0.00    +0.042 A 
ATOM     19  C   UNL     1      10.348  13.603  22.793  0.00  0.00    +0.023 A 
ATOM     21  C   UNL     1      10.092  13.694  24.157  0.00  0.00    +0.003 A 
ATOM     22  C   UNL     1      12.286  12.872  24.569  0.00  0.00    +0.111 A 
ATOM     23  C   UNL     1      11.074  13.323  25.069  0.00  0.00    +0.020 A 
ENDBRANCH  16  17
ENDBRANCH  14  16
ENDBRANCH   5  14
ENDBRANCH   8   5
BRANCH   9  12
ATOM     12  C   UNL     1      12.533   9.440  22.080  0.00  0.00    +0.137 C 
BRANCH  12   6
ATOM      4  O   UNL     1      10.582   7.985  20.497  0.00  0.00    -0.276 OA
ATOM      6  N   UNL     1      12.244   8.014  22.125  0.00  0.00    -0.313 N 
ATOM     18  C   UNL     1      11.290   7.419  21.325  0.00  0.00    +0.210 C 
ATOM     20  C   UNL     1      11.212   5.934  21.555  0.00  0.00    +0.109 C 
ATOM     25  H   UNL     1      12.770   7.445  22.781  0.00  0.00    +0.149 HD
ENDBRANCH  12   6
ENDBRANCH   9  12
BRANCH  11  13
ATOM     13  C   UNL     1      15.205   6.720  20.085  0.00  0.00    +0.190 C 
BRANCH  13   3
ATOM      3  O   UNL     1      14.429   6.048  21.063  0.00  0.00    -0.392 OA
ATOM     26  H   UNL     1      14.380   6.632  21.840  0.00  0.00    +0.210 HD
ENDBRANCH  13   3
ENDBRANCH  11  13
TORSDOF 9
ENDMDL
MODEL 4
REMARK VINA RESULT:      -5.2     28.374     31.221
REMARK  Name = 28962235
REMARK  11 active torsions:
REMARK  status: ('A' for Active; 'I' for Inactive)
REMARK    1  A    between atoms: O_2  and  C_10
REMARK    2  A    between atoms: O_3  and  C_13
REMARK    3  A    between atoms: N_5  and  C_8
REMARK    4  A    between atoms: N_5  and  C_14
REMARK    5  A    between atoms: N_5  and  C_15
REMARK    6  A    between atoms: N_6  and  C_12
REMARK    7  A    between atoms: C_9  and  C_12
REMARK    8  A    between atoms: C_11  and  C_13
REMARK    9  A    between atoms: C_14  and  C_16
REMARK   10  A    between atoms: C_16  and  C_17
REMARK   11  A    between atoms: C_18  and  C_20
REMARK                            x       y       z     vdW  Elec       q    Type
REMARK                         _______ _______ _______ _____ _____    ______ ____
ROOT
ATOM      1  O   UNL     1     -17.492   4.765  23.372  0.00  0.00    -0.365 OA
ATOM      8  C   UNL     1     -17.539   2.872  24.816  0.00  0.00    +0.118 C 
ATOM      9  C   UNL     1     -16.878   4.234  24.569  0.00  0.00    +0.155 C 
ATOM     10  C   UNL     1     -17.984   2.450  23.423  0.00  0.00    +0.165 C 
ATOM     11  C   UNL     1     -18.416   3.793  22.847  0.00  0.00    +0.174 C 
ENDROOT
BRANCH  10   2
ATOM      2  O   UNL     1     -16.903   1.914  22.672  0.00  0.00    -0.388 OA
ATOM     24  H   UNL     1     -16.956   0.944  22.731  0.00  0.00    +0.210 HD
ENDBRANCH  10   2
BRANCH   8   5
ATOM      5  N   UNL     1     -16.743   1.894  25.535  0.00  0.00    -0.297 NA
ATOM     15  C   UNL     1     -17.355   0.564  25.459  0.00  0.00    +0.105 C 
BRANCH   5  14
ATOM     14  C   UNL     1     -16.571   2.289  26.936  0.00  0.00    +0.090 C 
BRANCH  14  16
ATOM     16  C   UNL     1     -16.879   1.123  27.876  0.00  0.00    +0.071 C 
BRANCH  16  17
ATOM      7  N   UNL     1     -16.002   0.022  29.863  0.00  0.00    -0.260 NA
ATOM     17  C   UNL     1     -15.957   1.115  29.070  0.00  0.00    +0.042 A 
ATOM     19  C   UNL     1     -15.126   2.201  29.291  0.00  0.00    +0.023 A 
ATOM     21  C   UNL     1     -14.285   2.163  30.398  0.00  0.00    +0.003 A 
ATOM     22  C   UNL     1     -15.171   0.020  30.930  0.00  0.00    +0.111 A 
ATOM     23  C   UNL     1     -14.302   1.055  31.239  0.00  0.00    +0.020 A 
ENDBRANCH  16  17
ENDBRANCH  14  16
ENDBRANCH   5  14
ENDBRANCH   8   5
BRANCH   9  12
ATOM     12  C   UNL     1     -15.371   4.232  24.341  0.00  0.00    +0.137 C 
BRANCH  12   6
ATOM      4  O   UNL     1     -14.254   4.581  21.683  0.00  0.00    -0.276 OA
ATOM      6  N   UNL     1     -14.936   5.475  23.720  0.00  0.00    -0.313 N 
ATOM     18  C   UNL     1     -14.415   5.531  22.443  0.00  0.00    +0.210 C 
ATOM     20  C   UNL     1     -14.070   6.939  22.040  0.00  0.00    +0.109 C 
ATOM     25  H   UNL     1     -15.020   6.329  24.263  0.00  0.00    +0.149 HD
ENDBRANCH  12   6
ENDBRANCH   9  12
BRANCH  11  13
ATOM     13  C   UNL     1     -18.428   3.880  21.332  0.00  0.00    +0.190 C 
BRANCH  13   3
ATOM      3  O   UNL     1     -17.119   4.188  20.881  0.00  0.00    -0.392 OA
ATOM     26  H   UNL     1     -16.630   4.543  21.642  0.00  0.00    +0.210 HD
ENDBRANCH  13   3
ENDBRANCH  11  13
TORSDOF 9
ENDMDL
MODEL 5
REMARK VINA RESULT:      -5.1     25.679     28.127
REMARK  Name = 28962235
REMARK  11 active torsions:
REMARK  status: ('A' for Active; 'I' for Inactive)
REMARK    1  A    between atoms: O_2  and  C_10
REMARK    2  A    between atoms: O_3  and  C_13
REMARK    3  A    between atoms: N_5  and  C_8
REMARK    4  A    between atoms: N_5  and  C_14
REMARK    5  A    between atoms: N_5  and  C_15
REMARK    6  A    between atoms: N_6  and  C_12
REMARK    7  A    between atoms: C_9  and  C_12
REMARK    8  A    between atoms: C_11  and  C_13
REMARK    9  A    between atoms: C_14  and  C_16
REMARK   10  A    between atoms: C_16  and  C_17
REMARK   11  A    between atoms: C_18  and  C_20
REMARK                            x       y       z     vdW  Elec       q    Type
REMARK                         _______ _______ _______ _____ _____    ______ ____
ROOT
ATOM      1  O   UNL     1      -3.323 -10.415  15.369  0.00  0.00    -0.365 OA
ATOM      8  C   UNL     1      -3.536 -11.729  13.394  0.00  0.00    +0.118 C 
ATOM      9  C   UNL     1      -4.276 -11.218  14.637  0.00  0.00    +0.155 C 
ATOM     10  C   UNL     1      -2.080 -11.725  13.838  0.00  0.00    +0.165 C 
ATOM     11  C   UNL     1      -2.051 -10.466  14.695  0.00  0.00    +0.174 C 
ENDROOT
BRANCH  10   2
ATOM      2  O   UNL     1      -1.774 -12.868  14.626  0.00  0.00    -0.388 OA
ATOM     24  H   UNL     1      -2.383 -13.579  14.363  0.00  0.00    +0.210 HD
ENDBRANCH  10   2
BRANCH   8   5
ATOM      5  N   UNL     1      -4.010 -12.982  12.835  0.00  0.00    -0.297 NA
ATOM     15  C   UNL     1      -2.995 -13.582  11.963  0.00  0.00    +0.105 C 
BRANCH   5  14
ATOM     14  C   UNL     1      -5.257 -12.782  12.090  0.00  0.00    +0.090 C 
BRANCH  14  16
ATOM     16  C   UNL     1      -4.974 -12.471  10.620  0.00  0.00    +0.071 C 
BRANCH  16  17
ATOM      7  N   UNL     1      -6.188 -10.360  10.633  0.00  0.00    -0.260 NA
ATOM     17  C   UNL     1      -5.025 -10.988  10.348  0.00  0.00    +0.042 A 
ATOM     19  C   UNL     1      -3.906 -10.355   9.833  0.00  0.00    +0.023 A 
ATOM     21  C   UNL     1      -3.984  -8.987   9.595  0.00  0.00    +0.003 A 
ATOM     22  C   UNL     1      -6.226  -9.031  10.388  0.00  0.00    +0.111 A 
ATOM     23  C   UNL     1      -5.163  -8.305   9.875  0.00  0.00    +0.020 A 
ENDBRANCH  16  17
ENDBRANCH  14  16
ENDBRANCH   5  14
ENDBRANCH   8   5
BRANCH   9  12
ATOM     12  C   UNL     1      -4.809 -12.275  15.598  0.00  0.00    +0.137 C 
BRANCH  12   6
ATOM      4  O   UNL     1      -5.990 -12.327  18.251  0.00  0.00    -0.276 OA
ATOM      6  N   UNL     1      -4.116 -12.214  16.876  0.00  0.00    -0.313 N 
ATOM     18  C   UNL     1      -4.776 -12.245  18.088  0.00  0.00    +0.210 C 
ATOM     20  C   UNL     1      -3.820 -12.194  19.249  0.00  0.00    +0.109 C 
ATOM     25  H   UNL     1      -3.103 -12.140  16.861  0.00  0.00    +0.149 HD
ENDBRANCH  12   6
ENDBRANCH   9  12
BRANCH  11  13
ATOM     13  C   UNL     1      -0.936 -10.403  15.724  0.00  0.00    +0.190 C 
BRANCH  13   3
ATOM      3  O   UNL     1      -1.374 -11.040  16.913  0.00  0.00    -0.392 OA
ATOM     26  H   UNL     1      -0.723 -11.730  17.124  0.00  0.00    +0.210 HD
ENDBRANCH  13   3
ENDBRANCH  11  13
TORSDOF 9
ENDMDL
MODEL 6
REMARK VINA RESULT:      -5.1     27.015     28.033
REMARK  Name = 28962235
REMARK  11 active torsions:
REMARK  status: ('A' for Active; 'I' for Inactive)
REMARK    1  A    between atoms: O_2  and  C_10
REMARK    2  A    between atoms: O_3  and  C_13
REMARK    3  A    between atoms: N_5  and  C_8
REMARK    4  A    between atoms: N_5  and  C_14
REMARK    5  A    between atoms: N_5  and  C_15
REMARK    6  A    between atoms: N_6  and  C_12
REMARK    7  A    between atoms: C_9  and  C_12
REMARK    8  A    between atoms: C_11  and  C_13
REMARK    9  A    between atoms: C_14  and  C_16
REMARK   10  A    between atoms: C_16  and  C_17
REMARK   11  A    between atoms: C_18  and  C_20
REMARK                            x       y       z     vdW  Elec       q    Type
REMARK                         _______ _______ _______ _____ _____    ______ ____
ROOT
ATOM      1  O   UNL     1      -5.285 -10.257  18.262  0.00  0.00    -0.365 OA
ATOM      8  C   UNL     1      -4.395 -11.749  16.634  0.00  0.00    +0.118 C 
ATOM      9  C   UNL     1      -4.718 -10.279  16.932  0.00  0.00    +0.155 C 
ATOM     10  C   UNL     1      -5.378 -12.502  17.518  0.00  0.00    +0.165 C 
ATOM     11  C   UNL     1      -5.389 -11.608  18.751  0.00  0.00    +0.174 C 
ENDROOT
BRANCH  10   2
ATOM      2  O   UNL     1      -6.672 -12.553  16.931  0.00  0.00    -0.388 OA
ATOM     24  H   UNL     1      -7.246 -11.948  17.432  0.00  0.00    +0.210 HD
ENDBRANCH  10   2
BRANCH   8   5
ATOM      5  N   UNL     1      -4.398 -12.135  15.234  0.00  0.00    -0.297 NA
ATOM     15  C   UNL     1      -4.142 -13.571  15.088  0.00  0.00    +0.105 C 
BRANCH   5  14
ATOM     14  C   UNL     1      -3.404 -11.368  14.478  0.00  0.00    +0.090 C 
BRANCH  14  16
ATOM     16  C   UNL     1      -3.346 -11.830  13.022  0.00  0.00    +0.071 C 
BRANCH  16  17
ATOM      7  N   UNL     1      -4.932 -10.156  12.237  0.00  0.00    -0.260 NA
ATOM     17  C   UNL     1      -3.712 -10.716  12.073  0.00  0.00    +0.042 A 
ATOM     19  C   UNL     1      -2.804 -10.326  11.102  0.00  0.00    +0.023 A 
ATOM     21  C   UNL     1      -3.170  -9.295  10.245  0.00  0.00    +0.003 A 
ATOM     22  C   UNL     1      -5.253  -9.158  11.385  0.00  0.00    +0.111 A 
ATOM     23  C   UNL     1      -4.417  -8.694  10.382  0.00  0.00    +0.020 A 
ENDBRANCH  16  17
ENDBRANCH  14  16
ENDBRANCH   5  14
ENDBRANCH   8   5
BRANCH   9  12
ATOM     12  C   UNL     1      -5.717  -9.597  16.004  0.00  0.00    +0.137 C 
BRANCH  12   6
ATOM      4  O   UNL     1      -8.451 -10.443  15.512  0.00  0.00    -0.276 OA
ATOM      6  N   UNL     1      -6.912  -9.193  16.730  0.00  0.00    -0.313 N 
ATOM     18  C   UNL     1      -8.172  -9.657  16.413  0.00  0.00    +0.210 C 
ATOM     20  C   UNL     1      -9.223  -9.102  17.337  0.00  0.00    +0.109 C 
ATOM     25  H   UNL     1      -6.800  -8.538  17.498  0.00  0.00    +0.149 HD
ENDBRANCH  12   6
ENDBRANCH   9  12
BRANCH  11  13
ATOM     13  C   UNL     1      -6.620 -11.727  19.633  0.00  0.00    +0.190 C 
BRANCH  13   3
ATOM      3  O   UNL     1      -7.167 -10.434  19.832  0.00  0.00    -0.392 OA
ATOM     26  H   UNL     1      -8.101 -10.474  19.562  0.00  0.00    +0.210 HD
ENDBRANCH  13   3
ENDBRANCH  11  13
TORSDOF 9
ENDMDL
MODEL 7
REMARK VINA RESULT:      -5.1     26.150     28.155
REMARK  Name = 28962235
REMARK  11 active torsions:
REMARK  status: ('A' for Active; 'I' for Inactive)
REMARK    1  A    between atoms: O_2  and  C_10
REMARK    2  A    between atoms: O_3  and  C_13
REMARK    3  A    between atoms: N_5  and  C_8
REMARK    4  A    between atoms: N_5  and  C_14
REMARK    5  A    between atoms: N_5  and  C_15
REMARK    6  A    between atoms: N_6  and  C_12
REMARK    7  A    between atoms: C_9  and  C_12
REMARK    8  A    between atoms: C_11  and  C_13
REMARK    9  A    between atoms: C_14  and  C_16
REMARK   10  A    between atoms: C_16  and  C_17
REMARK   11  A    between atoms: C_18  and  C_20
REMARK                            x       y       z     vdW  Elec       q    Type
REMARK                         _______ _______ _______ _____ _____    ______ ____
ROOT
ATOM      1  O   UNL     1      -6.641 -11.434  17.545  0.00  0.00    -0.365 OA
ATOM      8  C   UNL     1      -7.766 -10.814  15.539  0.00  0.00    +0.118 C 
ATOM      9  C   UNL     1      -6.388 -11.025  16.181  0.00  0.00    +0.155 C 
ATOM     10  C   UNL     1      -8.652 -10.487  16.731  0.00  0.00    +0.165 C 
ATOM     11  C   UNL     1      -8.061 -11.415  17.785  0.00  0.00    +0.174 C 
ENDROOT
BRANCH  10   2
ATOM      2  O   UNL     1      -8.508  -9.129  17.130  0.00  0.00    -0.388 OA
ATOM     24  H   UNL     1      -8.146  -9.125  18.032  0.00  0.00    +0.210 HD
ENDBRANCH  10   2
BRANCH   8   5
ATOM      5  N   UNL     1      -7.824  -9.864  14.443  0.00  0.00    -0.297 NA
ATOM     15  C   UNL     1      -9.213  -9.585  14.067  0.00  0.00    +0.105 C 
BRANCH   5  14
ATOM     14  C   UNL     1      -7.078 -10.359  13.282  0.00  0.00    +0.090 C 
BRANCH  14  16
ATOM     16  C   UNL     1      -6.632  -9.204  12.384  0.00  0.00    +0.071 C 
BRANCH  16  17
ATOM      7  N   UNL     1      -4.423 -10.212  12.573  0.00  0.00    -0.260 NA
ATOM     17  C   UNL     1      -5.246  -9.435  11.834  0.00  0.00    +0.042 A 
ATOM     19  C   UNL     1      -4.891  -8.855  10.627  0.00  0.00    +0.023 A 
ATOM     21  C   UNL     1      -3.607  -9.089  10.146  0.00  0.00    +0.003 A 
ATOM     22  C   UNL     1      -3.183 -10.416  12.073  0.00  0.00    +0.111 A 
ATOM     23  C   UNL     1      -2.731  -9.883  10.877  0.00  0.00    +0.020 A 
ENDBRANCH  16  17
ENDBRANCH  14  16
ENDBRANCH   5  14
ENDBRANCH   8   5
BRANCH   9  12
ATOM     12  C   UNL     1      -5.467  -9.812  16.237  0.00  0.00    +0.137 C 
BRANCH  12   6
ATOM      4  O   UNL     1      -3.270 -11.228  17.504  0.00  0.00    -0.276 OA
ATOM      6  N   UNL     1      -4.165 -10.119  15.664  0.00  0.00    -0.313 N 
ATOM     18  C   UNL     1      -3.185 -10.801  16.356  0.00  0.00    +0.210 C 
ATOM     20  C   UNL     1      -1.949 -11.006  15.522  0.00  0.00    +0.109 C 
ATOM     25  H   UNL     1      -3.981  -9.808  14.714  0.00  0.00    +0.149 HD
ENDBRANCH  12   6
ENDBRANCH   9  12
BRANCH  11  13
ATOM     13  C   UNL     1      -8.319 -11.014  19.227  0.00  0.00    +0.190 C 
BRANCH  13   3
ATOM      3  O   UNL     1      -7.281 -10.149  19.654  0.00  0.00    -0.392 OA
ATOM     26  H   UNL     1      -7.621  -9.647  20.415  0.00  0.00    +0.210 HD
ENDBRANCH  13   3
ENDBRANCH  11  13
TORSDOF 9
ENDMDL
MODEL 8
REMARK VINA RESULT:      -5.0      2.283      3.158
REMARK  Name = 28962235
REMARK  11 active torsions:
REMARK  status: ('A' for Active; 'I' for Inactive)
REMARK    1  A    between atoms: O_2  and  C_10
REMARK    2  A    between atoms: O_3  and  C_13
REMARK    3  A    between atoms: N_5  and  C_8
REMARK    4  A    between atoms: N_5  and  C_14
REMARK    5  A    between atoms: N_5  and  C_15
REMARK    6  A    between atoms: N_6  and  C_12
REMARK    7  A    between atoms: C_9  and  C_12
REMARK    8  A    between atoms: C_11  and  C_13
REMARK    9  A    between atoms: C_14  and  C_16
REMARK   10  A    between atoms: C_16  and  C_17
REMARK   11  A    between atoms: C_18  and  C_20
REMARK                            x       y       z     vdW  Elec       q    Type
REMARK                         _______ _______ _______ _____ _____    ______ ____
ROOT
ATOM      1  O   UNL     1      13.286   7.734  22.048  0.00  0.00    -0.365 OA
ATOM      8  C   UNL     1      15.061   6.718  20.828  0.00  0.00    +0.118 C 
ATOM      9  C   UNL     1      14.728   7.620  22.022  0.00  0.00    +0.155 C 
ATOM     10  C   UNL     1      13.870   6.920  19.903  0.00  0.00    +0.165 C 
ATOM     11  C   UNL     1      12.740   7.026  20.918  0.00  0.00    +0.174 C 
ENDROOT
BRANCH  10   2
ATOM      2  O   UNL     1      13.986   8.129  19.163  0.00  0.00    -0.388 OA
ATOM     24  H   UNL     1      14.927   8.375  19.146  0.00  0.00    +0.210 HD
ENDBRANCH  10   2
BRANCH   8   5
ATOM      5  N   UNL     1      16.362   6.918  20.216  0.00  0.00    -0.297 NA
ATOM     15  C   UNL     1      16.497   6.113  18.998  0.00  0.00    +0.105 C 
BRANCH   5  14
ATOM     14  C   UNL     1      17.438   6.590  21.157  0.00  0.00    +0.090 C 
BRANCH  14  16
ATOM     16  C   UNL     1      18.805   6.953  20.576  0.00  0.00    +0.071 C 
BRANCH  16  17
ATOM      7  N   UNL     1      20.362   6.369  22.355  0.00  0.00    -0.260 NA
ATOM     17  C   UNL     1      19.893   6.064  21.124  0.00  0.00    +0.042 A 
ATOM     19  C   UNL     1      20.350   5.003  20.360  0.00  0.00    +0.023 A 
ATOM     21  C   UNL     1      21.353   4.201  20.894  0.00  0.00    +0.003 A 
ATOM     22  C   UNL     1      21.336   5.568  22.840  0.00  0.00    +0.111 A 
ATOM     23  C   UNL     1      21.861   4.482  22.158  0.00  0.00    +0.020 A 
ENDBRANCH  16  17
ENDBRANCH  14  16
ENDBRANCH   5  14
ENDBRANCH   8   5
BRANCH   9  12
ATOM     12  C   UNL     1      15.291   9.037  21.988  0.00  0.00    +0.137 C 
BRANCH  12   6
ATOM      4  O   UNL     1      14.672  11.161  23.869  0.00  0.00    -0.276 OA
ATOM      6  N   UNL     1      14.224  10.021  21.890  0.00  0.00    -0.313 N 
ATOM     18  C   UNL     1      14.014  10.994  22.845  0.00  0.00    +0.210 C 
ATOM     20  C   UNL     1      12.862  11.894  22.486  0.00  0.00    +0.109 C 
ATOM     25  H   UNL     1      13.611   9.974  21.081  0.00  0.00    +0.149 HD
ENDBRANCH  12   6
ENDBRANCH   9  12
BRANCH  11  13
ATOM     13  C   UNL     1      11.492   7.743  20.434  0.00  0.00    +0.190 C 
BRANCH  13   3
ATOM      3  O   UNL     1      11.676   9.141  20.595  0.00  0.00    -0.392 OA
ATOM     26  H   UNL     1      11.921   9.292  21.523  0.00  0.00    +0.210 HD
ENDBRANCH  13   3
ENDBRANCH  11  13
TORSDOF 9
ENDMDL
MODEL 9
REMARK VINA RESULT:      -5.0      2.198      3.890
REMARK  Name = 28962235
REMARK  11 active torsions:
REMARK  status: ('A' for Active; 'I' for Inactive)
REMARK    1  A    between atoms: O_2  and  C_10
REMARK    2  A    between atoms: O_3  and  C_13
REMARK    3  A    between atoms: N_5  and  C_8
REMARK    4  A    between atoms: N_5  and  C_14
REMARK    5  A    between atoms: N_5  and  C_15
REMARK    6  A    between atoms: N_6  and  C_12
REMARK    7  A    between atoms: C_9  and  C_12
REMARK    8  A    between atoms: C_11  and  C_13
REMARK    9  A    between atoms: C_14  and  C_16
REMARK   10  A    between atoms: C_16  and  C_17
REMARK   11  A    between atoms: C_18  and  C_20
REMARK                            x       y       z     vdW  Elec       q    Type
REMARK                         _______ _______ _______ _____ _____    ______ ____
ROOT
ATOM      1  O   UNL     1      12.507  13.025  23.322  0.00  0.00    -0.365 OA
ATOM      8  C   UNL     1      12.149  10.761  22.677  0.00  0.00    +0.118 C 
ATOM      9  C   UNL     1      12.467  12.169  22.157  0.00  0.00    +0.155 C 
ATOM     10  C   UNL     1      11.404  11.035  23.975  0.00  0.00    +0.165 C 
ATOM     11  C   UNL     1      12.168  12.250  24.487  0.00  0.00    +0.174 C 
ENDROOT
BRANCH  10   2
ATOM      2  O   UNL     1      10.044  11.372  23.732  0.00  0.00    -0.388 OA
ATOM     24  H   UNL     1       9.580  11.356  24.586  0.00  0.00    +0.210 HD
ENDBRANCH  10   2
BRANCH   8   5
ATOM      5  N   UNL     1      11.473   9.872  21.750  0.00  0.00    -0.297 NA
ATOM     15  C   UNL     1      11.020   8.655  22.429  0.00  0.00    +0.105 C 
BRANCH   5  14
ATOM     14  C   UNL     1      12.350   9.524  20.627  0.00  0.00    +0.090 C 
BRANCH  14  16
ATOM     16  C   UNL     1      12.614   8.018  20.584  0.00  0.00    +0.071 C 
BRANCH  16  17
ATOM      7  N   UNL     1      14.842   8.415  21.483  0.00  0.00    -0.260 NA
ATOM     17  C   UNL     1      14.092   7.716  20.603  0.00  0.00    +0.042 A 
ATOM     19  C   UNL     1      14.598   6.758  19.740  0.00  0.00    +0.023 A 
ATOM     21  C   UNL     1      15.964   6.501  19.783  0.00  0.00    +0.003 A 
ATOM     22  C   UNL     1      16.165   8.139  21.496  0.00  0.00    +0.111 A 
ATOM     23  C   UNL     1      16.770   7.200  20.675  0.00  0.00    +0.020 A 
ENDBRANCH  16  17
ENDBRANCH  14  16
ENDBRANCH   5  14
ENDBRANCH   8   5
BRANCH   9  12
ATOM     12  C   UNL     1      11.467  12.780  21.182  0.00  0.00    +0.137 C 
BRANCH  12   6
ATOM      4  O   UNL     1       9.992  15.129  20.324  0.00  0.00    -0.276 OA
ATOM      6  N   UNL     1      10.393  13.457  21.892  0.00  0.00    -0.313 N 
ATOM     18  C   UNL     1       9.754  14.574  21.393  0.00  0.00    +0.210 C 
ATOM     20  C   UNL     1       8.667  15.057  22.315  0.00  0.00    +0.109 C 
ATOM     25  H   UNL     1      10.114  13.084  22.795  0.00  0.00    +0.149 HD
ENDBRANCH  12   6
ENDBRANCH   9  12
BRANCH  11  13
ATOM     13  C   UNL     1      11.416  13.128  25.471  0.00  0.00    +0.190 C 
BRANCH  13   3
ATOM      3  O   UNL     1      10.524  12.317  26.219  0.00  0.00    -0.392 OA
ATOM     26  H   UNL     1       9.727  12.848  26.388  0.00  0.00    +0.210 HD
ENDBRANCH  13   3
ENDBRANCH  11  13
TORSDOF 9
ENDMDL
MODEL 10
REMARK VINA RESULT:      -5.0     29.270     31.023
REMARK  Name = 28962235
REMARK  11 active torsions:
REMARK  status: ('A' for Active; 'I' for Inactive)
REMARK    1  A    between atoms: O_2  and  C_10
REMARK    2  A    between atoms: O_3  and  C_13
REMARK    3  A    between atoms: N_5  and  C_8
REMARK    4  A    between atoms: N_5  and  C_14
REMARK    5  A    between atoms: N_5  and  C_15
REMARK    6  A    between atoms: N_6  and  C_12
REMARK    7  A    between atoms: C_9  and  C_12
REMARK    8  A    between atoms: C_11  and  C_13
REMARK    9  A    between atoms: C_14  and  C_16
REMARK   10  A    between atoms: C_16  and  C_17
REMARK   11  A    between atoms: C_18  and  C_20
REMARK                            x       y       z     vdW  Elec       q    Type
REMARK                         _______ _______ _______ _____ _____    ______ ____
ROOT
ATOM      1  O   UNL     1     -14.317   3.034  29.332  0.00  0.00    -0.365 OA
ATOM      8  C   UNL     1     -14.960   4.177  31.320  0.00  0.00    +0.118 C 
ATOM      9  C   UNL     1     -13.987   3.145  30.736  0.00  0.00    +0.155 C 
ATOM     10  C   UNL     1     -16.158   4.085  30.386  0.00  0.00    +0.165 C 
ATOM     11  C   UNL     1     -15.458   3.867  29.051  0.00  0.00    +0.174 C 
ENDROOT
BRANCH  10   2
ATOM      2  O   UNL     1     -16.979   2.968  30.702  0.00  0.00    -0.388 OA
ATOM     24  H   UNL     1     -17.885   3.297  30.835  0.00  0.00    +0.210 HD
ENDBRANCH  10   2
BRANCH   8   5
ATOM      5  N   UNL     1     -15.264   4.044  32.733  0.00  0.00    -0.297 NA
ATOM     15  C   UNL     1     -16.475   4.795  33.080  0.00  0.00    +0.105 C 
BRANCH   5  14
ATOM     14  C   UNL     1     -14.138   4.498  33.554  0.00  0.00    +0.090 C 
BRANCH  14  16
ATOM     16  C   UNL     1     -14.512   5.746  34.356  0.00  0.00    +0.071 C 
BRANCH  16  17
ATOM      7  N   UNL     1     -13.385   7.137  32.704  0.00  0.00    -0.260 NA
ATOM     17  C   UNL     1     -13.614   6.911  34.017  0.00  0.00    +0.042 A 
ATOM     19  C   UNL     1     -13.082   7.676  35.041  0.00  0.00    +0.023 A 
ATOM     21  C   UNL     1     -12.260   8.743  34.696  0.00  0.00    +0.003 A 
ATOM     22  C   UNL     1     -12.581   8.182  32.407  0.00  0.00    +0.111 A 
ATOM     23  C   UNL     1     -12.000   9.008  33.356  0.00  0.00    +0.020 A 
ENDBRANCH  16  17
ENDBRANCH  14  16
ENDBRANCH   5  14
ENDBRANCH   8   5
BRANCH   9  12
ATOM     12  C   UNL     1     -14.044   1.740  31.326  0.00  0.00    +0.137 C 
BRANCH  12   6
ATOM      4  O   UNL     1     -15.137  -0.731  30.261  0.00  0.00    -0.276 OA
ATOM      6  N   UNL     1     -13.380   0.782  30.456  0.00  0.00    -0.313 N 
ATOM     18  C   UNL     1     -13.993  -0.369  30.004  0.00  0.00    +0.210 C 
ATOM     20  C   UNL     1     -13.091  -1.167  29.102  0.00  0.00    +0.109 C 
ATOM     25  H   UNL     1     -12.422   0.978  30.180  0.00  0.00    +0.149 HD
ENDBRANCH  12   6
ENDBRANCH   9  12
BRANCH  11  13
ATOM     13  C   UNL     1     -16.301   3.214  27.970  0.00  0.00    +0.190 C 
BRANCH  13   3
ATOM      3  O   UNL     1     -15.731   3.507  26.705  0.00  0.00    -0.392 OA
ATOM     26  H   UNL     1     -14.918   4.014  26.868  0.00  0.00    +0.210 HD
ENDBRANCH  13   3
ENDBRANCH  11  13
TORSDOF 9
ENDMDL
