MODEL 1
REMARK VINA RESULT:      -6.8      0.000      0.000
REMARK  Name = 11885045
REMARK  14 active torsions:
REMARK  status: ('A' for Active; 'I' for Inactive)
REMARK    1  A    between atoms: O_2  and  C_15
REMARK    2  A    between atoms: O_3  and  C_20
REMARK    3  A    between atoms: O_6  and  C_35
REMARK    4  A    between atoms: N_8  and  C_26
REMARK    5  A    between atoms: C_10  and  C_18
REMARK    6  A    between atoms: C_12  and  C_20
REMARK    7  A    between atoms: C_12  and  C_21
REMARK    8  A    between atoms: C_13  and  C_23
REMARK    9  A    between atoms: C_23  and  C_24
REMARK   10  A    between atoms: C_27  and  C_28
REMARK   11  A    between atoms: C_28  and  C_29
REMARK   12  A    between atoms: C_29  and  C_32
REMARK   13  A    between atoms: C_29  and  C_33
REMARK   14  A    between atoms: C_29  and  C_34
REMARK                            x       y       z     vdW  Elec       q    Type
REMARK                         _______ _______ _______ _____ _____    ______ ____
ROOT
ATOM      1  S   UNL     1      10.176   8.369  -1.513  0.00  0.00    -0.057 S 
ATOM      5  O   UNL     1       7.313   9.151   2.079  0.00  0.00    -0.275 OA
ATOM      7  N   UNL     1       9.666   7.747   0.945  0.00  0.00    -0.229 NA
ATOM      9  N   UNL     1       8.200   9.352  -0.098  0.00  0.00    -0.265 N 
ATOM     10  C   UNL     1      12.446   5.086   0.714  0.00  0.00    -0.019 C 
ATOM     11  C   UNL     1      13.286   5.941  -0.333  0.00  0.00    +0.011 C 
ATOM     12  C   UNL     1      14.578   5.266  -0.937  0.00  0.00    +0.021 C 
ATOM     13  C   UNL     1      11.479   6.084   1.502  0.00  0.00    +0.054 C 
ATOM     14  C   UNL     1      13.411   4.431   1.737  0.00  0.00    +0.010 C 
ATOM     15  C   UNL     1      15.404   4.622   0.214  0.00  0.00    +0.123 C 
ATOM     16  C   UNL     1      12.364   6.595  -1.403  0.00  0.00    +0.049 C 
ATOM     17  C   UNL     1      14.579   3.694   1.099  0.00  0.00    +0.032 C 
ATOM     18  C   UNL     1      11.603   3.973   0.044  0.00  0.00    +0.012 C 
ATOM     19  C   UNL     1      10.771   7.016   0.552  0.00  0.00    +0.058 A 
ATOM     21  C   UNL     1      15.468   6.364  -1.586  0.00  0.00    +0.016 C 
ATOM     22  C   UNL     1      11.196   7.245  -0.741  0.00  0.00    +0.015 A 
ATOM     25  C   UNL     1       9.263   8.489  -0.064  0.00  0.00    +0.165 A 
ATOM     27  C   UNL     1       7.304   9.629   0.949  0.00  0.00    +0.219 C 
ATOM     41  H   UNL     1       8.064   9.826  -0.987  0.00  0.00    +0.157 HD
ENDROOT
BRANCH  15   2
ATOM      2  O   UNL     1      16.512   3.893  -0.311  0.00  0.00    -0.391 OA
ATOM     38  H   UNL     1      17.103   4.529  -0.749  0.00  0.00    +0.210 HD
ENDBRANCH  15   2
BRANCH  12  20
ATOM     20  C   UNL     1      14.302   4.240  -2.057  0.00  0.00    +0.165 C 
BRANCH  20   3
ATOM      3  O   UNL     1      15.315   4.375  -3.027  0.00  0.00    -0.394 OA
ATOM     39  H   UNL     1      16.123   4.659  -2.566  0.00  0.00    +0.209 HD
ENDBRANCH  20   3
ENDBRANCH  12  20
BRANCH  13  23
ATOM     23  C   UNL     1      10.491   5.396   2.455  0.00  0.00    +0.106 C 
BRANCH  23  24
ATOM      4  O   UNL     1      11.810   6.243   4.284  0.00  0.00    -0.275 OA
ATOM      8  N   UNL     1       9.638   5.439   4.678  0.00  0.00    -0.285 N 
ATOM     24  C   UNL     1      10.752   5.752   3.904  0.00  0.00    +0.218 C 
ATOM     40  H   UNL     1       8.835   5.026   4.211  0.00  0.00    +0.155 HD
BRANCH   8  26
ATOM     26  C   UNL     1       9.480   5.617   6.074  0.00  0.00    +0.037 A 
ATOM     30  C   UNL     1       9.928   4.635   6.956  0.00  0.00    +0.068 A 
ATOM     31  C   UNL     1       8.877   6.775   6.566  0.00  0.00    +0.023 A 
ATOM     35  C   UNL     1       9.773   4.809   8.332  0.00  0.00    +0.119 A 
ATOM     36  C   UNL     1       8.722   6.950   7.940  0.00  0.00    +0.005 A 
ATOM     37  C   UNL     1       9.170   5.967   8.823  0.00  0.00    +0.045 A 
BRANCH  35   6
ATOM      6  O   UNL     1      10.211   3.852   9.194  0.00  0.00    -0.507 OA
ATOM     42  H   UNL     1       9.794   3.993  10.060  0.00  0.00    +0.292 HD
ENDBRANCH  35   6
ENDBRANCH   8  26
ENDBRANCH  23  24
ENDBRANCH  13  23
BRANCH  27  28
ATOM     28  C   UNL     1       6.233  10.639   0.553  0.00  0.00    +0.102 C 
BRANCH  28  29
ATOM     29  C   UNL     1       4.782  10.104   0.618  0.00  0.00    -0.029 C 
ATOM     32  C   UNL     1       4.335   9.892   2.074  0.00  0.00    +0.011 C 
ATOM     33  C   UNL     1       4.631   8.784  -0.156  0.00  0.00    +0.011 C 
ATOM     34  C   UNL     1       3.858  11.155  -0.028  0.00  0.00    +0.011 C 
ENDBRANCH  28  29
ENDBRANCH  27  28
TORSDOF 9
ENDMDL
MODEL 2
REMARK VINA RESULT:      -6.8      2.390      7.975
REMARK  Name = 11885045
REMARK  14 active torsions:
REMARK  status: ('A' for Active; 'I' for Inactive)
REMARK    1  A    between atoms: O_2  and  C_15
REMARK    2  A    between atoms: O_3  and  C_20
REMARK    3  A    between atoms: O_6  and  C_35
REMARK    4  A    between atoms: N_8  and  C_26
REMARK    5  A    between atoms: C_10  and  C_18
REMARK    6  A    between atoms: C_12  and  C_20
REMARK    7  A    between atoms: C_12  and  C_21
REMARK    8  A    between atoms: C_13  and  C_23
REMARK    9  A    between atoms: C_23  and  C_24
REMARK   10  A    between atoms: C_27  and  C_28
REMARK   11  A    between atoms: C_28  and  C_29
REMARK   12  A    between atoms: C_29  and  C_32
REMARK   13  A    between atoms: C_29  and  C_33
REMARK   14  A    between atoms: C_29  and  C_34
REMARK                            x       y       z     vdW  Elec       q    Type
REMARK                         _______ _______ _______ _____ _____    ______ ____
ROOT
ATOM      1  S   UNL     1       9.741   8.113  -0.124  0.00  0.00    -0.057 S 
ATOM      5  O   UNL     1      12.405   6.515   3.349  0.00  0.00    -0.275 OA
ATOM      7  N   UNL     1       9.965   7.937   2.447  0.00  0.00    -0.229 NA
ATOM      9  N   UNL     1      11.727   6.949   1.132  0.00  0.00    -0.265 N 
ATOM     10  C   UNL     1       6.848  10.187   2.743  0.00  0.00    -0.019 C 
ATOM     11  C   UNL     1       6.226   9.638   1.384  0.00  0.00    +0.011 C 
ATOM     12  C   UNL     1       4.898  10.322   0.876  0.00  0.00    +0.021 C 
ATOM     13  C   UNL     1       7.889   9.101   3.282  0.00  0.00    +0.054 C 
ATOM     14  C   UNL     1       5.721  10.350   3.797  0.00  0.00    +0.010 C 
ATOM     15  C   UNL     1       3.900  10.448   2.064  0.00  0.00    +0.123 C 
ATOM     16  C   UNL     1       7.313   9.486   0.281  0.00  0.00    +0.049 C 
ATOM     17  C   UNL     1       4.510  11.119   3.291  0.00  0.00    +0.032 C 
ATOM     18  C   UNL     1       7.566  11.548   2.569  0.00  0.00    +0.012 C 
ATOM     19  C   UNL     1       8.797   8.626   2.177  0.00  0.00    +0.058 A 
ATOM     21  C   UNL     1       4.232   9.408  -0.191  0.00  0.00    +0.016 C 
ATOM     22  C   UNL     1       8.510   8.792   0.838  0.00  0.00    +0.015 A 
ATOM     25  C   UNL     1      10.548   7.624   1.310  0.00  0.00    +0.165 A 
ATOM     27  C   UNL     1      12.571   6.444   2.135  0.00  0.00    +0.219 C 
ATOM     41  H   UNL     1      11.999   6.816   0.161  0.00  0.00    +0.157 HD
ENDROOT
BRANCH  15   2
ATOM      2  O   UNL     1       2.741  11.179   1.669  0.00  0.00    -0.391 OA
ATOM     38  H   UNL     1       2.267  11.440   2.479  0.00  0.00    +0.210 HD
ENDBRANCH  15   2
BRANCH  12  20
ATOM     20  C   UNL     1       5.104  11.687   0.184  0.00  0.00    +0.165 C 
BRANCH  20   3
ATOM      3  O   UNL     1       4.019  11.897  -0.691  0.00  0.00    -0.394 OA
ATOM     39  H   UNL     1       4.282  11.563  -1.565  0.00  0.00    +0.209 HD
ENDBRANCH  20   3
ENDBRANCH  12  20
BRANCH  13  23
ATOM     23  C   UNL     1       8.689   9.542   4.516  0.00  0.00    +0.106 C 
BRANCH  23  24
ATOM      4  O   UNL     1       7.656   8.790   6.558  0.00  0.00    -0.275 OA
ATOM      8  N   UNL     1       9.400   7.543   5.598  0.00  0.00    -0.285 N 
ATOM     24  C   UNL     1       8.498   8.601   5.687  0.00  0.00    +0.218 C 
ATOM     40  H   UNL     1      10.045   7.533   4.812  0.00  0.00    +0.155 HD
BRANCH   8  26
ATOM     26  C   UNL     1       9.544   6.455   6.492  0.00  0.00    +0.037 A 
ATOM     30  C   UNL     1       9.782   5.173   5.997  0.00  0.00    +0.068 A 
ATOM     31  C   UNL     1       9.449   6.665   7.868  0.00  0.00    +0.023 A 
ATOM     35  C   UNL     1       9.924   4.101   6.877  0.00  0.00    +0.119 A 
ATOM     36  C   UNL     1       9.591   5.593   8.748  0.00  0.00    +0.005 A 
ATOM     37  C   UNL     1       9.829   4.311   8.253  0.00  0.00    +0.045 A 
BRANCH  35   6
ATOM      6  O   UNL     1      10.157   2.850   6.395  0.00  0.00    -0.507 OA
ATOM     42  H   UNL     1      10.451   2.918   5.470  0.00  0.00    +0.292 HD
ENDBRANCH  35   6
ENDBRANCH   8  26
ENDBRANCH  23  24
ENDBRANCH  13  23
BRANCH  27  28
ATOM     28  C   UNL     1      13.806   5.752   1.570  0.00  0.00    +0.102 C 
BRANCH  28  29
ATOM     29  C   UNL     1      13.612   4.255   1.228  0.00  0.00    -0.029 C 
ATOM     32  C   UNL     1      13.413   4.055  -0.284  0.00  0.00    +0.011 C 
ATOM     33  C   UNL     1      12.414   3.654   1.981  0.00  0.00    +0.011 C 
ATOM     34  C   UNL     1      14.885   3.500   1.656  0.00  0.00    +0.011 C 
ENDBRANCH  28  29
ENDBRANCH  27  28
TORSDOF 9
ENDMDL
MODEL 3
REMARK VINA RESULT:      -6.7     23.896     27.771
REMARK  Name = 11885045
REMARK  14 active torsions:
REMARK  status: ('A' for Active; 'I' for Inactive)
REMARK    1  A    between atoms: O_2  and  C_15
REMARK    2  A    between atoms: O_3  and  C_20
REMARK    3  A    between atoms: O_6  and  C_35
REMARK    4  A    between atoms: N_8  and  C_26
REMARK    5  A    between atoms: C_10  and  C_18
REMARK    6  A    between atoms: C_12  and  C_20
REMARK    7  A    between atoms: C_12  and  C_21
REMARK    8  A    between atoms: C_13  and  C_23
REMARK    9  A    between atoms: C_23  and  C_24
REMARK   10  A    between atoms: C_27  and  C_28
REMARK   11  A    between atoms: C_28  and  C_29
REMARK   12  A    between atoms: C_29  and  C_32
REMARK   13  A    between atoms: C_29  and  C_33
REMARK   14  A    between atoms: C_29  and  C_34
REMARK                            x       y       z     vdW  Elec       q    Type
REMARK                         _______ _______ _______ _____ _____    ______ ____
ROOT
ATOM      1  S   UNL     1      -7.313  -9.697  12.772  0.00  0.00    -0.057 S 
ATOM      5  O   UNL     1      -3.469 -10.289  10.205  0.00  0.00    -0.275 OA
ATOM      7  N   UNL     1      -4.847 -10.475  12.824  0.00  0.00    -0.229 NA
ATOM      9  N   UNL     1      -5.702  -9.711  10.703  0.00  0.00    -0.265 N 
ATOM     10  C   UNL     1      -5.178 -10.840  16.648  0.00  0.00    -0.019 C 
ATOM     11  C   UNL     1      -6.724 -11.205  16.558  0.00  0.00    +0.011 C 
ATOM     12  C   UNL     1      -7.502 -11.365  17.921  0.00  0.00    +0.021 C 
ATOM     13  C   UNL     1      -4.514 -11.157  15.229  0.00  0.00    +0.054 C 
ATOM     14  C   UNL     1      -4.498 -11.735  17.716  0.00  0.00    +0.010 C 
ATOM     15  C   UNL     1      -6.664 -12.249  18.889  0.00  0.00    +0.123 C 
ATOM     16  C   UNL     1      -7.460 -10.310  15.519  0.00  0.00    +0.049 C 
ATOM     17  C   UNL     1      -5.227 -11.764  19.052  0.00  0.00    +0.032 C 
ATOM     18  C   UNL     1      -4.930  -9.355  17.013  0.00  0.00    +0.012 C 
ATOM     19  C   UNL     1      -5.352 -10.607  14.103  0.00  0.00    +0.058 A 
ATOM     21  C   UNL     1      -8.841 -12.112  17.656  0.00  0.00    +0.016 C 
ATOM     22  C   UNL     1      -6.677 -10.252  14.251  0.00  0.00    +0.015 A 
ATOM     25  C   UNL     1      -5.789  -9.997  12.040  0.00  0.00    +0.165 A 
ATOM     27  C   UNL     1      -4.575  -9.868   9.878  0.00  0.00    +0.219 C 
ATOM     41  H   UNL     1      -6.555  -9.344  10.289  0.00  0.00    +0.157 HD
ENDROOT
BRANCH  15   2
ATOM      2  O   UNL     1      -7.278 -12.308  20.175  0.00  0.00    -0.391 OA
ATOM     38  H   UNL     1      -6.648 -12.732  20.783  0.00  0.00    +0.210 HD
ENDBRANCH  15   2
BRANCH  12  20
ATOM     20  C   UNL     1      -7.897 -10.033  18.595  0.00  0.00    +0.165 C 
BRANCH  20   3
ATOM      3  O   UNL     1      -8.957 -10.297  19.486  0.00  0.00    -0.394 OA
ATOM     39  H   UNL     1      -9.151  -9.470  19.959  0.00  0.00    +0.209 HD
ENDBRANCH  20   3
ENDBRANCH  12  20
BRANCH  13  23
ATOM     23  C   UNL     1      -3.046 -10.723  15.100  0.00  0.00    +0.106 C 
BRANCH  23  24
ATOM      4  O   UNL     1      -0.905 -11.797  14.851  0.00  0.00    -0.275 OA
ATOM      8  N   UNL     1      -2.879 -13.032  14.541  0.00  0.00    -0.285 N 
ATOM     24  C   UNL     1      -2.127 -11.894  14.821  0.00  0.00    +0.218 C 
ATOM     40  H   UNL     1      -3.892 -12.947  14.549  0.00  0.00    +0.155 HD
BRANCH   8  26
ATOM     26  C   UNL     1      -2.399 -14.327  14.230  0.00  0.00    +0.037 A 
ATOM     30  C   UNL     1      -1.403 -14.488  13.267  0.00  0.00    +0.068 A 
ATOM     31  C   UNL     1      -2.922 -15.442  14.886  0.00  0.00    +0.023 A 
ATOM     35  C   UNL     1      -0.930 -15.764  12.959  0.00  0.00    +0.119 A 
ATOM     36  C   UNL     1      -2.450 -16.717  14.578  0.00  0.00    +0.005 A 
ATOM     37  C   UNL     1      -1.453 -16.878  13.616  0.00  0.00    +0.045 A 
BRANCH  35   6
ATOM      6  O   UNL     1       0.043 -15.922  12.021  0.00  0.00    -0.507 OA
ATOM     42  H   UNL     1       0.176 -16.872  11.862  0.00  0.00    +0.292 HD
ENDBRANCH  35   6
ENDBRANCH   8  26
ENDBRANCH  23  24
ENDBRANCH  13  23
BRANCH  27  28
ATOM     28  C   UNL     1      -4.837  -9.441   8.439  0.00  0.00    +0.102 C 
BRANCH  28  29
ATOM     29  C   UNL     1      -5.492 -10.525   7.549  0.00  0.00    -0.029 C 
ATOM     32  C   UNL     1      -4.457 -11.570   7.099  0.00  0.00    +0.011 C 
ATOM     33  C   UNL     1      -6.164  -9.910   6.311  0.00  0.00    +0.011 C 
ATOM     34  C   UNL     1      -6.573 -11.238   8.385  0.00  0.00    +0.011 C 
ENDBRANCH  28  29
ENDBRANCH  27  28
TORSDOF 9
ENDMDL
MODEL 4
REMARK VINA RESULT:      -6.6     24.650     29.131
REMARK  Name = 11885045
REMARK  14 active torsions:
REMARK  status: ('A' for Active; 'I' for Inactive)
REMARK    1  A    between atoms: O_2  and  C_15
REMARK    2  A    between atoms: O_3  and  C_20
REMARK    3  A    between atoms: O_6  and  C_35
REMARK    4  A    between atoms: N_8  and  C_26
REMARK    5  A    between atoms: C_10  and  C_18
REMARK    6  A    between atoms: C_12  and  C_20
REMARK    7  A    between atoms: C_12  and  C_21
REMARK    8  A    between atoms: C_13  and  C_23
REMARK    9  A    between atoms: C_23  and  C_24
REMARK   10  A    between atoms: C_27  and  C_28
REMARK   11  A    between atoms: C_28  and  C_29
REMARK   12  A    between atoms: C_29  and  C_32
REMARK   13  A    between atoms: C_29  and  C_33
REMARK   14  A    between atoms: C_29  and  C_34
REMARK                            x       y       z     vdW  Elec       q    Type
REMARK                         _______ _______ _______ _____ _____    ______ ____
ROOT
ATOM      1  S   UNL     1     -10.001  -9.906  13.045  0.00  0.00    -0.057 S 
ATOM      5  O   UNL     1      -5.442  -9.264  12.327  0.00  0.00    -0.275 OA
ATOM      7  N   UNL     1      -7.682  -9.827  14.187  0.00  0.00    -0.229 NA
ATOM      9  N   UNL     1      -7.737  -9.440  11.808  0.00  0.00    -0.265 N 
ATOM     10  C   UNL     1      -9.483 -10.184  17.577  0.00  0.00    -0.019 C 
ATOM     11  C   UNL     1     -10.667 -11.040  16.947  0.00  0.00    +0.011 C 
ATOM     12  C   UNL     1     -11.867 -11.414  17.901  0.00  0.00    +0.021 C 
ATOM     13  C   UNL     1      -8.220 -10.300  16.605  0.00  0.00    +0.054 C 
ATOM     14  C   UNL     1      -9.094 -10.778  18.956  0.00  0.00    +0.010 C 
ATOM     15  C   UNL     1     -11.303 -11.948  19.249  0.00  0.00    +0.123 C 
ATOM     16  C   UNL     1     -11.116 -10.465  15.573  0.00  0.00    +0.049 C 
ATOM     17  C   UNL     1     -10.278 -11.012  19.883  0.00  0.00    +0.032 C 
ATOM     18  C   UNL     1      -9.853  -8.692  17.766  0.00  0.00    +0.012 C 
ATOM     19  C   UNL     1      -8.620 -10.086  15.168  0.00  0.00    +0.058 A 
ATOM     21  C   UNL     1     -12.688 -12.566  17.255  0.00  0.00    +0.016 C 
ATOM     22  C   UNL     1      -9.923 -10.183  14.723  0.00  0.00    +0.015 A 
ATOM     25  C   UNL     1      -8.296  -9.706  13.030  0.00  0.00    +0.165 A 
ATOM     27  C   UNL     1      -6.375  -9.239  11.529  0.00  0.00    +0.219 C 
ATOM     41  H   UNL     1      -8.399  -9.385  11.039  0.00  0.00    +0.157 HD
ENDROOT
BRANCH  15   2
ATOM      2  O   UNL     1     -12.358 -12.173  20.181  0.00  0.00    -0.391 OA
ATOM     38  H   UNL     1     -11.975 -12.136  21.075  0.00  0.00    +0.210 HD
ENDBRANCH  15   2
BRANCH  12  20
ATOM     20  C   UNL     1     -12.876 -10.269  18.141  0.00  0.00    +0.165 C 
BRANCH  20   3
ATOM      3  O   UNL     1     -14.154 -10.844  18.288  0.00  0.00    -0.394 OA
ATOM     39  H   UNL     1     -14.470 -10.625  19.181  0.00  0.00    +0.209 HD
ENDBRANCH  20   3
ENDBRANCH  12  20
BRANCH  13  23
ATOM     23  C   UNL     1      -7.030  -9.411  16.996  0.00  0.00    +0.106 C 
BRANCH  23  24
ATOM      4  O   UNL     1      -5.304 -10.737  18.028  0.00  0.00    -0.275 OA
ATOM      8  N   UNL     1      -5.129 -10.141  15.762  0.00  0.00    -0.285 N 
ATOM     24  C   UNL     1      -5.726 -10.180  17.019  0.00  0.00    +0.218 C 
ATOM     40  H   UNL     1      -5.604  -9.627  15.025  0.00  0.00    +0.155 HD
BRANCH   8  26
ATOM     26  C   UNL     1      -3.905 -10.735  15.370  0.00  0.00    +0.037 A 
ATOM     30  C   UNL     1      -2.707 -10.301  15.937  0.00  0.00    +0.068 A 
ATOM     31  C   UNL     1      -3.897 -11.754  14.418  0.00  0.00    +0.023 A 
ATOM     35  C   UNL     1      -1.500 -10.885  15.551  0.00  0.00    +0.119 A 
ATOM     36  C   UNL     1      -2.691 -12.339  14.032  0.00  0.00    +0.005 A 
ATOM     37  C   UNL     1      -1.493 -11.904  14.599  0.00  0.00    +0.045 A 
BRANCH  35   6
ATOM      6  O   UNL     1      -0.331 -10.462  16.104  0.00  0.00    -0.507 OA
ATOM     42  H   UNL     1      -0.457 -10.352  17.062  0.00  0.00    +0.292 HD
ENDBRANCH  35   6
ENDBRANCH   8  26
ENDBRANCH  23  24
ENDBRANCH  13  23
BRANCH  27  28
ATOM     28  C   UNL     1      -6.112  -8.957  10.054  0.00  0.00    +0.102 C 
BRANCH  28  29
ATOM     29  C   UNL     1      -5.011  -9.836   9.413  0.00  0.00    -0.029 C 
ATOM     32  C   UNL     1      -5.193  -9.925   7.888  0.00  0.00    +0.011 C 
ATOM     33  C   UNL     1      -5.002 -11.254  10.006  0.00  0.00    +0.011 C 
ATOM     34  C   UNL     1      -3.648  -9.179   9.704  0.00  0.00    +0.011 C 
ENDBRANCH  28  29
ENDBRANCH  27  28
TORSDOF 9
ENDMDL
MODEL 5
REMARK VINA RESULT:      -6.6     24.188     26.767
REMARK  Name = 11885045
REMARK  14 active torsions:
REMARK  status: ('A' for Active; 'I' for Inactive)
REMARK    1  A    between atoms: O_2  and  C_15
REMARK    2  A    between atoms: O_3  and  C_20
REMARK    3  A    between atoms: O_6  and  C_35
REMARK    4  A    between atoms: N_8  and  C_26
REMARK    5  A    between atoms: C_10  and  C_18
REMARK    6  A    between atoms: C_12  and  C_20
REMARK    7  A    between atoms: C_12  and  C_21
REMARK    8  A    between atoms: C_13  and  C_23
REMARK    9  A    between atoms: C_23  and  C_24
REMARK   10  A    between atoms: C_27  and  C_28
REMARK   11  A    between atoms: C_28  and  C_29
REMARK   12  A    between atoms: C_29  and  C_32
REMARK   13  A    between atoms: C_29  and  C_33
REMARK   14  A    between atoms: C_29  and  C_34
REMARK                            x       y       z     vdW  Elec       q    Type
REMARK                         _______ _______ _______ _____ _____    ______ ____
ROOT
ATOM      1  S   UNL     1      -5.708 -10.040  10.196  0.00  0.00    -0.057 S 
ATOM      5  O   UNL     1     -10.143  -8.696  10.682  0.00  0.00    -0.275 OA
ATOM      7  N   UNL     1      -7.600  -9.605  11.906  0.00  0.00    -0.229 NA
ATOM      9  N   UNL     1      -8.125  -9.229   9.583  0.00  0.00    -0.265 N 
ATOM     10  C   UNL     1      -5.273 -11.006  14.642  0.00  0.00    -0.019 C 
ATOM     11  C   UNL     1      -3.962 -10.499  13.897  0.00  0.00    +0.011 C 
ATOM     12  C   UNL     1      -2.575 -10.910  14.527  0.00  0.00    +0.021 C 
ATOM     13  C   UNL     1      -6.506 -10.136  14.115  0.00  0.00    +0.054 C 
ATOM     14  C   UNL     1      -5.124 -10.768  16.168  0.00  0.00    +0.010 C 
ATOM     15  C   UNL     1      -2.613 -10.650  16.061  0.00  0.00    +0.123 C 
ATOM     16  C   UNL     1      -4.048 -10.744  12.362  0.00  0.00    +0.049 C 
ATOM     17  C   UNL     1      -3.817 -11.287  16.748  0.00  0.00    +0.032 C 
ATOM     18  C   UNL     1      -5.561 -12.508  14.400  0.00  0.00    +0.012 C 
ATOM     19  C   UNL     1      -6.490 -10.028  12.612  0.00  0.00    +0.058 A 
ATOM     21  C   UNL     1      -1.459 -10.004  13.933  0.00  0.00    +0.016 C 
ATOM     22  C   UNL     1      -5.371 -10.287  11.847  0.00  0.00    +0.015 A 
ATOM     25  C   UNL     1      -7.306  -9.581  10.623  0.00  0.00    +0.165 A 
ATOM     27  C   UNL     1      -9.465  -8.816   9.666  0.00  0.00    +0.219 C 
ATOM     41  H   UNL     1      -7.694  -9.285   8.664  0.00  0.00    +0.157 HD
ENDROOT
BRANCH  15   2
ATOM      2  O   UNL     1      -1.422 -11.131  16.681  0.00  0.00    -0.391 OA
ATOM     38  H   UNL     1      -0.702 -11.060  16.031  0.00  0.00    +0.210 HD
ENDBRANCH  15   2
BRANCH  12  20
ATOM     20  C   UNL     1      -2.138 -12.360  14.226  0.00  0.00    +0.165 C 
BRANCH  20   3
ATOM      3  O   UNL     1      -1.310 -12.334  13.085  0.00  0.00    -0.394 OA
ATOM     39  H   UNL     1      -0.734 -11.554  13.162  0.00  0.00    +0.209 HD
ENDBRANCH  20   3
ENDBRANCH  12  20
BRANCH  13  23
ATOM     23  C   UNL     1      -7.878 -10.597  14.630  0.00  0.00    +0.106 C 
BRANCH  23  24
ATOM      4  O   UNL     1      -8.310  -9.068  16.441  0.00  0.00    -0.275 OA
ATOM      8  N   UNL     1      -9.680  -9.043  14.532  0.00  0.00    -0.285 N 
ATOM     24  C   UNL     1      -8.628  -9.483  15.331  0.00  0.00    +0.218 C 
ATOM     40  H   UNL     1      -9.817  -9.499  13.634  0.00  0.00    +0.155 HD
BRANCH   8  26
ATOM     26  C   UNL     1     -10.615  -8.021  14.824  0.00  0.00    +0.037 A 
ATOM     30  C   UNL     1     -11.835  -7.980  14.149  0.00  0.00    +0.068 A 
ATOM     31  C   UNL     1     -10.318  -7.056  15.786  0.00  0.00    +0.023 A 
ATOM     35  C   UNL     1     -12.757  -6.973  14.436  0.00  0.00    +0.119 A 
ATOM     36  C   UNL     1     -11.239  -6.050  16.073  0.00  0.00    +0.005 A 
ATOM     37  C   UNL     1     -12.459  -6.009  15.398  0.00  0.00    +0.045 A 
BRANCH  35   6
ATOM      6  O   UNL     1     -13.948  -6.933  13.778  0.00  0.00    -0.507 OA
ATOM     42  H   UNL     1     -13.788  -7.066  12.828  0.00  0.00    +0.292 HD
ENDBRANCH  35   6
ENDBRANCH   8  26
ENDBRANCH  23  24
ENDBRANCH  13  23
BRANCH  27  28
ATOM     28  C   UNL     1     -10.071  -8.509   8.301  0.00  0.00    +0.102 C 
BRANCH  28  29
ATOM     29  C   UNL     1     -10.185  -7.002   7.966  0.00  0.00    -0.029 C 
ATOM     32  C   UNL     1      -8.937  -6.236   8.436  0.00  0.00    +0.011 C 
ATOM     33  C   UNL     1     -11.435  -6.374   8.602  0.00  0.00    +0.011 C 
ATOM     34  C   UNL     1     -10.295  -6.862   6.435  0.00  0.00    +0.011 C 
ENDBRANCH  28  29
ENDBRANCH  27  28
TORSDOF 9
ENDMDL
MODEL 6
REMARK VINA RESULT:      -6.6     24.001     26.950
REMARK  Name = 11885045
REMARK  14 active torsions:
REMARK  status: ('A' for Active; 'I' for Inactive)
REMARK    1  A    between atoms: O_2  and  C_15
REMARK    2  A    between atoms: O_3  and  C_20
REMARK    3  A    between atoms: O_6  and  C_35
REMARK    4  A    between atoms: N_8  and  C_26
REMARK    5  A    between atoms: C_10  and  C_18
REMARK    6  A    between atoms: C_12  and  C_20
REMARK    7  A    between atoms: C_12  and  C_21
REMARK    8  A    between atoms: C_13  and  C_23
REMARK    9  A    between atoms: C_23  and  C_24
REMARK   10  A    between atoms: C_27  and  C_28
REMARK   11  A    between atoms: C_28  and  C_29
REMARK   12  A    between atoms: C_29  and  C_32
REMARK   13  A    between atoms: C_29  and  C_33
REMARK   14  A    between atoms: C_29  and  C_34
REMARK                            x       y       z     vdW  Elec       q    Type
REMARK                         _______ _______ _______ _____ _____    ______ ____
ROOT
ATOM      1  S   UNL     1      -4.669  -9.221  10.154  0.00  0.00    -0.057 S 
ATOM      5  O   UNL     1      -8.968  -7.623   9.333  0.00  0.00    -0.275 OA
ATOM      7  N   UNL     1      -7.026  -8.904  11.171  0.00  0.00    -0.229 NA
ATOM      9  N   UNL     1      -6.706  -8.139   8.907  0.00  0.00    -0.265 N 
ATOM     10  C   UNL     1      -5.822 -10.883  14.252  0.00  0.00    -0.019 C 
ATOM     11  C   UNL     1      -4.323 -10.373  14.092  0.00  0.00    +0.011 C 
ATOM     12  C   UNL     1      -3.250 -10.983  15.075  0.00  0.00    +0.021 C 
ATOM     13  C   UNL     1      -6.777  -9.850  13.496  0.00  0.00    +0.054 C 
ATOM     14  C   UNL     1      -6.205 -10.893  15.756  0.00  0.00    +0.010 C 
ATOM     15  C   UNL     1      -3.811 -10.958  16.526  0.00  0.00    +0.123 C 
ATOM     16  C   UNL     1      -3.878 -10.375  12.601  0.00  0.00    +0.049 C 
ATOM     17  C   UNL     1      -5.191 -11.596  16.646  0.00  0.00    +0.032 C 
ATOM     18  C   UNL     1      -6.039 -12.304  13.676  0.00  0.00    +0.012 C 
ATOM     19  C   UNL     1      -6.239  -9.516  12.128  0.00  0.00    +0.058 A 
ATOM     21  C   UNL     1      -1.978 -10.089  15.056  0.00  0.00    +0.016 C 
ATOM     22  C   UNL     1      -4.930  -9.743  11.754  0.00  0.00    +0.015 A 
ATOM     25  C   UNL     1      -6.306  -8.708  10.088  0.00  0.00    +0.165 A 
ATOM     27  C   UNL     1      -7.983  -7.639   8.601  0.00  0.00    +0.219 C 
ATOM     41  H   UNL     1      -5.985  -8.088   8.193  0.00  0.00    +0.157 HD
ENDROOT
BRANCH  15   2
ATOM      2  O   UNL     1      -2.919 -11.620  17.421  0.00  0.00    -0.391 OA
ATOM     38  H   UNL     1      -2.671 -12.469  17.015  0.00  0.00    +0.210 HD
ENDBRANCH  15   2
BRANCH  12  20
ATOM     20  C   UNL     1      -2.766 -12.400  14.697  0.00  0.00    +0.165 C 
BRANCH  20   3
ATOM      3  O   UNL     1      -1.365 -12.433  14.848  0.00  0.00    -0.394 OA
ATOM     39  H   UNL     1      -1.174 -12.857  15.701  0.00  0.00    +0.209 HD
ENDBRANCH  20   3
ENDBRANCH  12  20
BRANCH  13  23
ATOM     23  C   UNL     1      -8.251 -10.274  13.431  0.00  0.00    +0.106 C 
BRANCH  23  24
ATOM      4  O   UNL     1      -9.443  -8.441  14.443  0.00  0.00    -0.275 OA
ATOM      8  N   UNL     1      -9.353 -10.523  15.528  0.00  0.00    -0.285 N 
ATOM     24  C   UNL     1      -9.084  -9.613  14.509  0.00  0.00    +0.218 C 
ATOM     40  H   UNL     1      -8.975 -11.463  15.438  0.00  0.00    +0.155 HD
BRANCH   8  26
ATOM     26  C   UNL     1     -10.098 -10.298  16.711  0.00  0.00    +0.037 A 
ATOM     30  C   UNL     1      -9.490 -10.453  17.956  0.00  0.00    +0.068 A 
ATOM     31  C   UNL     1     -11.439  -9.922  16.630  0.00  0.00    +0.023 A 
ATOM     35  C   UNL     1     -10.223 -10.232  19.122  0.00  0.00    +0.119 A 
ATOM     36  C   UNL     1     -12.172  -9.701  17.796  0.00  0.00    +0.005 A 
ATOM     37  C   UNL     1     -11.564  -9.856  19.041  0.00  0.00    +0.045 A 
BRANCH  35   6
ATOM      6  O   UNL     1      -9.631 -10.382  20.338  0.00  0.00    -0.507 OA
ATOM     42  H   UNL     1      -8.756 -10.789  20.214  0.00  0.00    +0.292 HD
ENDBRANCH  35   6
ENDBRANCH   8  26
ENDBRANCH  23  24
ENDBRANCH  13  23
BRANCH  27  28
ATOM     28  C   UNL     1      -8.072  -7.082   7.186  0.00  0.00    +0.102 C 
BRANCH  28  29
ATOM     29  C   UNL     1      -8.498  -8.110   6.109  0.00  0.00    -0.029 C 
ATOM     32  C   UNL     1      -9.771  -7.651   5.379  0.00  0.00    +0.011 C 
ATOM     33  C   UNL     1      -8.737  -9.501   6.720  0.00  0.00    +0.011 C 
ATOM     34  C   UNL     1      -7.358  -8.221   5.078  0.00  0.00    +0.011 C 
ENDBRANCH  28  29
ENDBRANCH  27  28
TORSDOF 9
ENDMDL
MODEL 7
REMARK VINA RESULT:      -6.5     27.698     31.414
REMARK  Name = 11885045
REMARK  14 active torsions:
REMARK  status: ('A' for Active; 'I' for Inactive)
REMARK    1  A    between atoms: O_2  and  C_15
REMARK    2  A    between atoms: O_3  and  C_20
REMARK    3  A    between atoms: O_6  and  C_35
REMARK    4  A    between atoms: N_8  and  C_26
REMARK    5  A    between atoms: C_10  and  C_18
REMARK    6  A    between atoms: C_12  and  C_20
REMARK    7  A    between atoms: C_12  and  C_21
REMARK    8  A    between atoms: C_13  and  C_23
REMARK    9  A    between atoms: C_23  and  C_24
REMARK   10  A    between atoms: C_27  and  C_28
REMARK   11  A    between atoms: C_28  and  C_29
REMARK   12  A    between atoms: C_29  and  C_32
REMARK   13  A    between atoms: C_29  and  C_33
REMARK   14  A    between atoms: C_29  and  C_34
REMARK                            x       y       z     vdW  Elec       q    Type
REMARK                         _______ _______ _______ _____ _____    ______ ____
ROOT
ATOM      1  S   UNL     1     -10.251 -13.114  19.581  0.00  0.00    -0.057 S 
ATOM      5  O   UNL     1     -13.682 -10.184  18.417  0.00  0.00    -0.275 OA
ATOM      7  N   UNL     1     -10.822 -10.953  18.279  0.00  0.00    -0.229 NA
ATOM      9  N   UNL     1     -12.641 -12.049  19.419  0.00  0.00    -0.265 N 
ATOM     10  C   UNL     1      -7.050 -10.508  17.617  0.00  0.00    -0.019 C 
ATOM     11  C   UNL     1      -6.786 -12.078  17.612  0.00  0.00    +0.011 C 
ATOM     12  C   UNL     1      -5.286 -12.551  17.491  0.00  0.00    +0.021 C 
ATOM     13  C   UNL     1      -8.599 -10.268  17.305  0.00  0.00    +0.054 C 
ATOM     14  C   UNL     1      -6.215  -9.841  16.493  0.00  0.00    +0.010 C 
ATOM     15  C   UNL     1      -4.587 -11.753  16.353  0.00  0.00    +0.123 C 
ATOM     16  C   UNL     1      -7.578 -12.792  18.745  0.00  0.00    +0.049 C 
ATOM     17  C   UNL     1      -4.748 -10.243  16.493  0.00  0.00    +0.032 C 
ATOM     18  C   UNL     1      -6.687  -9.842  18.967  0.00  0.00    +0.012 C 
ATOM     19  C   UNL     1      -9.466 -11.180  18.134  0.00  0.00    +0.058 A 
ATOM     21  C   UNL     1      -5.258 -14.053  17.087  0.00  0.00    +0.016 C 
ATOM     22  C   UNL     1      -8.992 -12.317  18.756  0.00  0.00    +0.015 A 
ATOM     25  C   UNL     1     -11.337 -11.904  19.028  0.00  0.00    +0.165 A 
ATOM     27  C   UNL     1     -13.717 -11.203  19.101  0.00  0.00    +0.219 C 
ATOM     41  H   UNL     1     -12.823 -12.861  20.004  0.00  0.00    +0.157 HD
ENDROOT
BRANCH  15   2
ATOM      2  O   UNL     1      -3.196 -12.064  16.303  0.00  0.00    -0.391 OA
ATOM     38  H   UNL     1      -3.113 -13.028  16.193  0.00  0.00    +0.210 HD
ENDBRANCH  15   2
BRANCH  12  20
ATOM     20  C   UNL     1      -4.477 -12.460  18.804  0.00  0.00    +0.165 C 
BRANCH  20   3
ATOM      3  O   UNL     1      -3.783 -13.676  18.969  0.00  0.00    -0.394 OA
ATOM     39  H   UNL     1      -4.042 -14.260  18.237  0.00  0.00    +0.209 HD
ENDBRANCH  20   3
ENDBRANCH  12  20
BRANCH  13  23
ATOM     23  C   UNL     1      -9.053  -8.806  17.416  0.00  0.00    +0.106 C 
BRANCH  23  24
ATOM      4  O   UNL     1      -9.592  -8.736  15.070  0.00  0.00    -0.275 OA
ATOM      8  N   UNL     1     -10.875  -7.504  16.605  0.00  0.00    -0.285 N 
ATOM     24  C   UNL     1      -9.852  -8.362  16.209  0.00  0.00    +0.218 C 
ATOM     40  H   UNL     1     -10.954  -7.284  17.595  0.00  0.00    +0.155 HD
BRANCH   8  26
ATOM     26  C   UNL     1     -11.839  -6.874  15.783  0.00  0.00    +0.037 A 
ATOM     30  C   UNL     1     -11.457  -5.842  14.927  0.00  0.00    +0.068 A 
ATOM     31  C   UNL     1     -13.171  -7.286  15.828  0.00  0.00    +0.023 A 
ATOM     35  C   UNL     1     -12.407  -5.220  14.116  0.00  0.00    +0.119 A 
ATOM     36  C   UNL     1     -14.121  -6.665  15.018  0.00  0.00    +0.005 A 
ATOM     37  C   UNL     1     -13.739  -5.633  14.161  0.00  0.00    +0.045 A 
BRANCH  35   6
ATOM      6  O   UNL     1     -12.035  -4.213  13.280  0.00  0.00    -0.507 OA
ATOM     42  H   UNL     1     -11.707  -3.468  13.811  0.00  0.00    +0.292 HD
ENDBRANCH  35   6
ENDBRANCH   8  26
ENDBRANCH  23  24
ENDBRANCH  13  23
BRANCH  27  28
ATOM     28  C   UNL     1     -15.032 -11.667  19.717  0.00  0.00    +0.102 C 
BRANCH  28  29
ATOM     29  C   UNL     1     -15.366 -11.031  21.088  0.00  0.00    -0.029 C 
ATOM     32  C   UNL     1     -15.109  -9.515  21.072  0.00  0.00    +0.011 C 
ATOM     33  C   UNL     1     -14.549 -11.672  22.222  0.00  0.00    +0.011 C 
ATOM     34  C   UNL     1     -16.862 -11.270  21.371  0.00  0.00    +0.011 C 
ENDBRANCH  28  29
ENDBRANCH  27  28
TORSDOF 9
ENDMDL
MODEL 8
REMARK VINA RESULT:      -6.4      5.485      8.335
REMARK  Name = 11885045
REMARK  14 active torsions:
REMARK  status: ('A' for Active; 'I' for Inactive)
REMARK    1  A    between atoms: O_2  and  C_15
REMARK    2  A    between atoms: O_3  and  C_20
REMARK    3  A    between atoms: O_6  and  C_35
REMARK    4  A    between atoms: N_8  and  C_26
REMARK    5  A    between atoms: C_10  and  C_18
REMARK    6  A    between atoms: C_12  and  C_20
REMARK    7  A    between atoms: C_12  and  C_21
REMARK    8  A    between atoms: C_13  and  C_23
REMARK    9  A    between atoms: C_23  and  C_24
REMARK   10  A    between atoms: C_27  and  C_28
REMARK   11  A    between atoms: C_28  and  C_29
REMARK   12  A    between atoms: C_29  and  C_32
REMARK   13  A    between atoms: C_29  and  C_33
REMARK   14  A    between atoms: C_29  and  C_34
REMARK                            x       y       z     vdW  Elec       q    Type
REMARK                         _______ _______ _______ _____ _____    ______ ____
ROOT
ATOM      1  S   UNL     1      14.786   8.691   6.382  0.00  0.00    -0.057 S 
ATOM      5  O   UNL     1      11.913   7.093   3.080  0.00  0.00    -0.275 OA
ATOM      7  N   UNL     1      14.650   7.841   3.943  0.00  0.00    -0.229 NA
ATOM      9  N   UNL     1      12.585   7.921   5.185  0.00  0.00    -0.265 N 
ATOM     10  C   UNL     1      18.374   8.756   3.551  0.00  0.00    -0.019 C 
ATOM     11  C   UNL     1      18.688   8.465   5.085  0.00  0.00    +0.011 C 
ATOM     12  C   UNL     1      20.144   8.798   5.593  0.00  0.00    +0.021 C 
ATOM     13  C   UNL     1      17.045   7.961   3.161  0.00  0.00    +0.054 C 
ATOM     14  C   UNL     1      19.538   8.221   2.676  0.00  0.00    +0.010 C 
ATOM     15  C   UNL     1      21.182   8.232   4.582  0.00  0.00    +0.123 C 
ATOM     16  C   UNL     1      17.562   9.012   6.009  0.00  0.00    +0.049 C 
ATOM     17  C   UNL     1      20.916   8.667   3.144  0.00  0.00    +0.032 C 
ATOM     18  C   UNL     1      18.181  10.263   3.252  0.00  0.00    +0.012 C 
ATOM     19  C   UNL     1      15.970   8.159   4.199  0.00  0.00    +0.058 A 
ATOM     21  C   UNL     1      20.383   8.078   6.951  0.00  0.00    +0.016 C 
ATOM     22  C   UNL     1      16.227   8.614   5.477  0.00  0.00    +0.015 A 
ATOM     25  C   UNL     1      13.934   8.089   5.019  0.00  0.00    +0.165 A 
ATOM     27  C   UNL     1      11.670   7.444   4.231  0.00  0.00    +0.219 C 
ATOM     41  H   UNL     1      12.233   8.179   6.103  0.00  0.00    +0.157 HD
ENDROOT
BRANCH  15   2
ATOM      2  O   UNL     1      22.503   8.627   4.944  0.00  0.00    -0.391 OA
ATOM     38  H   UNL     1      22.463   9.553   5.240  0.00  0.00    +0.210 HD
ENDBRANCH  15   2
BRANCH  12  20
ATOM     20  C   UNL     1      20.401  10.296   5.866  0.00  0.00    +0.165 C 
BRANCH  20   3
ATOM      3  O   UNL     1      21.286  10.390   6.960  0.00  0.00    -0.394 OA
ATOM     39  H   UNL     1      21.549   9.486   7.200  0.00  0.00    +0.209 HD
ENDBRANCH  20   3
ENDBRANCH  12  20
BRANCH  13  23
ATOM     23  C   UNL     1      16.520   8.250   1.747  0.00  0.00    +0.106 C 
BRANCH  23  24
ATOM      4  O   UNL     1      16.929   6.438   0.214  0.00  0.00    -0.275 OA
ATOM      8  N   UNL     1      14.878   6.571   1.351  0.00  0.00    -0.285 N 
ATOM     24  C   UNL     1      16.161   6.982   1.001  0.00  0.00    +0.218 C 
ATOM     40  H   UNL     1      14.362   7.140   2.018  0.00  0.00    +0.155 HD
BRANCH   8  26
ATOM     26  C   UNL     1      14.176   5.437   0.877  0.00  0.00    +0.037 A 
ATOM     30  C   UNL     1      13.667   5.425  -0.422  0.00  0.00    +0.068 A 
ATOM     31  C   UNL     1      13.993   4.332   1.707  0.00  0.00    +0.023 A 
ATOM     35  C   UNL     1      12.975   4.308  -0.890  0.00  0.00    +0.119 A 
ATOM     36  C   UNL     1      13.301   3.215   1.240  0.00  0.00    +0.005 A 
ATOM     37  C   UNL     1      12.793   3.203  -0.059  0.00  0.00    +0.045 A 
BRANCH  35   6
ATOM      6  O   UNL     1      12.479   4.296  -2.157  0.00  0.00    -0.507 OA
ATOM     42  H   UNL     1      13.160   4.631  -2.765  0.00  0.00    +0.292 HD
ENDBRANCH  35   6
ENDBRANCH   8  26
ENDBRANCH  23  24
ENDBRANCH  13  23
BRANCH  27  28
ATOM     28  C   UNL     1      10.242   7.394   4.760  0.00  0.00    +0.102 C 
BRANCH  28  29
ATOM     29  C   UNL     1       9.832   6.043   5.395  0.00  0.00    -0.029 C 
ATOM     32  C   UNL     1      10.386   5.913   6.824  0.00  0.00    +0.011 C 
ATOM     33  C   UNL     1      10.317   4.853   4.552  0.00  0.00    +0.011 C 
ATOM     34  C   UNL     1       8.293   5.997   5.464  0.00  0.00    +0.011 C 
ENDBRANCH  28  29
ENDBRANCH  27  28
TORSDOF 9
ENDMDL
MODEL 9
REMARK VINA RESULT:      -6.4     28.020     32.834
REMARK  Name = 11885045
REMARK  14 active torsions:
REMARK  status: ('A' for Active; 'I' for Inactive)
REMARK    1  A    between atoms: O_2  and  C_15
REMARK    2  A    between atoms: O_3  and  C_20
REMARK    3  A    between atoms: O_6  and  C_35
REMARK    4  A    between atoms: N_8  and  C_26
REMARK    5  A    between atoms: C_10  and  C_18
REMARK    6  A    between atoms: C_12  and  C_20
REMARK    7  A    between atoms: C_12  and  C_21
REMARK    8  A    between atoms: C_13  and  C_23
REMARK    9  A    between atoms: C_23  and  C_24
REMARK   10  A    between atoms: C_27  and  C_28
REMARK   11  A    between atoms: C_28  and  C_29
REMARK   12  A    between atoms: C_29  and  C_32
REMARK   13  A    between atoms: C_29  and  C_33
REMARK   14  A    between atoms: C_29  and  C_34
REMARK                            x       y       z     vdW  Elec       q    Type
REMARK                         _______ _______ _______ _____ _____    ______ ____
ROOT
ATOM      1  S   UNL     1     -10.748 -11.311  20.196  0.00  0.00    -0.057 S 
ATOM      5  O   UNL     1      -7.432  -9.203  17.691  0.00  0.00    -0.275 OA
ATOM      7  N   UNL     1     -10.305  -9.604  18.304  0.00  0.00    -0.229 NA
ATOM      9  N   UNL     1      -8.374 -10.636  19.311  0.00  0.00    -0.265 N 
ATOM     10  C   UNL     1     -14.116  -9.426  17.748  0.00  0.00    -0.019 C 
ATOM     11  C   UNL     1     -14.433  -9.716  19.281  0.00  0.00    +0.011 C 
ATOM     12  C   UNL     1     -15.949  -9.892  19.679  0.00  0.00    +0.021 C 
ATOM     13  C   UNL     1     -12.625  -8.860  17.651  0.00  0.00    +0.054 C 
ATOM     14  C   UNL     1     -15.087  -8.339  17.218  0.00  0.00    +0.010 C 
ATOM     15  C   UNL     1     -16.784  -8.750  19.030  0.00  0.00    +0.123 C 
ATOM     16  C   UNL     1     -13.503 -10.826  19.853  0.00  0.00    +0.049 C 
ATOM     17  C   UNL     1     -16.551  -8.615  17.529  0.00  0.00    +0.032 C 
ATOM     18  C   UNL     1     -14.248 -10.687  16.857  0.00  0.00    +0.012 C 
ATOM     19  C   UNL     1     -11.674  -9.695  18.471  0.00  0.00    +0.058 A 
ATOM     21  C   UNL     1     -16.089  -9.747  21.221  0.00  0.00    +0.016 C 
ATOM     22  C   UNL     1     -12.089 -10.556  19.466  0.00  0.00    +0.015 A 
ATOM     25  C   UNL     1      -9.717 -10.417  19.154  0.00  0.00    +0.165 A 
ATOM     27  C   UNL     1      -7.330 -10.033  18.590  0.00  0.00    +0.219 C 
ATOM     41  H   UNL     1      -8.134 -11.314  20.030  0.00  0.00    +0.157 HD
ENDROOT
BRANCH  15   2
ATOM      2  O   UNL     1     -18.177  -8.952  19.263  0.00  0.00    -0.391 OA
ATOM     38  H   UNL     1     -18.659  -8.582  18.503  0.00  0.00    +0.210 HD
ENDBRANCH  15   2
BRANCH  12  20
ATOM     20  C   UNL     1     -16.547 -11.274  19.335  0.00  0.00    +0.165 C 
BRANCH  20   3
ATOM      3  O   UNL     1     -17.461 -11.614  20.352  0.00  0.00    -0.394 OA
ATOM     39  H   UNL     1     -18.025 -10.837  20.508  0.00  0.00    +0.209 HD
ENDBRANCH  20   3
ENDBRANCH  12  20
BRANCH  13  23
ATOM     23  C   UNL     1     -12.109  -8.664  16.219  0.00  0.00    +0.106 C 
BRANCH  23  24
ATOM      4  O   UNL     1     -11.561  -6.321  16.339  0.00  0.00    -0.275 OA
ATOM      8  N   UNL     1     -13.036  -7.096  14.684  0.00  0.00    -0.285 N 
ATOM     24  C   UNL     1     -12.183  -7.217  15.778  0.00  0.00    +0.218 C 
ATOM     40  H   UNL     1     -13.487  -7.939  14.337  0.00  0.00    +0.155 HD
BRANCH   8  26
ATOM     26  C   UNL     1     -13.373  -5.916  13.979  0.00  0.00    +0.037 A 
ATOM     30  C   UNL     1     -12.376  -5.006  13.627  0.00  0.00    +0.068 A 
ATOM     31  C   UNL     1     -14.701  -5.663  13.636  0.00  0.00    +0.023 A 
ATOM     35  C   UNL     1     -12.707  -3.842  12.932  0.00  0.00    +0.119 A 
ATOM     36  C   UNL     1     -15.033  -4.500  12.941  0.00  0.00    +0.005 A 
ATOM     37  C   UNL     1     -14.036  -3.590  12.589  0.00  0.00    +0.045 A 
BRANCH  35   6
ATOM      6  O   UNL     1     -11.735  -2.955  12.588  0.00  0.00    -0.507 OA
ATOM     42  H   UNL     1     -11.220  -3.322  11.850  0.00  0.00    +0.292 HD
ENDBRANCH  35   6
ENDBRANCH   8  26
ENDBRANCH  23  24
ENDBRANCH  13  23
BRANCH  27  28
ATOM     28  C   UNL     1      -5.954 -10.521  19.028  0.00  0.00    +0.102 C 
BRANCH  28  29
ATOM     29  C   UNL     1      -5.180 -11.327  17.956  0.00  0.00    -0.029 C 
ATOM     32  C   UNL     1      -4.497 -10.389  16.947  0.00  0.00    +0.011 C 
ATOM     33  C   UNL     1      -6.104 -12.297  17.202  0.00  0.00    +0.011 C 
ATOM     34  C   UNL     1      -4.091 -12.149  18.673  0.00  0.00    +0.011 C 
ENDBRANCH  28  29
ENDBRANCH  27  28
TORSDOF 9
ENDMDL
MODEL 10
REMARK VINA RESULT:      -6.2     30.202     35.202
REMARK  Name = 11885045
REMARK  14 active torsions:
REMARK  status: ('A' for Active; 'I' for Inactive)
REMARK    1  A    between atoms: O_2  and  C_15
REMARK    2  A    between atoms: O_3  and  C_20
REMARK    3  A    between atoms: O_6  and  C_35
REMARK    4  A    between atoms: N_8  and  C_26
REMARK    5  A    between atoms: C_10  and  C_18
REMARK    6  A    between atoms: C_12  and  C_20
REMARK    7  A    between atoms: C_12  and  C_21
REMARK    8  A    between atoms: C_13  and  C_23
REMARK    9  A    between atoms: C_23  and  C_24
REMARK   10  A    between atoms: C_27  and  C_28
REMARK   11  A    between atoms: C_28  and  C_29
REMARK   12  A    between atoms: C_29  and  C_32
REMARK   13  A    between atoms: C_29  and  C_33
REMARK   14  A    between atoms: C_29  and  C_34
REMARK                            x       y       z     vdW  Elec       q    Type
REMARK                         _______ _______ _______ _____ _____    ______ ____
ROOT
ATOM      1  S   UNL     1      -9.159 -14.733  21.391  0.00  0.00    -0.057 S 
ATOM      5  O   UNL     1      -8.328 -11.539  18.102  0.00  0.00    -0.275 OA
ATOM      7  N   UNL     1     -10.201 -12.800  20.024  0.00  0.00    -0.229 NA
ATOM      9  N   UNL     1      -7.891 -13.327  19.577  0.00  0.00    -0.265 N 
ATOM     10  C   UNL     1     -13.597 -13.667  21.629  0.00  0.00    -0.019 C 
ATOM     11  C   UNL     1     -12.919 -14.179  22.975  0.00  0.00    +0.011 C 
ATOM     12  C   UNL     1     -13.871 -14.817  24.059  0.00  0.00    +0.021 C 
ATOM     13  C   UNL     1     -12.564 -12.692  20.897  0.00  0.00    +0.054 C 
ATOM     14  C   UNL     1     -14.875 -12.858  21.970  0.00  0.00    +0.010 C 
ATOM     15  C   UNL     1     -15.119 -13.906  24.245  0.00  0.00    +0.123 C 
ATOM     16  C   UNL     1     -11.645 -15.025  22.685  0.00  0.00    +0.049 C 
ATOM     17  C   UNL     1     -15.817 -13.569  22.931  0.00  0.00    +0.032 C 
ATOM     18  C   UNL     1     -13.982 -14.823  20.672  0.00  0.00    +0.012 C 
ATOM     19  C   UNL     1     -11.182 -13.293  20.862  0.00  0.00    +0.058 A 
ATOM     21  C   UNL     1     -13.127 -14.864  25.423  0.00  0.00    +0.016 C 
ATOM     22  C   UNL     1     -10.786 -14.327  21.686  0.00  0.00    +0.015 A 
ATOM     25  C   UNL     1      -9.095 -13.488  20.211  0.00  0.00    +0.165 A 
ATOM     27  C   UNL     1      -7.580 -12.385  18.581  0.00  0.00    +0.219 C 
ATOM     41  H   UNL     1      -7.164 -13.973  19.873  0.00  0.00    +0.157 HD
ENDROOT
BRANCH  15   2
ATOM      2  O   UNL     1     -16.061 -14.518  25.123  0.00  0.00    -0.391 OA
ATOM     38  H   UNL     1     -15.957 -15.482  25.041  0.00  0.00    +0.210 HD
ENDBRANCH  15   2
BRANCH  12  20
ATOM     20  C   UNL     1     -14.293 -16.273  23.765  0.00  0.00    +0.165 C 
BRANCH  20   3
ATOM      3  O   UNL     1     -14.402 -16.949  24.997  0.00  0.00    -0.394 OA
ATOM     39  H   UNL     1     -15.220 -17.473  24.970  0.00  0.00    +0.209 HD
ENDBRANCH  20   3
ENDBRANCH  12  20
BRANCH  13  23
ATOM     23  C   UNL     1     -13.008 -12.222  19.504  0.00  0.00    +0.106 C 
BRANCH  23  24
ATOM      4  O   UNL     1     -13.078  -9.896  20.125  0.00  0.00    -0.275 OA
ATOM      8  N   UNL     1     -12.150 -10.532  18.063  0.00  0.00    -0.285 N 
ATOM     24  C   UNL     1     -12.763 -10.743  19.295  0.00  0.00    +0.218 C 
ATOM     40  H   UNL     1     -11.959 -11.344  17.481  0.00  0.00    +0.155 HD
BRANCH   8  26
ATOM     26  C   UNL     1     -11.756  -9.296  17.495  0.00  0.00    +0.037 A 
ATOM     30  C   UNL     1     -12.671  -8.546  16.757  0.00  0.00    +0.068 A 
ATOM     31  C   UNL     1     -10.454  -8.829  17.675  0.00  0.00    +0.023 A 
ATOM     35  C   UNL     1     -12.283  -7.328  16.197  0.00  0.00    +0.119 A 
ATOM     36  C   UNL     1     -10.067  -7.612  17.116  0.00  0.00    +0.005 A 
ATOM     37  C   UNL     1     -10.981  -6.861  16.378  0.00  0.00    +0.045 A 
BRANCH  35   6
ATOM      6  O   UNL     1     -13.175  -6.595  15.478  0.00  0.00    -0.507 OA
ATOM     42  H   UNL     1     -13.100  -6.840  14.540  0.00  0.00    +0.292 HD
ENDBRANCH  35   6
ENDBRANCH   8  26
ENDBRANCH  23  24
ENDBRANCH  13  23
BRANCH  27  28
ATOM     28  C   UNL     1      -6.140 -12.499  18.094  0.00  0.00    +0.102 C 
BRANCH  28  29
ATOM     29  C   UNL     1      -5.181 -11.417  18.647  0.00  0.00    -0.029 C 
ATOM     32  C   UNL     1      -3.888 -12.050  19.189  0.00  0.00    +0.011 C 
ATOM     33  C   UNL     1      -5.845 -10.589  19.759  0.00  0.00    +0.011 C 
ATOM     34  C   UNL     1      -4.812 -10.470  17.488  0.00  0.00    +0.011 C 
ENDBRANCH  28  29
ENDBRANCH  27  28
TORSDOF 9
ENDMDL
