MODEL 1
REMARK VINA RESULT:      -7.5      0.000      0.000
REMARK  Name = 45784263
REMARK  4 active torsions:
REMARK  status: ('A' for Active; 'I' for Inactive)
REMARK    1  A    between atoms: N_6  and  C_14
REMARK    2  A    between atoms: C_9  and  C_13
REMARK    3  A    between atoms: C_14  and  C_15
REMARK    4  A    between atoms: C_22  and  C_26
REMARK                            x       y       z     vdW  Elec       q    Type
REMARK                         _______ _______ _______ _____ _____    ______ ____
ROOT
ATOM      6  N   UNL     1      15.865   9.292   4.903  0.00  0.00    -0.297 NA
ATOM      9  C   UNL     1      13.844   8.101   4.907  0.00  0.00    +0.070 C 
ATOM     10  C   UNL     1      13.650   9.442   4.179  0.00  0.00    +0.028 C 
ATOM     11  C   UNL     1      15.163   8.263   5.674  0.00  0.00    +0.096 C 
ATOM     12  C   UNL     1      14.843  10.293   4.593  0.00  0.00    +0.085 C 
ENDROOT
BRANCH   9  13
ATOM      7  N   UNL     1      12.762   6.562   6.568  0.00  0.00    -0.342 N 
ATOM      8  N   UNL     1      11.546   8.312   5.936  0.00  0.00    -0.232 NA
ATOM     13  C   UNL     1      12.693   7.687   5.794  0.00  0.00    +0.113 A 
ATOM     16  C   UNL     1      11.579   6.454   7.254  0.00  0.00    +0.067 A 
ATOM     17  C   UNL     1      10.838   7.558   6.842  0.00  0.00    +0.089 A 
ATOM     18  C   UNL     1      11.109   5.514   8.172  0.00  0.00    +0.040 A 
ATOM     19  C   UNL     1       9.548   7.750   7.366  0.00  0.00    +0.030 A 
ATOM     22  C   UNL     1       9.824   5.722   8.683  0.00  0.00    +0.057 A 
ATOM     23  C   UNL     1       9.055   6.819   8.289  0.00  0.00    +0.014 A 
ATOM     28  H   UNL     1      13.542   5.921   6.627  0.00  0.00    +0.167 HD
BRANCH  22  26
ATOM      2  F   UNL     1       8.967   3.544   9.106  0.00  0.00    -0.166 F 
ATOM      3  F   UNL     1      10.112   4.473  10.703  0.00  0.00    -0.166 F 
ATOM      4  F   UNL     1       8.109   5.175  10.259  0.00  0.00    -0.166 F 
ATOM     26  C   UNL     1       9.264   4.750   9.670  0.00  0.00    +0.417 C 
ENDBRANCH  22  26
ENDBRANCH   9  13
BRANCH   6  14
ATOM     14  C   UNL     1      16.992   9.857   5.629  0.00  0.00    +0.119 C 
BRANCH  14  15
ATOM      1  F   UNL     1      21.070   7.873   7.436  0.00  0.00    -0.202 F 
ATOM      5  F   UNL     1      21.652   6.748   5.013  0.00  0.00    -0.202 F 
ATOM     15  C   UNL     1      18.237   9.027   5.464  0.00  0.00    -0.030 A 
ATOM     20  C   UNL     1      19.094   8.831   6.547  0.00  0.00    +0.046 A 
ATOM     21  C   UNL     1      18.535   8.452   4.228  0.00  0.00    +0.008 A 
ATOM     24  C   UNL     1      20.247   8.061   6.395  0.00  0.00    +0.159 A 
ATOM     25  C   UNL     1      19.688   7.682   4.075  0.00  0.00    +0.041 A 
ATOM     27  C   UNL     1      20.544   7.487   5.159  0.00  0.00    +0.158 A 
ENDBRANCH  14  15
ENDBRANCH   6  14
TORSDOF 4
ENDMDL
MODEL 2
REMARK VINA RESULT:      -7.4     14.100     15.424
REMARK  Name = 45784263
REMARK  4 active torsions:
REMARK  status: ('A' for Active; 'I' for Inactive)
REMARK    1  A    between atoms: N_6  and  C_14
REMARK    2  A    between atoms: C_9  and  C_13
REMARK    3  A    between atoms: C_14  and  C_15
REMARK    4  A    between atoms: C_22  and  C_26
REMARK                            x       y       z     vdW  Elec       q    Type
REMARK                         _______ _______ _______ _____ _____    ______ ____
ROOT
ATOM      6  N   UNL     1      21.114   5.172  21.391  0.00  0.00    -0.297 NA
ATOM      9  C   UNL     1      19.415   6.642  20.716  0.00  0.00    +0.070 C 
ATOM     10  C   UNL     1      19.930   7.054  22.106  0.00  0.00    +0.028 C 
ATOM     11  C   UNL     1      19.942   5.215  20.514  0.00  0.00    +0.096 C 
ATOM     12  C   UNL     1      20.688   5.838  22.623  0.00  0.00    +0.085 C 
ENDROOT
BRANCH   9  13
ATOM      7  N   UNL     1      17.094   7.017  21.592  0.00  0.00    -0.342 N 
ATOM      8  N   UNL     1      17.250   6.611  19.413  0.00  0.00    -0.232 NA
ATOM     13  C   UNL     1      17.919   6.749  20.535  0.00  0.00    +0.113 A 
ATOM     16  C   UNL     1      15.807   7.054  21.119  0.00  0.00    +0.067 A 
ATOM     17  C   UNL     1      15.932   6.798  19.757  0.00  0.00    +0.089 A 
ATOM     18  C   UNL     1      14.582   7.282  21.747  0.00  0.00    +0.040 A 
ATOM     19  C   UNL     1      14.776   6.763  18.958  0.00  0.00    +0.030 A 
ATOM     22  C   UNL     1      13.443   7.244  20.937  0.00  0.00    +0.057 A 
ATOM     23  C   UNL     1      13.536   6.990  19.567  0.00  0.00    +0.014 A 
ATOM     28  H   UNL     1      17.377   7.162  22.552  0.00  0.00    +0.167 HD
BRANCH  22  26
ATOM      2  F   UNL     1      11.558   6.346  22.076  0.00  0.00    -0.166 F 
ATOM      3  F   UNL     1      12.123   8.386  22.574  0.00  0.00    -0.166 F 
ATOM      4  F   UNL     1      11.176   7.960  20.670  0.00  0.00    -0.166 F 
ATOM     26  C   UNL     1      12.102   7.482  21.551  0.00  0.00    +0.417 C 
ENDBRANCH  22  26
ENDBRANCH   9  13
BRANCH   6  14
ATOM     14  C   UNL     1      21.581   3.815  21.628  0.00  0.00    +0.119 C 
BRANCH  14  15
ATOM      1  F   UNL     1      25.563   5.433  19.315  0.00  0.00    -0.202 F 
ATOM      5  F   UNL     1      26.716   2.959  19.470  0.00  0.00    -0.202 F 
ATOM     15  C   UNL     1      22.953   3.586  21.051  0.00  0.00    -0.030 A 
ATOM     20  C   UNL     1      23.636   4.636  20.437  0.00  0.00    +0.046 A 
ATOM     21  C   UNL     1      23.542   2.324  21.131  0.00  0.00    +0.008 A 
ATOM     24  C   UNL     1      24.908   4.425  19.904  0.00  0.00    +0.159 A 
ATOM     25  C   UNL     1      24.814   2.112  20.597  0.00  0.00    +0.041 A 
ATOM     27  C   UNL     1      25.496   3.163  19.984  0.00  0.00    +0.158 A 
ENDBRANCH  14  15
ENDBRANCH   6  14
TORSDOF 4
ENDMDL
MODEL 3
REMARK VINA RESULT:      -7.3     29.312     34.300
REMARK  Name = 45784263
REMARK  4 active torsions:
REMARK  status: ('A' for Active; 'I' for Inactive)
REMARK    1  A    between atoms: N_6  and  C_14
REMARK    2  A    between atoms: C_9  and  C_13
REMARK    3  A    between atoms: C_14  and  C_15
REMARK    4  A    between atoms: C_22  and  C_26
REMARK                            x       y       z     vdW  Elec       q    Type
REMARK                         _______ _______ _______ _____ _____    ______ ____
ROOT
ATOM      6  N   UNL     1     -15.138   6.340  21.911  0.00  0.00    -0.297 NA
ATOM      9  C   UNL     1     -15.982   4.359  22.839  0.00  0.00    +0.070 C 
ATOM     10  C   UNL     1     -17.143   5.324  22.544  0.00  0.00    +0.028 C 
ATOM     11  C   UNL     1     -14.723   5.234  22.776  0.00  0.00    +0.096 C 
ATOM     12  C   UNL     1     -16.487   6.687  22.361  0.00  0.00    +0.085 C 
ENDROOT
BRANCH   9  13
ATOM      7  N   UNL     1     -15.805   4.181  25.337  0.00  0.00    -0.342 N 
ATOM      8  N   UNL     1     -16.493   2.349  24.283  0.00  0.00    -0.232 NA
ATOM     13  C   UNL     1     -16.105   3.596  24.137  0.00  0.00    +0.113 A 
ATOM     16  C   UNL     1     -16.014   3.249  26.321  0.00  0.00    +0.067 A 
ATOM     17  C   UNL     1     -16.443   2.115  25.637  0.00  0.00    +0.089 A 
ATOM     18  C   UNL     1     -15.869   3.300  27.708  0.00  0.00    +0.040 A 
ATOM     19  C   UNL     1     -16.749   0.952  26.365  0.00  0.00    +0.030 A 
ATOM     22  C   UNL     1     -16.178   2.134  28.415  0.00  0.00    +0.057 A 
ATOM     23  C   UNL     1     -16.611   0.980  27.759  0.00  0.00    +0.014 A 
ATOM     28  H   UNL     1     -15.487   5.131  25.477  0.00  0.00    +0.167 HD
BRANCH  22  26
ATOM      2  F   UNL     1     -16.112   0.868  30.427  0.00  0.00    -0.166 F 
ATOM      3  F   UNL     1     -14.861   2.645  30.347  0.00  0.00    -0.166 F 
ATOM      4  F   UNL     1     -17.012   2.844  30.543  0.00  0.00    -0.166 F 
ATOM     26  C   UNL     1     -16.044   2.126  29.904  0.00  0.00    +0.417 C 
ENDBRANCH  22  26
ENDBRANCH   9  13
BRANCH   6  14
ATOM     14  C   UNL     1     -14.224   7.470  21.978  0.00  0.00    +0.119 C 
BRANCH  14  15
ATOM      1  F   UNL     1     -13.601   7.965  17.162  0.00  0.00    -0.202 F 
ATOM      5  F   UNL     1     -10.890   7.744  17.442  0.00  0.00    -0.202 F 
ATOM     15  C   UNL     1     -13.333   7.543  20.766  0.00  0.00    -0.030 A 
ATOM     20  C   UNL     1     -13.890   7.723  19.500  0.00  0.00    +0.046 A 
ATOM     21  C   UNL     1     -11.950   7.432  20.909  0.00  0.00    +0.008 A 
ATOM     24  C   UNL     1     -13.066   7.792  18.377  0.00  0.00    +0.159 A 
ATOM     25  C   UNL     1     -11.124   7.500  19.786  0.00  0.00    +0.041 A 
ATOM     27  C   UNL     1     -11.683   7.680  18.521  0.00  0.00    +0.158 A 
ENDBRANCH  14  15
ENDBRANCH   6  14
TORSDOF 4
ENDMDL
MODEL 4
REMARK VINA RESULT:      -7.2     24.057     27.919
REMARK  Name = 45784263
REMARK  4 active torsions:
REMARK  status: ('A' for Active; 'I' for Inactive)
REMARK    1  A    between atoms: N_6  and  C_14
REMARK    2  A    between atoms: C_9  and  C_13
REMARK    3  A    between atoms: C_14  and  C_15
REMARK    4  A    between atoms: C_22  and  C_26
REMARK                            x       y       z     vdW  Elec       q    Type
REMARK                         _______ _______ _______ _____ _____    ______ ____
ROOT
ATOM      6  N   UNL     1      -9.687  11.565  16.900  0.00  0.00    -0.297 NA
ATOM      9  C   UNL     1     -10.230   9.448  17.751  0.00  0.00    +0.070 C 
ATOM     10  C   UNL     1     -10.523   9.487  16.241  0.00  0.00    +0.028 C 
ATOM     11  C   UNL     1     -10.080  10.921  18.155  0.00  0.00    +0.096 C 
ATOM     12  C   UNL     1     -10.552  10.967  15.882  0.00  0.00    +0.085 C 
ENDROOT
BRANCH   9  13
ATOM      7  N   UNL     1     -10.885   7.875  19.594  0.00  0.00    -0.342 N 
ATOM      8  N   UNL     1     -12.564   8.770  18.445  0.00  0.00    -0.232 NA
ATOM     13  C   UNL     1     -11.258   8.711  18.578  0.00  0.00    +0.113 A 
ATOM     16  C   UNL     1     -12.027   7.361  20.152  0.00  0.00    +0.067 A 
ATOM     17  C   UNL     1     -13.060   7.935  19.418  0.00  0.00    +0.089 A 
ATOM     18  C   UNL     1     -12.238   6.470  21.205  0.00  0.00    +0.040 A 
ATOM     19  C   UNL     1     -14.389   7.611  19.738  0.00  0.00    +0.030 A 
ATOM     22  C   UNL     1     -13.567   6.160  21.510  0.00  0.00    +0.057 A 
ATOM     23  C   UNL     1     -14.625   6.719  20.792  0.00  0.00    +0.014 A 
ATOM     28  H   UNL     1      -9.938   7.670  19.884  0.00  0.00    +0.167 HD
BRANCH  22  26
ATOM      2  F   UNL     1     -12.736   4.587  23.089  0.00  0.00    -0.166 F 
ATOM      3  F   UNL     1     -14.419   5.812  23.719  0.00  0.00    -0.166 F 
ATOM      4  F   UNL     1     -14.721   4.213  22.286  0.00  0.00    -0.166 F 
ATOM     26  C   UNL     1     -13.858   5.212  22.628  0.00  0.00    +0.417 C 
ENDBRANCH  22  26
ENDBRANCH   9  13
BRANCH   6  14
ATOM     14  C   UNL     1      -9.816  13.013  16.955  0.00  0.00    +0.119 C 
BRANCH  14  15
ATOM      1  F   UNL     1      -5.204  13.252  15.374  0.00  0.00    -0.202 F 
ATOM      5  F   UNL     1      -4.801  15.576  16.757  0.00  0.00    -0.202 F 
ATOM     15  C   UNL     1      -8.476  13.698  16.902  0.00  0.00    -0.030 A 
ATOM     20  C   UNL     1      -7.440  13.147  16.148  0.00  0.00    +0.046 A 
ATOM     21  C   UNL     1      -8.270  14.884  17.607  0.00  0.00    +0.008 A 
ATOM     24  C   UNL     1      -6.199  13.781  16.098  0.00  0.00    +0.159 A 
ATOM     25  C   UNL     1      -7.029  15.519  17.558  0.00  0.00    +0.041 A 
ATOM     27  C   UNL     1      -5.994  14.967  16.803  0.00  0.00    +0.158 A 
ENDBRANCH  14  15
ENDBRANCH   6  14
TORSDOF 4
ENDMDL
MODEL 5
REMARK VINA RESULT:      -7.2     25.097     28.426
REMARK  Name = 45784263
REMARK  4 active torsions:
REMARK  status: ('A' for Active; 'I' for Inactive)
REMARK    1  A    between atoms: N_6  and  C_14
REMARK    2  A    between atoms: C_9  and  C_13
REMARK    3  A    between atoms: C_14  and  C_15
REMARK    4  A    between atoms: C_22  and  C_26
REMARK                            x       y       z     vdW  Elec       q    Type
REMARK                         _______ _______ _______ _____ _____    ______ ____
ROOT
ATOM      6  N   UNL     1      -2.148 -10.946  13.862  0.00  0.00    -0.297 NA
ATOM      9  C   UNL     1      -3.331 -10.214  15.750  0.00  0.00    +0.070 C 
ATOM     10  C   UNL     1      -1.944 -10.726  16.178  0.00  0.00    +0.028 C 
ATOM     11  C   UNL     1      -3.523 -10.757  14.328  0.00  0.00    +0.096 C 
ATOM     12  C   UNL     1      -1.444 -11.547  14.997  0.00  0.00    +0.085 C 
ENDROOT
BRANCH   9  13
ATOM      7  N   UNL     1      -5.720 -10.082  16.510  0.00  0.00    -0.342 N 
ATOM      8  N   UNL     1      -4.393 -11.397  17.715  0.00  0.00    -0.232 NA
ATOM     13  C   UNL     1      -4.460 -10.588  16.681  0.00  0.00    +0.113 A 
ATOM     16  C   UNL     1      -6.516 -10.600  17.498  0.00  0.00    +0.067 A 
ATOM     17  C   UNL     1      -5.665 -11.418  18.236  0.00  0.00    +0.089 A 
ATOM     18  C   UNL     1      -7.868 -10.429  17.801  0.00  0.00    +0.040 A 
ATOM     19  C   UNL     1      -6.176 -12.112  19.346  0.00  0.00    +0.030 A 
ATOM     22  C   UNL     1      -8.358 -11.129  18.908  0.00  0.00    +0.057 A 
ATOM     23  C   UNL     1      -7.529 -11.956  19.668  0.00  0.00    +0.014 A 
ATOM     28  H   UNL     1      -6.014  -9.441  15.786  0.00  0.00    +0.167 HD
BRANCH  22  26
ATOM      2  F   UNL     1     -10.630 -11.625  18.409  0.00  0.00    -0.166 F 
ATOM      3  F   UNL     1     -10.094 -11.499  20.512  0.00  0.00    -0.166 F 
ATOM      4  F   UNL     1     -10.227  -9.693  19.321  0.00  0.00    -0.166 F 
ATOM     26  C   UNL     1      -9.798 -10.987  19.282  0.00  0.00    +0.417 C 
ENDBRANCH  22  26
ENDBRANCH   9  13
BRANCH   6  14
ATOM     14  C   UNL     1      -2.075 -11.771  12.666  0.00  0.00    +0.119 C 
BRANCH  14  15
ATOM      1  F   UNL     1      -5.160 -11.889   8.885  0.00  0.00    -0.202 F 
ATOM      5  F   UNL     1      -4.567  -9.295   8.259  0.00  0.00    -0.202 F 
ATOM     15  C   UNL     1      -2.741 -11.110  11.488  0.00  0.00    -0.030 A 
ATOM     20  C   UNL     1      -3.660 -11.820  10.716  0.00  0.00    +0.046 A 
ATOM     21  C   UNL     1      -2.439  -9.785  11.169  0.00  0.00    +0.008 A 
ATOM     24  C   UNL     1      -4.277 -11.207   9.626  0.00  0.00    +0.159 A 
ATOM     25  C   UNL     1      -3.056  -9.172  10.079  0.00  0.00    +0.041 A 
ATOM     27  C   UNL     1      -3.975  -9.883   9.307  0.00  0.00    +0.158 A 
ENDBRANCH  14  15
ENDBRANCH   6  14
TORSDOF 4
ENDMDL
MODEL 6
REMARK VINA RESULT:      -7.1     28.820     30.611
REMARK  Name = 45784263
REMARK  4 active torsions:
REMARK  status: ('A' for Active; 'I' for Inactive)
REMARK    1  A    between atoms: N_6  and  C_14
REMARK    2  A    between atoms: C_9  and  C_13
REMARK    3  A    between atoms: C_14  and  C_15
REMARK    4  A    between atoms: C_22  and  C_26
REMARK                            x       y       z     vdW  Elec       q    Type
REMARK                         _______ _______ _______ _____ _____    ______ ____
ROOT
ATOM      6  N   UNL     1      -8.736  -9.741  17.341  0.00  0.00    -0.297 NA
ATOM      9  C   UNL     1     -10.210  -7.921  17.216  0.00  0.00    +0.070 C 
ATOM     10  C   UNL     1     -10.837  -9.034  18.074  0.00  0.00    +0.028 C 
ATOM     11  C   UNL     1      -9.058  -8.608  16.470  0.00  0.00    +0.096 C 
ATOM     12  C   UNL     1     -10.032 -10.285  17.747  0.00  0.00    +0.085 C 
ENDROOT
BRANCH   9  13
ATOM      7  N   UNL     1     -10.743  -6.256  15.415  0.00  0.00    -0.342 N 
ATOM      8  N   UNL     1     -12.470  -7.409  16.207  0.00  0.00    -0.232 NA
ATOM     13  C   UNL     1     -11.173  -7.214  16.292  0.00  0.00    +0.113 A 
ATOM     16  C   UNL     1     -11.835  -5.805  14.719  0.00  0.00    +0.067 A 
ATOM     17  C   UNL     1     -12.900  -6.540  15.232  0.00  0.00    +0.089 A 
ATOM     18  C   UNL     1     -11.978  -4.846  13.716  0.00  0.00    +0.040 A 
ATOM     19  C   UNL     1     -14.191  -6.317  14.726  0.00  0.00    +0.030 A 
ATOM     22  C   UNL     1     -13.270  -4.638  13.224  0.00  0.00    +0.057 A 
ATOM     23  C   UNL     1     -14.359  -5.360  13.718  0.00  0.00    +0.014 A 
ATOM     28  H   UNL     1      -9.791  -5.936  15.297  0.00  0.00    +0.167 HD
BRANCH  22  26
ATOM      2  F   UNL     1     -12.413  -2.801  11.980  0.00  0.00    -0.166 F 
ATOM      3  F   UNL     1     -13.725  -4.175  10.921  0.00  0.00    -0.166 F 
ATOM      4  F   UNL     1     -14.550  -2.801  12.381  0.00  0.00    -0.166 F 
ATOM     26  C   UNL     1     -13.488  -3.625  12.148  0.00  0.00    +0.417 C 
ENDBRANCH  22  26
ENDBRANCH   9  13
BRANCH   6  14
ATOM     14  C   UNL     1      -7.903 -10.732  16.676  0.00  0.00    +0.119 C 
BRANCH  14  15
ATOM      1  F   UNL     1      -3.051 -11.049  17.109  0.00  0.00    -0.202 F 
ATOM      5  F   UNL     1      -3.293 -11.949  19.679  0.00  0.00    -0.202 F 
ATOM     15  C   UNL     1      -6.671 -11.057  17.478  0.00  0.00    -0.030 A 
ATOM     20  C   UNL     1      -5.407 -10.900  16.911  0.00  0.00    +0.046 A 
ATOM     21  C   UNL     1      -6.794 -11.515  18.790  0.00  0.00    +0.008 A 
ATOM     24  C   UNL     1      -4.265 -11.201  17.654  0.00  0.00    +0.159 A 
ATOM     25  C   UNL     1      -5.653 -11.816  19.534  0.00  0.00    +0.041 A 
ATOM     27  C   UNL     1      -4.389 -11.659  18.965  0.00  0.00    +0.158 A 
ENDBRANCH  14  15
ENDBRANCH   6  14
TORSDOF 4
ENDMDL
MODEL 7
REMARK VINA RESULT:      -7.0     25.706     29.163
REMARK  Name = 45784263
REMARK  4 active torsions:
REMARK  status: ('A' for Active; 'I' for Inactive)
REMARK    1  A    between atoms: N_6  and  C_14
REMARK    2  A    between atoms: C_9  and  C_13
REMARK    3  A    between atoms: C_14  and  C_15
REMARK    4  A    between atoms: C_22  and  C_26
REMARK                            x       y       z     vdW  Elec       q    Type
REMARK                         _______ _______ _______ _____ _____    ______ ____
ROOT
ATOM      6  N   UNL     1      -4.736 -11.672  16.981  0.00  0.00    -0.297 NA
ATOM      9  C   UNL     1      -6.326 -10.127  17.746  0.00  0.00    +0.070 C 
ATOM     10  C   UNL     1      -6.171 -11.259  18.777  0.00  0.00    +0.028 C 
ATOM     11  C   UNL     1      -5.677 -10.674  16.468  0.00  0.00    +0.096 C 
ATOM     12  C   UNL     1      -5.475 -12.386  18.024  0.00  0.00    +0.085 C 
ENDROOT
BRANCH   9  13
ATOM      7  N   UNL     1      -8.029  -8.620  16.683  0.00  0.00    -0.342 N 
ATOM      8  N   UNL     1      -8.829 -10.141  18.092  0.00  0.00    -0.232 NA
ATOM     13  C   UNL     1      -7.745  -9.655  17.532  0.00  0.00    +0.113 A 
ATOM     16  C   UNL     1      -9.386  -8.428  16.697  0.00  0.00    +0.067 A 
ATOM     17  C   UNL     1      -9.863  -9.390  17.584  0.00  0.00    +0.089 A 
ATOM     18  C   UNL     1     -10.213  -7.523  16.031  0.00  0.00    +0.040 A 
ATOM     19  C   UNL     1     -11.243  -9.466  17.834  0.00  0.00    +0.030 A 
ATOM     22  C   UNL     1     -11.584  -7.614  16.292  0.00  0.00    +0.057 A 
ATOM     23  C   UNL     1     -12.093  -8.567  17.176  0.00  0.00    +0.014 A 
ATOM     28  H   UNL     1      -7.360  -8.090  16.140  0.00  0.00    +0.167 HD
BRANCH  22  26
ATOM      2  F   UNL     1     -11.930  -5.486  15.288  0.00  0.00    -0.166 F 
ATOM      3  F   UNL     1     -13.025  -7.160  14.436  0.00  0.00    -0.166 F 
ATOM      4  F   UNL     1     -13.614  -6.349  16.359  0.00  0.00    -0.166 F 
ATOM     26  C   UNL     1     -12.522  -6.673  15.608  0.00  0.00    +0.417 C 
ENDBRANCH  22  26
ENDBRANCH   9  13
BRANCH   6  14
ATOM     14  C   UNL     1      -4.249 -12.564  15.939  0.00  0.00    +0.119 C 
BRANCH  14  15
ATOM      1  F   UNL     1      -0.847  -9.305  14.661  0.00  0.00    -0.202 F 
ATOM      5  F   UNL     1      -1.313  -9.789  12.010  0.00  0.00    -0.202 F 
ATOM     15  C   UNL     1      -3.465 -11.822  14.890  0.00  0.00    -0.030 A 
ATOM     20  C   UNL     1      -2.501 -10.888  15.268  0.00  0.00    +0.046 A 
ATOM     21  C   UNL     1      -3.701 -12.069  13.537  0.00  0.00    +0.008 A 
ATOM     24  C   UNL     1      -1.773 -10.202  14.296  0.00  0.00    +0.159 A 
ATOM     25  C   UNL     1      -2.974 -11.383  12.564  0.00  0.00    +0.041 A 
ATOM     27  C   UNL     1      -2.010 -10.449  12.944  0.00  0.00    +0.158 A 
ENDBRANCH  14  15
ENDBRANCH   6  14
TORSDOF 4
ENDMDL
MODEL 8
REMARK VINA RESULT:      -7.0     27.643     32.546
REMARK  Name = 45784263
REMARK  4 active torsions:
REMARK  status: ('A' for Active; 'I' for Inactive)
REMARK    1  A    between atoms: N_6  and  C_14
REMARK    2  A    between atoms: C_9  and  C_13
REMARK    3  A    between atoms: C_14  and  C_15
REMARK    4  A    between atoms: C_22  and  C_26
REMARK                            x       y       z     vdW  Elec       q    Type
REMARK                         _______ _______ _______ _____ _____    ______ ____
ROOT
ATOM      6  N   UNL     1     -13.101   7.623  20.988  0.00  0.00    -0.297 NA
ATOM      9  C   UNL     1     -15.039   6.453  21.601  0.00  0.00    +0.070 C 
ATOM     10  C   UNL     1     -15.067   7.859  22.227  0.00  0.00    +0.028 C 
ATOM     11  C   UNL     1     -13.582   6.251  21.164  0.00  0.00    +0.096 C 
ATOM     12  C   UNL     1     -13.630   8.359  22.137  0.00  0.00    +0.085 C 
ENDROOT
BRANCH   9  13
ATOM      7  N   UNL     1     -15.243   5.326  23.834  0.00  0.00    -0.342 N 
ATOM      8  N   UNL     1     -16.293   4.328  22.148  0.00  0.00    -0.232 NA
ATOM     13  C   UNL     1     -15.544   5.349  22.500  0.00  0.00    +0.113 A 
ATOM     16  C   UNL     1     -15.838   4.216  24.378  0.00  0.00    +0.067 A 
ATOM     17  C   UNL     1     -16.487   3.611  23.305  0.00  0.00    +0.089 A 
ATOM     18  C   UNL     1     -15.863   3.705  25.676  0.00  0.00    +0.040 A 
ATOM     19  C   UNL     1     -17.207   2.424  23.522  0.00  0.00    +0.030 A 
ATOM     22  C   UNL     1     -16.586   2.524  25.873  0.00  0.00    +0.057 A 
ATOM     23  C   UNL     1     -17.247   1.893  24.818  0.00  0.00    +0.014 A 
ATOM     28  H   UNL     1     -14.683   6.003  24.334  0.00  0.00    +0.167 HD
BRANCH  22  26
ATOM      2  F   UNL     1     -16.184   0.646  27.277  0.00  0.00    -0.166 F 
ATOM      3  F   UNL     1     -15.919   2.611  28.170  0.00  0.00    -0.166 F 
ATOM      4  F   UNL     1     -17.915   1.873  27.753  0.00  0.00    -0.166 F 
ATOM     26  C   UNL     1     -16.651   1.928  27.242  0.00  0.00    +0.417 C 
ENDBRANCH  22  26
ENDBRANCH   9  13
BRANCH   6  14
ATOM     14  C   UNL     1     -11.650   7.695  20.905  0.00  0.00    +0.119 C 
BRANCH  14  15
ATOM      1  F   UNL     1      -9.726  11.318  18.259  0.00  0.00    -0.202 F 
ATOM      5  F   UNL     1      -9.937   9.827  15.977  0.00  0.00    -0.202 F 
ATOM     15  C   UNL     1     -11.193   8.265  19.588  0.00  0.00    -0.030 A 
ATOM     20  C   UNL     1     -10.661   9.553  19.532  0.00  0.00    +0.046 A 
ATOM     21  C   UNL     1     -11.299   7.504  18.423  0.00  0.00    +0.008 A 
ATOM     24  C   UNL     1     -10.237  10.081  18.312  0.00  0.00    +0.159 A 
ATOM     25  C   UNL     1     -10.875   8.031  17.203  0.00  0.00    +0.041 A 
ATOM     27  C   UNL     1     -10.344   9.320  17.149  0.00  0.00    +0.158 A 
ENDBRANCH  14  15
ENDBRANCH   6  14
TORSDOF 4
ENDMDL
MODEL 9
REMARK VINA RESULT:      -6.9      6.520      8.086
REMARK  Name = 45784263
REMARK  4 active torsions:
REMARK  status: ('A' for Active; 'I' for Inactive)
REMARK    1  A    between atoms: N_6  and  C_14
REMARK    2  A    between atoms: C_9  and  C_13
REMARK    3  A    between atoms: C_14  and  C_15
REMARK    4  A    between atoms: C_22  and  C_26
REMARK                            x       y       z     vdW  Elec       q    Type
REMARK                         _______ _______ _______ _____ _____    ______ ____
ROOT
ATOM      6  N   UNL     1      13.463   4.897   0.068  0.00  0.00    -0.297 NA
ATOM      9  C   UNL     1      12.288   6.291   1.543  0.00  0.00    +0.070 C 
ATOM     10  C   UNL     1      13.798   6.410   1.815  0.00  0.00    +0.028 C 
ATOM     11  C   UNL     1      12.145   5.020   0.695  0.00  0.00    +0.096 C 
ATOM     12  C   UNL     1      14.418   5.196   1.136  0.00  0.00    +0.085 C 
ENDROOT
BRANCH   9  13
ATOM      7  N   UNL     1      11.929   5.925   4.001  0.00  0.00    -0.342 N 
ATOM      8  N   UNL     1      10.143   6.575   2.849  0.00  0.00    -0.232 NA
ATOM     13  C   UNL     1      11.420   6.274   2.780  0.00  0.00    +0.113 A 
ATOM     16  C   UNL     1      10.912   6.006   4.916  0.00  0.00    +0.067 A 
ATOM     17  C   UNL     1       9.808   6.413   4.173  0.00  0.00    +0.089 A 
ATOM     18  C   UNL     1      10.864   5.764   6.290  0.00  0.00    +0.040 A 
ATOM     19  C   UNL     1       8.575   6.595   4.822  0.00  0.00    +0.030 A 
ATOM     22  C   UNL     1       9.629   5.951   6.919  0.00  0.00    +0.057 A 
ATOM     23  C   UNL     1       8.503   6.359   6.200  0.00  0.00    +0.014 A 
ATOM     28  H   UNL     1      12.884   5.654   4.196  0.00  0.00    +0.167 HD
BRANCH  22  26
ATOM      2  F   UNL     1      10.710   5.829   9.033  0.00  0.00    -0.166 F 
ATOM      3  F   UNL     1       8.668   6.576   9.019  0.00  0.00    -0.166 F 
ATOM      4  F   UNL     1       9.050   4.465   8.702  0.00  0.00    -0.166 F 
ATOM     26  C   UNL     1       9.514   5.709   8.389  0.00  0.00    +0.417 C 
ENDBRANCH  22  26
ENDBRANCH   9  13
BRANCH   6  14
ATOM     14  C   UNL     1      13.679   3.581  -0.516  0.00  0.00    +0.119 C 
BRANCH  14  15
ATOM      1  F   UNL     1       9.992   1.328  -2.786  0.00  0.00    -0.202 F 
ATOM      5  F   UNL     1      10.463   2.757  -5.069  0.00  0.00    -0.202 F 
ATOM     15  C   UNL     1      12.820   3.361  -1.732  0.00  0.00    -0.030 A 
ATOM     20  C   UNL     1      11.784   2.428  -1.695  0.00  0.00    +0.046 A 
ATOM     21  C   UNL     1      13.059   4.091  -2.897  0.00  0.00    +0.008 A 
ATOM     24  C   UNL     1      10.987   2.224  -2.822  0.00  0.00    +0.159 A 
ATOM     25  C   UNL     1      12.263   3.887  -4.025  0.00  0.00    +0.041 A 
ATOM     27  C   UNL     1      11.227   2.953  -3.986  0.00  0.00    +0.158 A 
ENDBRANCH  14  15
ENDBRANCH   6  14
TORSDOF 4
ENDMDL
MODEL 10
REMARK VINA RESULT:      -6.8     27.701     33.786
REMARK  Name = 45784263
REMARK  4 active torsions:
REMARK  status: ('A' for Active; 'I' for Inactive)
REMARK    1  A    between atoms: N_6  and  C_14
REMARK    2  A    between atoms: C_9  and  C_13
REMARK    3  A    between atoms: C_14  and  C_15
REMARK    4  A    between atoms: C_22  and  C_26
REMARK                            x       y       z     vdW  Elec       q    Type
REMARK                         _______ _______ _______ _____ _____    ______ ____
ROOT
ATOM      6  N   UNL     1     -15.798   4.683  23.816  0.00  0.00    -0.297 NA
ATOM      9  C   UNL     1     -14.576   6.406  22.797  0.00  0.00    +0.070 C 
ATOM     10  C   UNL     1     -15.959   6.934  23.217  0.00  0.00    +0.028 C 
ATOM     11  C   UNL     1     -14.710   4.879  22.856  0.00  0.00    +0.096 C 
ATOM     12  C   UNL     1     -16.801   5.688  23.460  0.00  0.00    +0.085 C 
ENDROOT
BRANCH   9  13
ATOM      7  N   UNL     1     -12.752   7.039  21.194  0.00  0.00    -0.342 N 
ATOM      8  N   UNL     1     -14.828   7.254  20.430  0.00  0.00    -0.232 NA
ATOM     13  C   UNL     1     -14.087   6.905  21.458  0.00  0.00    +0.113 A 
ATOM     16  C   UNL     1     -12.624   7.505  19.911  0.00  0.00    +0.067 A 
ATOM     17  C   UNL     1     -13.933   7.631  19.456  0.00  0.00    +0.089 A 
ATOM     18  C   UNL     1     -11.508   7.818  19.133  0.00  0.00    +0.040 A 
ATOM     19  C   UNL     1     -14.162   8.096  18.150  0.00  0.00    +0.030 A 
ATOM     22  C   UNL     1     -11.755   8.279  17.836  0.00  0.00    +0.057 A 
ATOM     23  C   UNL     1     -13.058   8.416  17.350  0.00  0.00    +0.014 A 
ATOM     28  H   UNL     1     -11.992   6.833  21.829  0.00  0.00    +0.167 HD
BRANCH  22  26
ATOM      2  F   UNL     1      -9.510   9.042  17.659  0.00  0.00    -0.166 F 
ATOM      3  F   UNL     1     -10.170   7.590  16.181  0.00  0.00    -0.166 F 
ATOM      4  F   UNL     1     -10.874   9.638  16.075  0.00  0.00    -0.166 F 
ATOM     26  C   UNL     1     -10.602   8.630  16.953  0.00  0.00    +0.417 C 
ENDBRANCH  22  26
ENDBRANCH   9  13
BRANCH   6  14
ATOM     14  C   UNL     1     -16.332   3.330  23.780  0.00  0.00    +0.119 C 
BRANCH  14  15
ATOM      1  F   UNL     1     -15.655   3.590  28.607  0.00  0.00    -0.202 F 
ATOM      5  F   UNL     1     -16.658   1.067  28.931  0.00  0.00    -0.202 F 
ATOM     15  C   UNL     1     -16.419   2.725  25.156  0.00  0.00    -0.030 A 
ATOM     20  C   UNL     1     -15.988   3.451  26.266  0.00  0.00    +0.046 A 
ATOM     21  C   UNL     1     -16.932   1.438  25.322  0.00  0.00    +0.008 A 
ATOM     24  C   UNL     1     -16.069   2.892  27.541  0.00  0.00    +0.159 A 
ATOM     25  C   UNL     1     -17.013   0.878  26.597  0.00  0.00    +0.041 A 
ATOM     27  C   UNL     1     -16.581   1.605  27.706  0.00  0.00    +0.158 A 
ENDBRANCH  14  15
ENDBRANCH   6  14
TORSDOF 4
ENDMDL
