MODEL 1
REMARK VINA RESULT:      -7.7      0.000      0.000
REMARK  Name = 26745175
REMARK  5 active torsions:
REMARK  status: ('A' for Active; 'I' for Inactive)
REMARK    1  A    between atoms: N_7  and  C_18
REMARK    2  A    between atoms: C_10  and  C_15
REMARK    3  A    between atoms: C_18  and  C_20
REMARK    4  A    between atoms: C_18  and  C_21
REMARK    5  A    between atoms: C_19  and  C_22
REMARK                            x       y       z     vdW  Elec       q    Type
REMARK                         _______ _______ _______ _____ _____    ______ ____
ROOT
ATOM      3  O   UNL     1      12.357   8.448  22.150  0.00  0.00    -0.253 OA
ATOM      4  N   UNL     1      13.077   9.130  20.041  0.00  0.00    -0.268 N 
ATOM      5  N   UNL     1      13.235  10.628  16.615  0.00  0.00    -0.347 N 
ATOM      6  N   UNL     1      12.449   8.647  15.945  0.00  0.00    -0.240 NA
ATOM      7  N   UNL     1      12.763  10.682  21.800  0.00  0.00    -0.297 N 
ATOM     10  C   UNL     1      13.178   7.711  19.551  0.00  0.00    +0.172 C 
ATOM     11  C   UNL     1      12.423   7.506  18.205  0.00  0.00    +0.089 C 
ATOM     12  C   UNL     1      13.495  10.224  19.117  0.00  0.00    +0.165 C 
ATOM     13  C   UNL     1      12.662   8.645  17.295  0.00  0.00    +0.066 A 
ATOM     14  C   UNL     1      13.143   9.853  17.733  0.00  0.00    +0.056 A 
ATOM     16  C   UNL     1      12.703   9.354  21.386  0.00  0.00    +0.303 C 
ATOM     17  C   UNL     1      12.804   9.857  15.564  0.00  0.00    +0.197 A 
ATOM     28  H   UNL     1      13.556  11.585  16.565  0.00  0.00    +0.167 HD
ATOM     29  H   UNL     1      13.227  11.374  21.228  0.00  0.00    +0.150 HD
ENDROOT
BRANCH  10  15
ATOM      2  O   UNL     1      15.006   6.355  18.628  0.00  0.00    -0.336 OA
ATOM      8  N   UNL     1      15.579   7.539  20.441  0.00  0.00    -0.190 NA
ATOM      9  N   UNL     1      16.355   6.064  18.873  0.00  0.00    -0.056 NA
ATOM     15  C   UNL     1      14.629   7.231  19.596  0.00  0.00    +0.249 A 
ATOM     19  C   UNL     1      16.619   6.799  19.957  0.00  0.00    +0.202 A 
BRANCH  19  22
ATOM      1  F   UNL     1      21.632   6.872  22.370  0.00  0.00    -0.205 F 
ATOM     22  C   UNL     1      17.911   6.818  20.579  0.00  0.00    +0.023 A 
ATOM     23  C   UNL     1      18.868   5.865  20.227  0.00  0.00    +0.014 A 
ATOM     24  C   UNL     1      18.210   7.788  21.535  0.00  0.00    +0.014 A 
ATOM     25  C   UNL     1      20.125   5.884  20.832  0.00  0.00    +0.039 A 
ATOM     26  C   UNL     1      19.468   7.806  22.141  0.00  0.00    +0.039 A 
ATOM     27  C   UNL     1      20.425   6.855  21.789  0.00  0.00    +0.123 A 
ENDBRANCH  19  22
ENDBRANCH  10  15
BRANCH   7  18
ATOM     18  C   UNL     1      12.426  11.085  23.147  0.00  0.00    +0.068 C 
ATOM     20  C   UNL     1      13.396  12.149  23.644  0.00  0.00    +0.027 C 
ATOM     21  C   UNL     1      10.987  11.579  23.208  0.00  0.00    +0.027 C 
ENDBRANCH   7  18
TORSDOF 3
ENDMDL
MODEL 2
REMARK VINA RESULT:      -7.1      3.407      7.356
REMARK  Name = 26745175
REMARK  5 active torsions:
REMARK  status: ('A' for Active; 'I' for Inactive)
REMARK    1  A    between atoms: N_7  and  C_18
REMARK    2  A    between atoms: C_10  and  C_15
REMARK    3  A    between atoms: C_18  and  C_20
REMARK    4  A    between atoms: C_18  and  C_21
REMARK    5  A    between atoms: C_19  and  C_22
REMARK                            x       y       z     vdW  Elec       q    Type
REMARK                         _______ _______ _______ _____ _____    ______ ____
ROOT
ATOM      3  O   UNL     1      12.520   9.695  16.835  0.00  0.00    -0.253 OA
ATOM      4  N   UNL     1      13.945   9.256  18.627  0.00  0.00    -0.268 N 
ATOM      5  N   UNL     1      16.829   8.113  20.720  0.00  0.00    -0.347 N 
ATOM      6  N   UNL     1      15.674   6.208  20.891  0.00  0.00    -0.240 NA
ATOM      7  N   UNL     1      14.473  10.893  17.001  0.00  0.00    -0.297 N 
ATOM     10  C   UNL     1      12.964   8.300  19.249  0.00  0.00    +0.172 C 
ATOM     11  C   UNL     1      13.624   6.932  19.592  0.00  0.00    +0.089 C 
ATOM     12  C   UNL     1      15.214   9.537  19.358  0.00  0.00    +0.165 C 
ATOM     13  C   UNL     1      14.966   7.133  20.175  0.00  0.00    +0.066 A 
ATOM     14  C   UNL     1      15.656   8.313  20.053  0.00  0.00    +0.056 A 
ATOM     16  C   UNL     1      13.570   9.929  17.440  0.00  0.00    +0.303 C 
ATOM     17  C   UNL     1      16.792   6.829  21.206  0.00  0.00    +0.197 A 
ATOM     28  H   UNL     1      17.582   8.777  20.836  0.00  0.00    +0.167 HD
ATOM     29  H   UNL     1      15.222  11.204  17.605  0.00  0.00    +0.150 HD
ENDROOT
BRANCH  10  15
ATOM      2  O   UNL     1      11.303   8.212  21.056  0.00  0.00    -0.336 OA
ATOM      8  N   UNL     1      12.258  10.222  20.797  0.00  0.00    -0.190 NA
ATOM      9  N   UNL     1      10.728   9.045  22.026  0.00  0.00    -0.056 NA
ATOM     15  C   UNL     1      12.193   8.983  20.378  0.00  0.00    +0.249 A 
ATOM     19  C   UNL     1      11.342  10.212  21.809  0.00  0.00    +0.202 A 
BRANCH  19  22
ATOM      1  F   UNL     1      10.266  14.763  24.822  0.00  0.00    -0.205 F 
ATOM     22  C   UNL     1      11.064  11.385  22.585  0.00  0.00    +0.023 A 
ATOM     23  C   UNL     1      10.855  11.278  23.960  0.00  0.00    +0.014 A 
ATOM     24  C   UNL     1      11.005  12.633  21.965  0.00  0.00    +0.014 A 
ATOM     25  C   UNL     1      10.585  12.419  24.715  0.00  0.00    +0.039 A 
ATOM     26  C   UNL     1      10.734  13.775  22.722  0.00  0.00    +0.039 A 
ATOM     27  C   UNL     1      10.525  13.668  24.096  0.00  0.00    +0.123 A 
ENDBRANCH  19  22
ENDBRANCH  10  15
BRANCH   7  18
ATOM     18  C   UNL     1      14.239  11.683  15.813  0.00  0.00    +0.068 C 
ATOM     20  C   UNL     1      14.473  13.161  16.099  0.00  0.00    +0.027 C 
ATOM     21  C   UNL     1      15.122  11.195  14.672  0.00  0.00    +0.027 C 
ENDBRANCH   7  18
TORSDOF 3
ENDMDL
MODEL 3
REMARK VINA RESULT:      -7.1      1.778      2.168
REMARK  Name = 26745175
REMARK  5 active torsions:
REMARK  status: ('A' for Active; 'I' for Inactive)
REMARK    1  A    between atoms: N_7  and  C_18
REMARK    2  A    between atoms: C_10  and  C_15
REMARK    3  A    between atoms: C_18  and  C_20
REMARK    4  A    between atoms: C_18  and  C_21
REMARK    5  A    between atoms: C_19  and  C_22
REMARK                            x       y       z     vdW  Elec       q    Type
REMARK                         _______ _______ _______ _____ _____    ______ ____
ROOT
ATOM      3  O   UNL     1      13.904  10.920  21.920  0.00  0.00    -0.253 OA
ATOM      4  N   UNL     1      13.627  10.254  19.704  0.00  0.00    -0.268 N 
ATOM      5  N   UNL     1      12.336   9.849  16.215  0.00  0.00    -0.347 N 
ATOM      6  N   UNL     1      11.102   8.206  17.090  0.00  0.00    -0.240 NA
ATOM      7  N   UNL     1      14.357  12.437  20.256  0.00  0.00    -0.297 N 
ATOM     10  C   UNL     1      13.319   8.837  20.106  0.00  0.00    +0.172 C 
ATOM     11  C   UNL     1      12.003   8.320  19.454  0.00  0.00    +0.089 C 
ATOM     12  C   UNL     1      13.688  10.575  18.249  0.00  0.00    +0.165 C 
ATOM     13  C   UNL     1      11.920   8.747  18.041  0.00  0.00    +0.066 A 
ATOM     14  C   UNL     1      12.688   9.762  17.529  0.00  0.00    +0.056 A 
ATOM     16  C   UNL     1      13.955  11.186  20.716  0.00  0.00    +0.303 C 
ATOM     17  C   UNL     1      11.376   8.892  15.999  0.00  0.00    +0.197 A 
ATOM     28  H   UNL     1      12.707  10.493  15.529  0.00  0.00    +0.167 HD
ATOM     29  H   UNL     1      14.578  12.574  19.279  0.00  0.00    +0.150 HD
ENDROOT
BRANCH  10  15
ATOM      2  O   UNL     1      14.490   7.004  18.965  0.00  0.00    -0.336 OA
ATOM      8  N   UNL     1      15.683   7.967  20.598  0.00  0.00    -0.190 NA
ATOM      9  N   UNL     1      15.718   6.330  19.000  0.00  0.00    -0.056 NA
ATOM     15  C   UNL     1      14.554   7.952  19.936  0.00  0.00    +0.249 A 
ATOM     19  C   UNL     1      16.365   6.954  19.988  0.00  0.00    +0.202 A 
BRANCH  19  22
ATOM      1  F   UNL     1      21.519   5.551  21.544  0.00  0.00    -0.205 F 
ATOM     22  C   UNL     1      17.694   6.592  20.389  0.00  0.00    +0.023 A 
ATOM     23  C   UNL     1      18.309   7.261  21.448  0.00  0.00    +0.014 A 
ATOM     24  C   UNL     1      18.370   5.572  19.720  0.00  0.00    +0.014 A 
ATOM     25  C   UNL     1      19.601   6.909  21.837  0.00  0.00    +0.039 A 
ATOM     26  C   UNL     1      19.663   5.221  20.110  0.00  0.00    +0.039 A 
ATOM     27  C   UNL     1      20.279   5.889  21.169  0.00  0.00    +0.123 A 
ENDBRANCH  19  22
ENDBRANCH  10  15
BRANCH   7  18
ATOM     18  C   UNL     1      14.741  13.502  21.155  0.00  0.00    +0.068 C 
ATOM     20  C   UNL     1      16.258  13.632  21.212  0.00  0.00    +0.027 C 
ATOM     21  C   UNL     1      14.090  14.812  20.732  0.00  0.00    +0.027 C 
ENDBRANCH   7  18
TORSDOF 3
ENDMDL
MODEL 4
REMARK VINA RESULT:      -6.8     27.111     28.963
REMARK  Name = 26745175
REMARK  5 active torsions:
REMARK  status: ('A' for Active; 'I' for Inactive)
REMARK    1  A    between atoms: N_7  and  C_18
REMARK    2  A    between atoms: C_10  and  C_15
REMARK    3  A    between atoms: C_18  and  C_20
REMARK    4  A    between atoms: C_18  and  C_21
REMARK    5  A    between atoms: C_19  and  C_22
REMARK                            x       y       z     vdW  Elec       q    Type
REMARK                         _______ _______ _______ _____ _____    ______ ____
ROOT
ATOM      3  O   UNL     1      -0.968 -13.785  13.406  0.00  0.00    -0.253 OA
ATOM      4  N   UNL     1      -2.576 -12.596  12.208  0.00  0.00    -0.268 N 
ATOM      5  N   UNL     1      -4.496 -10.921   9.467  0.00  0.00    -0.347 N 
ATOM      6  N   UNL     1      -3.238  -9.143   9.964  0.00  0.00    -0.240 NA
ATOM      7  N   UNL     1      -2.357 -14.943  11.989  0.00  0.00    -0.297 N 
ATOM     10  C   UNL     1      -2.238 -11.312  12.915  0.00  0.00    +0.172 C 
ATOM     11  C   UNL     1      -1.973 -10.149  11.913  0.00  0.00    +0.089 C 
ATOM     12  C   UNL     1      -3.697 -12.584  11.224  0.00  0.00    +0.165 C 
ATOM     13  C   UNL     1      -2.958 -10.177  10.811  0.00  0.00    +0.066 A 
ATOM     14  C   UNL     1      -3.716 -11.284  10.525  0.00  0.00    +0.056 A 
ATOM     16  C   UNL     1      -1.896 -13.775  12.592  0.00  0.00    +0.303 C 
ATOM     17  C   UNL     1      -4.170  -9.622   9.165  0.00  0.00    +0.197 A 
ATOM     28  H   UNL     1      -5.181 -11.493   8.994  0.00  0.00    +0.167 HD
ATOM     29  H   UNL     1      -3.231 -14.944  11.481  0.00  0.00    +0.150 HD
ENDROOT
BRANCH  10  15
ATOM      2  O   UNL     1      -4.338 -10.297  13.684  0.00  0.00    -0.336 OA
ATOM      8  N   UNL     1      -3.220 -11.395  15.285  0.00  0.00    -0.190 NA
ATOM      9  N   UNL     1      -5.105 -10.172  14.851  0.00  0.00    -0.056 NA
ATOM     15  C   UNL     1      -3.248 -11.031  14.028  0.00  0.00    +0.249 A 
ATOM     19  C   UNL     1      -4.380 -10.845  15.749  0.00  0.00    +0.202 A 
BRANCH  19  22
ATOM      1  F   UNL     1      -5.957 -11.400  21.056  0.00  0.00    -0.205 F 
ATOM     22  C   UNL     1      -4.786 -10.988  17.117  0.00  0.00    +0.023 A 
ATOM     23  C   UNL     1      -5.984 -10.419  17.552  0.00  0.00    +0.014 A 
ATOM     24  C   UNL     1      -3.984 -11.696  18.013  0.00  0.00    +0.014 A 
ATOM     25  C   UNL     1      -6.379 -10.558  18.882  0.00  0.00    +0.039 A 
ATOM     26  C   UNL     1      -4.380 -11.834  19.344  0.00  0.00    +0.039 A 
ATOM     27  C   UNL     1      -5.577 -11.266  19.778  0.00  0.00    +0.123 A 
ENDBRANCH  19  22
ENDBRANCH  10  15
BRANCH   7  18
ATOM     18  C   UNL     1      -1.783 -16.238  12.278  0.00  0.00    +0.068 C 
ATOM     20  C   UNL     1      -2.880 -17.266  12.524  0.00  0.00    +0.027 C 
ATOM     21  C   UNL     1      -0.862 -16.673  11.146  0.00  0.00    +0.027 C 
ENDBRANCH   7  18
TORSDOF 3
ENDMDL
MODEL 5
REMARK VINA RESULT:      -6.6     13.836     17.536
REMARK  Name = 26745175
REMARK  5 active torsions:
REMARK  status: ('A' for Active; 'I' for Inactive)
REMARK    1  A    between atoms: N_7  and  C_18
REMARK    2  A    between atoms: C_10  and  C_15
REMARK    3  A    between atoms: C_18  and  C_20
REMARK    4  A    between atoms: C_18  and  C_21
REMARK    5  A    between atoms: C_19  and  C_22
REMARK                            x       y       z     vdW  Elec       q    Type
REMARK                         _______ _______ _______ _____ _____    ______ ____
ROOT
ATOM      3  O   UNL     1      10.210   9.564   4.342  0.00  0.00    -0.253 OA
ATOM      4  N   UNL     1       9.697   7.734   5.691  0.00  0.00    -0.268 N 
ATOM      5  N   UNL     1       8.785   5.570   8.605  0.00  0.00    -0.347 N 
ATOM      6  N   UNL     1      10.989   5.492   8.964  0.00  0.00    -0.240 NA
ATOM      7  N   UNL     1       8.040   9.295   5.045  0.00  0.00    -0.297 N 
ATOM     10  C   UNL     1      11.087   7.174   5.562  0.00  0.00    +0.172 C 
ATOM     11  C   UNL     1      11.713   6.844   6.949  0.00  0.00    +0.089 C 
ATOM     12  C   UNL     1       8.692   6.950   6.466  0.00  0.00    +0.165 C 
ATOM     13  C   UNL     1      10.714   6.208   7.832  0.00  0.00    +0.066 A 
ATOM     14  C   UNL     1       9.365   6.273   7.590  0.00  0.00    +0.056 A 
ATOM     16  C   UNL     1       9.377   8.915   4.982  0.00  0.00    +0.303 C 
ATOM     17  C   UNL     1       9.805   5.120   9.407  0.00  0.00    +0.197 A 
ATOM     28  H   UNL     1       7.797   5.408   8.744  0.00  0.00    +0.167 HD
ATOM     29  H   UNL     1       7.344   8.656   5.406  0.00  0.00    +0.150 HD
ENDROOT
BRANCH  10  15
ATOM      2  O   UNL     1      10.521   4.886   4.869  0.00  0.00    -0.336 OA
ATOM      8  N   UNL     1      11.645   6.052   3.321  0.00  0.00    -0.190 NA
ATOM      9  N   UNL     1      10.677   4.028   3.772  0.00  0.00    -0.056 NA
ATOM     15  C   UNL     1      11.118   6.055   4.520  0.00  0.00    +0.249 A 
ATOM     19  C   UNL     1      11.349   4.787   2.902  0.00  0.00    +0.202 A 
BRANCH  19  22
ATOM      1  F   UNL     1      12.855   2.952  -2.130  0.00  0.00    -0.205 F 
ATOM     22  C   UNL     1      11.737   4.314   1.605  0.00  0.00    +0.023 A 
ATOM     23  C   UNL     1      10.857   4.430   0.528  0.00  0.00    +0.014 A 
ATOM     24  C   UNL     1      12.994   3.739   1.420  0.00  0.00    +0.014 A 
ATOM     25  C   UNL     1      11.235   3.970  -0.733  0.00  0.00    +0.039 A 
ATOM     26  C   UNL     1      13.372   3.278   0.158  0.00  0.00    +0.039 A 
ATOM     27  C   UNL     1      12.493   3.393  -0.918  0.00  0.00    +0.123 A 
ENDBRANCH  19  22
ENDBRANCH  10  15
BRANCH   7  18
ATOM     18  C   UNL     1       7.539  10.470   4.366  0.00  0.00    +0.068 C 
ATOM     20  C   UNL     1       6.089  10.267   3.946  0.00  0.00    +0.027 C 
ATOM     21  C   UNL     1       7.690  11.698   5.253  0.00  0.00    +0.027 C 
ENDBRANCH   7  18
TORSDOF 3
ENDMDL
MODEL 6
REMARK VINA RESULT:      -6.4     14.298     17.299
REMARK  Name = 26745175
REMARK  5 active torsions:
REMARK  status: ('A' for Active; 'I' for Inactive)
REMARK    1  A    between atoms: N_7  and  C_18
REMARK    2  A    between atoms: C_10  and  C_15
REMARK    3  A    between atoms: C_18  and  C_20
REMARK    4  A    between atoms: C_18  and  C_21
REMARK    5  A    between atoms: C_19  and  C_22
REMARK                            x       y       z     vdW  Elec       q    Type
REMARK                         _______ _______ _______ _____ _____    ______ ____
ROOT
ATOM      3  O   UNL     1      13.525   8.725   3.639  0.00  0.00    -0.253 OA
ATOM      4  N   UNL     1      13.442   6.572   2.749  0.00  0.00    -0.268 N 
ATOM      5  N   UNL     1      13.865   3.590   0.527  0.00  0.00    -0.347 N 
ATOM      6  N   UNL     1      11.958   4.283  -0.407  0.00  0.00    -0.240 NA
ATOM      7  N   UNL     1      15.455   7.480   3.602  0.00  0.00    -0.297 N 
ATOM     10  C   UNL     1      11.950   6.639   2.569  0.00  0.00    +0.172 C 
ATOM     11  C   UNL     1      11.520   6.252   1.124  0.00  0.00    +0.089 C 
ATOM     12  C   UNL     1      14.137   5.300   2.397  0.00  0.00    +0.165 C 
ATOM     13  C   UNL     1      12.294   5.088   0.645  0.00  0.00    +0.066 A 
ATOM     14  C   UNL     1      13.465   4.684   1.236  0.00  0.00    +0.056 A 
ATOM     16  C   UNL     1      14.100   7.672   3.348  0.00  0.00    +0.303 C 
ATOM     17  C   UNL     1      12.925   3.389  -0.453  0.00  0.00    +0.197 A 
ATOM     28  H   UNL     1      14.693   3.032   0.688  0.00  0.00    +0.167 HD
ATOM     29  H   UNL     1      15.861   6.556   3.538  0.00  0.00    +0.150 HD
ENDROOT
BRANCH  10  15
ATOM      2  O   UNL     1      10.757   4.669   3.422  0.00  0.00    -0.336 OA
ATOM      8  N   UNL     1      11.021   6.297   4.938  0.00  0.00    -0.190 NA
ATOM      9  N   UNL     1      10.158   4.205   4.601  0.00  0.00    -0.056 NA
ATOM     15  C   UNL     1      11.240   5.906   3.708  0.00  0.00    +0.249 A 
ATOM     19  C   UNL     1      10.355   5.220   5.447  0.00  0.00    +0.202 A 
BRANCH  19  22
ATOM      1  F   UNL     1       8.590   5.105  10.722  0.00  0.00    -0.205 F 
ATOM     22  C   UNL     1       9.900   5.190   6.806  0.00  0.00    +0.023 A 
ATOM     23  C   UNL     1       9.496   6.370   7.433  0.00  0.00    +0.014 A 
ATOM     24  C   UNL     1       9.861   3.982   7.502  0.00  0.00    +0.014 A 
ATOM     25  C   UNL     1       9.054   6.341   8.755  0.00  0.00    +0.039 A 
ATOM     26  C   UNL     1       9.418   3.953   8.825  0.00  0.00    +0.039 A 
ATOM     27  C   UNL     1       9.015   5.132   9.452  0.00  0.00    +0.123 A 
ENDBRANCH  19  22
ENDBRANCH  10  15
BRANCH   7  18
ATOM     18  C   UNL     1      16.274   8.497   4.222  0.00  0.00    +0.068 C 
ATOM     20  C   UNL     1      16.155   8.429   5.739  0.00  0.00    +0.027 C 
ATOM     21  C   UNL     1      17.723   8.354   3.775  0.00  0.00    +0.027 C 
ENDBRANCH   7  18
TORSDOF 3
ENDMDL
MODEL 7
REMARK VINA RESULT:      -6.4     27.364     29.016
REMARK  Name = 26745175
REMARK  5 active torsions:
REMARK  status: ('A' for Active; 'I' for Inactive)
REMARK    1  A    between atoms: N_7  and  C_18
REMARK    2  A    between atoms: C_10  and  C_15
REMARK    3  A    between atoms: C_18  and  C_20
REMARK    4  A    between atoms: C_18  and  C_21
REMARK    5  A    between atoms: C_19  and  C_22
REMARK                            x       y       z     vdW  Elec       q    Type
REMARK                         _______ _______ _______ _____ _____    ______ ____
ROOT
ATOM      3  O   UNL     1      -2.648 -10.381  16.268  0.00  0.00    -0.253 OA
ATOM      4  N   UNL     1      -3.206 -12.120  14.820  0.00  0.00    -0.268 N 
ATOM      5  N   UNL     1      -3.876 -15.504  13.368  0.00  0.00    -0.347 N 
ATOM      6  N   UNL     1      -1.705 -15.471  12.840  0.00  0.00    -0.240 NA
ATOM      7  N   UNL     1      -4.626 -11.498  16.609  0.00  0.00    -0.297 N 
ATOM     10  C   UNL     1      -2.014 -11.852  13.943  0.00  0.00    +0.172 C 
ATOM     11  C   UNL     1      -1.181 -13.141  13.683  0.00  0.00    +0.089 C 
ATOM     12  C   UNL     1      -4.155 -13.195  14.408  0.00  0.00    +0.165 C 
ATOM     13  C   UNL     1      -2.071 -14.293  13.428  0.00  0.00    +0.066 A 
ATOM     14  C   UNL     1      -3.401 -14.288  13.765  0.00  0.00    +0.056 A 
ATOM     16  C   UNL     1      -3.434 -11.270  15.927  0.00  0.00    +0.303 C 
ATOM     17  C   UNL     1      -2.815 -16.180  12.818  0.00  0.00    +0.197 A 
ATOM     28  H   UNL     1      -4.823 -15.845  13.460  0.00  0.00    +0.167 HD
ATOM     29  H   UNL     1      -5.339 -12.091  16.206  0.00  0.00    +0.150 HD
ENDROOT
BRANCH  10  15
ATOM      2  O   UNL     1      -1.463 -10.287  12.132  0.00  0.00    -0.336 OA
ATOM      8  N   UNL     1      -3.591 -10.984  12.113  0.00  0.00    -0.190 NA
ATOM      9  N   UNL     1      -2.070  -9.656  11.038  0.00  0.00    -0.056 NA
ATOM     15  C   UNL     1      -2.427 -11.050  12.708  0.00  0.00    +0.249 A 
ATOM     19  C   UNL     1      -3.322 -10.117  11.093  0.00  0.00    +0.202 A 
BRANCH  19  22
ATOM      1  F   UNL     1      -7.225  -8.630   7.418  0.00  0.00    -0.205 F 
ATOM     22  C   UNL     1      -4.328  -9.734  10.146  0.00  0.00    +0.023 A 
ATOM     23  C   UNL     1      -4.384 -10.355   8.898  0.00  0.00    +0.014 A 
ATOM     24  C   UNL     1      -5.251  -8.739  10.472  0.00  0.00    +0.014 A 
ATOM     25  C   UNL     1      -5.363  -9.982   7.977  0.00  0.00    +0.039 A 
ATOM     26  C   UNL     1      -6.229  -8.366   9.550  0.00  0.00    +0.039 A 
ATOM     27  C   UNL     1      -6.286  -8.988   8.303  0.00  0.00    +0.123 A 
ENDBRANCH  19  22
ENDBRANCH  10  15
BRANCH   7  18
ATOM     18  C   UNL     1      -5.021 -10.711  17.756  0.00  0.00    +0.068 C 
ATOM     20  C   UNL     1      -6.451 -10.210  17.593  0.00  0.00    +0.027 C 
ATOM     21  C   UNL     1      -4.863 -11.523  19.034  0.00  0.00    +0.027 C 
ENDBRANCH   7  18
TORSDOF 3
ENDMDL
MODEL 8
REMARK VINA RESULT:      -6.3     26.192     28.277
REMARK  Name = 26745175
REMARK  5 active torsions:
REMARK  status: ('A' for Active; 'I' for Inactive)
REMARK    1  A    between atoms: N_7  and  C_18
REMARK    2  A    between atoms: C_10  and  C_15
REMARK    3  A    between atoms: C_18  and  C_20
REMARK    4  A    between atoms: C_18  and  C_21
REMARK    5  A    between atoms: C_19  and  C_22
REMARK                            x       y       z     vdW  Elec       q    Type
REMARK                         _______ _______ _______ _____ _____    ______ ____
ROOT
ATOM      3  O   UNL     1     -13.205  10.438  18.729  0.00  0.00    -0.253 OA
ATOM      4  N   UNL     1     -12.819   8.710  20.244  0.00  0.00    -0.268 N 
ATOM      5  N   UNL     1     -12.640   5.351  21.885  0.00  0.00    -0.347 N 
ATOM      6  N   UNL     1     -14.684   5.846  22.638  0.00  0.00    -0.240 NA
ATOM      7  N   UNL     1     -11.533   8.930  18.269  0.00  0.00    -0.297 N 
ATOM     10  C   UNL     1     -13.823   9.261  21.219  0.00  0.00    +0.172 C 
ATOM     11  C   UNL     1     -14.850   8.181  21.670  0.00  0.00    +0.089 C 
ATOM     12  C   UNL     1     -12.051   7.493  20.638  0.00  0.00    +0.165 C 
ATOM     13  C   UNL     1     -14.173   6.892  21.921  0.00  0.00    +0.066 A 
ATOM     14  C   UNL     1     -12.917   6.611  21.444  0.00  0.00    +0.056 A 
ATOM     16  C   UNL     1     -12.568   9.431  19.054  0.00  0.00    +0.303 C 
ATOM     17  C   UNL     1     -13.736   4.933  22.599  0.00  0.00    +0.197 A 
ATOM     28  H   UNL     1     -11.794   4.823  21.721  0.00  0.00    +0.167 HD
ATOM     29  H   UNL     1     -10.904   8.231  18.640  0.00  0.00    +0.150 HD
ENDROOT
BRANCH  10  15
ATOM      2  O   UNL     1     -12.300  11.046  21.944  0.00  0.00    -0.336 OA
ATOM      8  N   UNL     1     -13.183   9.865  23.630  0.00  0.00    -0.190 NA
ATOM      9  N   UNL     1     -11.776  11.597  23.121  0.00  0.00    -0.056 NA
ATOM     15  C   UNL     1     -13.118  10.035  22.334  0.00  0.00    +0.249 A 
ATOM     19  C   UNL     1     -12.343  10.847  24.071  0.00  0.00    +0.202 A 
BRANCH  19  22
ATOM      1  F   UNL     1     -11.375  11.646  29.491  0.00  0.00    -0.205 F 
ATOM     22  C   UNL     1     -12.093  11.053  25.468  0.00  0.00    +0.023 A 
ATOM     23  C   UNL     1     -12.948  11.862  26.217  0.00  0.00    +0.014 A 
ATOM     24  C   UNL     1     -10.996  10.445  26.077  0.00  0.00    +0.014 A 
ATOM     25  C   UNL     1     -12.706  12.062  27.576  0.00  0.00    +0.039 A 
ATOM     26  C   UNL     1     -10.753  10.646  27.437  0.00  0.00    +0.039 A 
ATOM     27  C   UNL     1     -11.608  11.454  28.186  0.00  0.00    +0.123 A 
ENDBRANCH  19  22
ENDBRANCH  10  15
BRANCH   7  18
ATOM     18  C   UNL     1     -11.136   9.554  17.027  0.00  0.00    +0.068 C 
ATOM     20  C   UNL     1     -10.049  10.592  17.274  0.00  0.00    +0.027 C 
ATOM     21  C   UNL     1     -10.677   8.500  16.028  0.00  0.00    +0.027 C 
ENDBRANCH   7  18
TORSDOF 3
ENDMDL
MODEL 9
REMARK VINA RESULT:      -6.3     19.774     20.671
REMARK  Name = 26745175
REMARK  5 active torsions:
REMARK  status: ('A' for Active; 'I' for Inactive)
REMARK    1  A    between atoms: N_7  and  C_18
REMARK    2  A    between atoms: C_10  and  C_15
REMARK    3  A    between atoms: C_18  and  C_20
REMARK    4  A    between atoms: C_18  and  C_21
REMARK    5  A    between atoms: C_19  and  C_22
REMARK                            x       y       z     vdW  Elec       q    Type
REMARK                         _______ _______ _______ _____ _____    ______ ____
ROOT
ATOM      3  O   UNL     1       8.680  -6.464  36.796  0.00  0.00    -0.253 OA
ATOM      4  N   UNL     1       8.003  -6.690  34.577  0.00  0.00    -0.268 N 
ATOM      5  N   UNL     1       6.149  -7.657  31.473  0.00  0.00    -0.347 N 
ATOM      6  N   UNL     1       7.518  -9.422  31.462  0.00  0.00    -0.240 NA
ATOM      7  N   UNL     1       6.765  -5.391  36.121  0.00  0.00    -0.297 N 
ATOM     10  C   UNL     1       9.244  -7.458  34.214  0.00  0.00    +0.172 C 
ATOM     11  C   UNL     1       8.910  -8.790  33.480  0.00  0.00    +0.089 C 
ATOM     12  C   UNL     1       7.028  -6.376  33.493  0.00  0.00    +0.165 C 
ATOM     13  C   UNL     1       7.826  -8.586  32.498  0.00  0.00    +0.066 A 
ATOM     14  C   UNL     1       6.997  -7.493  32.529  0.00  0.00    +0.056 A 
ATOM     16  C   UNL     1       7.873  -6.204  35.899  0.00  0.00    +0.303 C 
ATOM     17  C   UNL     1       6.503  -8.834  30.862  0.00  0.00    +0.197 A 
ATOM     28  H   UNL     1       5.403  -7.035  31.192  0.00  0.00    +0.167 HD
ATOM     29  H   UNL     1       6.229  -5.034  35.340  0.00  0.00    +0.150 HD
ENDROOT
BRANCH  10  15
ATOM      2  O   UNL     1      10.026  -5.207  33.619  0.00  0.00    -0.336 OA
ATOM      8  N   UNL     1      11.338  -6.856  32.857  0.00  0.00    -0.190 NA
ATOM      9  N   UNL     1      11.073  -4.584  32.926  0.00  0.00    -0.056 NA
ATOM     15  C   UNL     1      10.260  -6.542  33.530  0.00  0.00    +0.249 A 
ATOM     19  C   UNL     1      11.803  -5.621  32.507  0.00  0.00    +0.202 A 
BRANCH  19  22
ATOM      1  F   UNL     1      16.457  -4.993  29.523  0.00  0.00    -0.205 F 
ATOM     22  C   UNL     1      13.003  -5.459  31.738  0.00  0.00    +0.023 A 
ATOM     23  C   UNL     1      13.253  -6.298  30.651  0.00  0.00    +0.014 A 
ATOM     24  C   UNL     1      13.919  -4.463  32.076  0.00  0.00    +0.014 A 
ATOM     25  C   UNL     1      14.420  -6.140  29.903  0.00  0.00    +0.039 A 
ATOM     26  C   UNL     1      15.086  -4.306  31.328  0.00  0.00    +0.039 A 
ATOM     27  C   UNL     1      15.337  -5.144  30.242  0.00  0.00    +0.123 A 
ENDBRANCH  19  22
ENDBRANCH  10  15
BRANCH   7  18
ATOM     18  C   UNL     1       6.488  -4.799  37.411  0.00  0.00    +0.068 C 
ATOM     20  C   UNL     1       5.983  -3.371  37.246  0.00  0.00    +0.027 C 
ATOM     21  C   UNL     1       5.490  -5.653  38.181  0.00  0.00    +0.027 C 
ENDBRANCH   7  18
TORSDOF 3
ENDMDL
MODEL 10
REMARK VINA RESULT:      -6.1     28.169     29.684
REMARK  Name = 26745175
REMARK  5 active torsions:
REMARK  status: ('A' for Active; 'I' for Inactive)
REMARK    1  A    between atoms: N_7  and  C_18
REMARK    2  A    between atoms: C_10  and  C_15
REMARK    3  A    between atoms: C_18  and  C_20
REMARK    4  A    between atoms: C_18  and  C_21
REMARK    5  A    between atoms: C_19  and  C_22
REMARK                            x       y       z     vdW  Elec       q    Type
REMARK                         _______ _______ _______ _____ _____    ______ ____
ROOT
ATOM      3  O   UNL     1      -7.559 -12.449  16.827  0.00  0.00    -0.253 OA
ATOM      4  N   UNL     1      -8.348 -10.273  16.550  0.00  0.00    -0.268 N 
ATOM      5  N   UNL     1     -10.125  -7.015  17.027  0.00  0.00    -0.347 N 
ATOM      6  N   UNL     1     -11.774  -7.990  15.878  0.00  0.00    -0.240 NA
ATOM      7  N   UNL     1      -6.773 -10.812  18.234  0.00  0.00    -0.297 N 
ATOM     10  C   UNL     1      -9.121 -10.647  15.316  0.00  0.00    +0.172 C 
ATOM     11  C   UNL     1     -10.606 -10.185  15.397  0.00  0.00    +0.089 C 
ATOM     12  C   UNL     1      -8.353  -8.844  16.978  0.00  0.00    +0.165 C 
ATOM     13  C   UNL     1     -10.698  -8.827  15.971  0.00  0.00    +0.066 A 
ATOM     14  C   UNL     1      -9.670  -8.251  16.677  0.00  0.00    +0.056 A 
ATOM     16  C   UNL     1      -7.562 -11.266  17.181  0.00  0.00    +0.303 C 
ATOM     17  C   UNL     1     -11.398  -6.905  16.524  0.00  0.00    +0.197 A 
ATOM     28  H   UNL     1      -9.627  -6.312  17.556  0.00  0.00    +0.167 HD
ATOM     29  H   UNL     1      -6.642  -9.820  18.382  0.00  0.00    +0.150 HD
ENDROOT
BRANCH  10  15
ATOM      2  O   UNL     1      -9.099  -9.868  12.987  0.00  0.00    -0.336 OA
ATOM      8  N   UNL     1      -7.060 -10.200  13.853  0.00  0.00    -0.190 NA
ATOM      9  N   UNL     1      -8.188  -9.547  11.972  0.00  0.00    -0.056 NA
ATOM     15  C   UNL     1      -8.352 -10.241  14.058  0.00  0.00    +0.249 A 
ATOM     19  C   UNL     1      -7.008  -9.768  12.559  0.00  0.00    +0.202 A 
BRANCH  19  22
ATOM      1  F   UNL     1      -2.166  -8.982   9.934  0.00  0.00    -0.205 F 
ATOM     22  C   UNL     1      -5.760  -9.566  11.883  0.00  0.00    +0.023 A 
ATOM     23  C   UNL     1      -5.672  -8.637  10.845  0.00  0.00    +0.014 A 
ATOM     24  C   UNL     1      -4.634 -10.297  12.262  0.00  0.00    +0.014 A 
ATOM     25  C   UNL     1      -4.458  -8.440  10.188  0.00  0.00    +0.039 A 
ATOM     26  C   UNL     1      -3.420 -10.100  11.603  0.00  0.00    +0.039 A 
ATOM     27  C   UNL     1      -3.331  -9.172  10.566  0.00  0.00    +0.123 A 
ENDBRANCH  19  22
ENDBRANCH  10  15
BRANCH   7  18
ATOM     18  C   UNL     1      -5.900 -11.692  18.978  0.00  0.00    +0.068 C 
ATOM     20  C   UNL     1      -4.475 -11.604  18.447  0.00  0.00    +0.027 C 
ATOM     21  C   UNL     1      -5.957 -11.361  20.463  0.00  0.00    +0.027 C 
ENDBRANCH   7  18
TORSDOF 3
ENDMDL
