MODEL 1
REMARK VINA RESULT:      -7.1      0.000      0.000
REMARK  Name = 26742999
REMARK  9 active torsions:
REMARK  status: ('A' for Active; 'I' for Inactive)
REMARK    1  A    between atoms: N_6  and  C_14
REMARK    2  A    between atoms: C_9  and  C_12
REMARK    3  A    between atoms: C_10  and  C_16
REMARK    4  A    between atoms: C_12  and  C_21
REMARK    5  A    between atoms: C_16  and  C_22
REMARK    6  A    between atoms: C_28  and  C_30
REMARK    7  A    between atoms: C_30  and  C_33
REMARK    8  A    between atoms: C_33  and  C_34
REMARK    9  A    between atoms: C_34  and  C_35
REMARK                            x       y       z     vdW  Elec       q    Type
REMARK                         _______ _______ _______ _____ _____    ______ ____
ROOT
ATOM      1  O   UNL     1      17.183  12.469  18.466  0.00  0.00    -0.276 OA
ATOM      4  N   UNL     1      15.119  12.976  19.403  0.00  0.00    -0.301 N 
ATOM     14  C   UNL     1      13.271  12.277  21.521  0.00  0.00    +0.095 C 
ATOM     17  C   UNL     1      14.754  11.902  21.592  0.00  0.00    +0.044 C 
ATOM     18  C   UNL     1      12.813  12.400  20.063  0.00  0.00    +0.044 C 
ATOM     19  C   UNL     1      15.608  12.872  20.779  0.00  0.00    +0.110 C 
ATOM     20  C   UNL     1      13.707  13.361  19.281  0.00  0.00    +0.110 C 
ATOM     21  C   UNL     1      15.990  12.755  18.337  0.00  0.00    +0.216 C 
ENDROOT
BRANCH  14   6
ATOM      3  O   UNL     1      12.399  12.275  24.408  0.00  0.00    -0.247 OA
ATOM      6  N   UNL     1      12.468  11.315  22.233  0.00  0.00    -0.289 N 
ATOM      7  N   UNL     1      11.320  10.242  23.864  0.00  0.00    -0.306 N 
ATOM     23  C   UNL     1      11.921  10.150  21.682  0.00  0.00    +0.070 A 
ATOM     24  C   UNL     1      12.107  11.401  23.604  0.00  0.00    +0.328 A 
ATOM     25  C   UNL     1      11.216   9.495  22.690  0.00  0.00    +0.067 A 
ATOM     27  C   UNL     1      11.993   9.638  20.403  0.00  0.00    +0.028 A 
ATOM     29  C   UNL     1      10.553   8.306  22.476  0.00  0.00    +0.028 A 
ATOM     31  C   UNL     1      11.327   8.431  20.161  0.00  0.00    +0.002 A 
ATOM     32  C   UNL     1      10.616   7.774  21.187  0.00  0.00    +0.002 A 
ATOM     37  H   UNL     1      10.899   9.991  24.750  0.00  0.00    +0.170 HD
ENDBRANCH  14   6
BRANCH  21  12
ATOM     12  C   UNL     1      15.408  12.878  16.952  0.00  0.00    +0.100 C 
BRANCH  12   9
ATOM      5  N   UNL     1      14.606  11.829  13.415  0.00  0.00    -0.316 NA
ATOM      9  C   UNL     1      15.742  11.627  16.130  0.00  0.00    +0.004 C 
ATOM     10  C   UNL     1      14.501  10.819  15.681  0.00  0.00    +0.012 C 
ATOM     11  C   UNL     1      16.578  11.993  14.893  0.00  0.00    +0.019 C 
ATOM     13  C   UNL     1      13.736  11.533  14.554  0.00  0.00    +0.085 C 
ATOM     15  C   UNL     1      15.743  12.660  13.801  0.00  0.00    +0.081 C 
ATOM     36  H   UNL     1      14.067  12.308  12.695  0.00  0.00    +0.122 HD
BRANCH  10  16
ATOM     16  C   UNL     1      13.559  10.476  16.836  0.00  0.00    +0.064 C 
BRANCH  16  22
ATOM      2  O   UNL     1      13.896   7.021  17.790  0.00  0.00    -0.359 OA
ATOM      8  N   UNL     1      13.353   8.034  17.009  0.00  0.00    -0.083 NA
ATOM     22  C   UNL     1      13.916   9.158  17.460  0.00  0.00    +0.084 A 
ATOM     26  C   UNL     1      14.813   8.920  18.516  0.00  0.00    +0.071 A 
ATOM     28  C   UNL     1      14.764   7.561  18.684  0.00  0.00    +0.138 A 
BRANCH  28  30
ATOM     30  C   UNL     1      15.434   6.625  19.595  0.00  0.00    +0.077 C 
BRANCH  30  33
ATOM     33  C   UNL     1      16.724   6.019  19.000  0.00  0.00    +0.007 C 
BRANCH  33  34
ATOM     34  C   UNL     1      17.940   6.220  19.905  0.00  0.00    -0.003 C 
ATOM     35  C   UNL     1      17.592   7.052  21.128  0.00  0.00    +0.004 C 
ENDBRANCH  33  34
ENDBRANCH  30  33
ENDBRANCH  28  30
ENDBRANCH  16  22
ENDBRANCH  10  16
ENDBRANCH  12   9
ENDBRANCH  21  12
TORSDOF 8
ENDMDL
MODEL 2
REMARK VINA RESULT:      -7.0      2.679      6.241
REMARK  Name = 26742999
REMARK  9 active torsions:
REMARK  status: ('A' for Active; 'I' for Inactive)
REMARK    1  A    between atoms: N_6  and  C_14
REMARK    2  A    between atoms: C_9  and  C_12
REMARK    3  A    between atoms: C_10  and  C_16
REMARK    4  A    between atoms: C_12  and  C_21
REMARK    5  A    between atoms: C_16  and  C_22
REMARK    6  A    between atoms: C_28  and  C_30
REMARK    7  A    between atoms: C_30  and  C_33
REMARK    8  A    between atoms: C_33  and  C_34
REMARK    9  A    between atoms: C_34  and  C_35
REMARK                            x       y       z     vdW  Elec       q    Type
REMARK                         _______ _______ _______ _____ _____    ______ ____
ROOT
ATOM      1  O   UNL     1      13.689  13.951  20.160  0.00  0.00    -0.276 OA
ATOM      4  N   UNL     1      15.271  12.882  21.483  0.00  0.00    -0.301 N 
ATOM     14  C   UNL     1      17.339  10.854  21.488  0.00  0.00    +0.095 C 
ATOM     17  C   UNL     1      16.847  11.498  20.188  0.00  0.00    +0.044 C 
ATOM     18  C   UNL     1      16.239  10.883  22.555  0.00  0.00    +0.044 C 
ATOM     19  C   UNL     1      16.299  12.900  20.440  0.00  0.00    +0.110 C 
ATOM     20  C   UNL     1      15.703  12.299  22.760  0.00  0.00    +0.110 C 
ATOM     21  C   UNL     1      14.015  13.432  21.230  0.00  0.00    +0.216 C 
ENDROOT
BRANCH  14   6
ATOM      3  O   UNL     1      19.931   9.534  22.281  0.00  0.00    -0.247 OA
ATOM      6  N   UNL     1      17.789   9.505  21.250  0.00  0.00    -0.289 N 
ATOM      7  N   UNL     1      19.043   7.620  21.214  0.00  0.00    -0.306 N 
ATOM     23  C   UNL     1      17.064   8.517  20.572  0.00  0.00    +0.070 A 
ATOM     24  C   UNL     1      19.038   8.971  21.665  0.00  0.00    +0.328 A 
ATOM     25  C   UNL     1      17.841   7.360  20.554  0.00  0.00    +0.067 A 
ATOM     27  C   UNL     1      15.815   8.556  19.990  0.00  0.00    +0.028 A 
ATOM     29  C   UNL     1      17.415   6.193  19.959  0.00  0.00    +0.028 A 
ATOM     31  C   UNL     1      15.359   7.382  19.379  0.00  0.00    +0.002 A 
ATOM     32  C   UNL     1      16.151   6.215  19.364  0.00  0.00    +0.002 A 
ATOM     37  H   UNL     1      19.789   6.948  21.344  0.00  0.00    +0.170 HD
ENDBRANCH  14   6
BRANCH  21  12
ATOM     12  C   UNL     1      13.013  13.372  22.355  0.00  0.00    +0.100 C 
BRANCH  12   9
ATOM      5  N   UNL     1       9.777  12.436  24.060  0.00  0.00    -0.316 NA
ATOM      9  C   UNL     1      11.677  12.824  21.837  0.00  0.00    +0.004 C 
ATOM     10  C   UNL     1      11.313  11.426  22.391  0.00  0.00    +0.012 C 
ATOM     11  C   UNL     1      10.530  13.801  22.144  0.00  0.00    +0.019 C 
ATOM     13  C   UNL     1      10.880  11.494  23.865  0.00  0.00    +0.085 C 
ATOM     15  C   UNL     1      10.128  13.784  23.618  0.00  0.00    +0.081 C 
ATOM     36  H   UNL     1       9.525  12.461  25.048  0.00  0.00    +0.122 HD
BRANCH  10  16
ATOM     16  C   UNL     1      12.430  10.399  22.206  0.00  0.00    +0.064 C 
BRANCH  16  22
ATOM      2  O   UNL     1      11.537   7.708  19.986  0.00  0.00    -0.359 OA
ATOM      8  N   UNL     1      11.678   8.262  21.253  0.00  0.00    -0.083 NA
ATOM     22  C   UNL     1      12.153   9.493  21.041  0.00  0.00    +0.084 A 
ATOM     26  C   UNL     1      12.331   9.769  19.674  0.00  0.00    +0.071 A 
ATOM     28  C   UNL     1      11.929   8.615  19.054  0.00  0.00    +0.138 A 
BRANCH  28  30
ATOM     30  C   UNL     1      11.845   8.192  17.652  0.00  0.00    +0.077 C 
BRANCH  30  33
ATOM     33  C   UNL     1      12.314   9.281  16.661  0.00  0.00    +0.007 C 
BRANCH  33  34
ATOM     34  C   UNL     1      13.782   9.121  16.264  0.00  0.00    -0.003 C 
ATOM     35  C   UNL     1      14.631  10.263  16.797  0.00  0.00    +0.004 C 
ENDBRANCH  33  34
ENDBRANCH  30  33
ENDBRANCH  28  30
ENDBRANCH  16  22
ENDBRANCH  10  16
ENDBRANCH  12   9
ENDBRANCH  21  12
TORSDOF 8
ENDMDL
MODEL 3
REMARK VINA RESULT:      -6.4     27.781     30.463
REMARK  Name = 26742999
REMARK  9 active torsions:
REMARK  status: ('A' for Active; 'I' for Inactive)
REMARK    1  A    between atoms: N_6  and  C_14
REMARK    2  A    between atoms: C_9  and  C_12
REMARK    3  A    between atoms: C_10  and  C_16
REMARK    4  A    between atoms: C_12  and  C_21
REMARK    5  A    between atoms: C_16  and  C_22
REMARK    6  A    between atoms: C_28  and  C_30
REMARK    7  A    between atoms: C_30  and  C_33
REMARK    8  A    between atoms: C_33  and  C_34
REMARK    9  A    between atoms: C_34  and  C_35
REMARK                            x       y       z     vdW  Elec       q    Type
REMARK                         _______ _______ _______ _____ _____    ______ ____
ROOT
ATOM      1  O   UNL     1      -2.216 -10.311  15.141  0.00  0.00    -0.276 OA
ATOM      4  N   UNL     1      -3.111 -11.358  13.271  0.00  0.00    -0.301 N 
ATOM     14  C   UNL     1      -3.845 -10.974  10.496  0.00  0.00    +0.095 C 
ATOM     17  C   UNL     1      -2.861 -10.038  11.204  0.00  0.00    +0.044 C 
ATOM     18  C   UNL     1      -4.814 -11.603  11.503  0.00  0.00    +0.044 C 
ATOM     19  C   UNL     1      -2.148 -10.752  12.350  0.00  0.00    +0.110 C 
ATOM     20  C   UNL     1      -4.061 -12.286  12.643  0.00  0.00    +0.110 C 
ATOM     21  C   UNL     1      -3.048 -11.066  14.632  0.00  0.00    +0.216 C 
ENDROOT
BRANCH  14   6
ATOM      3  O   UNL     1      -5.160  -8.261  10.585  0.00  0.00    -0.247 OA
ATOM      6  N   UNL     1      -4.563 -10.270   9.462  0.00  0.00    -0.289 N 
ATOM      7  N   UNL     1      -5.745  -8.701   8.336  0.00  0.00    -0.306 N 
ATOM     23  C   UNL     1      -4.789 -10.747   8.165  0.00  0.00    +0.070 A 
ATOM     24  C   UNL     1      -5.152  -8.985   9.599  0.00  0.00    +0.328 A 
ATOM     25  C   UNL     1      -5.516  -9.777   7.478  0.00  0.00    +0.067 A 
ATOM     27  C   UNL     1      -4.416 -11.930   7.562  0.00  0.00    +0.028 A 
ATOM     29  C   UNL     1      -5.906  -9.936   6.166  0.00  0.00    +0.028 A 
ATOM     31  C   UNL     1      -4.800 -12.115   6.229  0.00  0.00    +0.002 A 
ATOM     32  C   UNL     1      -5.537 -11.128   5.540  0.00  0.00    +0.002 A 
ATOM     37  H   UNL     1      -6.250  -7.860   8.088  0.00  0.00    +0.170 HD
ENDBRANCH  14   6
BRANCH  21  12
ATOM     12  C   UNL     1      -4.078 -11.728  15.514  0.00  0.00    +0.100 C 
BRANCH  12   9
ATOM      5  N   UNL     1      -6.126 -12.236  18.644  0.00  0.00    -0.316 NA
ATOM      9  C   UNL     1      -4.399 -10.826  16.712  0.00  0.00    +0.004 C 
ATOM     10  C   UNL     1      -5.905 -10.509  16.875  0.00  0.00    +0.012 C 
ATOM     11  C   UNL     1      -3.872 -11.444  18.017  0.00  0.00    +0.019 C 
ATOM     13  C   UNL     1      -6.689 -11.725  17.393  0.00  0.00    +0.085 C 
ATOM     15  C   UNL     1      -4.725 -12.620  18.492  0.00  0.00    +0.081 C 
ATOM     36  H   UNL     1      -6.666 -13.045  18.951  0.00  0.00    +0.122 HD
BRANCH  10  16
ATOM     16  C   UNL     1      -6.543  -9.963  15.597  0.00  0.00    +0.064 C 
BRANCH  16  22
ATOM      2  O   UNL     1     -10.132  -9.677  15.515  0.00  0.00    -0.359 OA
ATOM      8  N   UNL     1      -8.929 -10.208  15.063  0.00  0.00    -0.083 NA
ATOM     22  C   UNL     1      -7.990  -9.622  15.811  0.00  0.00    +0.084 A 
ATOM     26  C   UNL     1      -8.534  -8.720  16.742  0.00  0.00    +0.071 A 
ATOM     28  C   UNL     1      -9.883  -8.793  16.515  0.00  0.00    +0.138 A 
BRANCH  28  30
ATOM     30  C   UNL     1     -11.051  -8.133  17.112  0.00  0.00    +0.077 C 
BRANCH  30  33
ATOM     33  C   UNL     1     -11.175  -6.646  16.714  0.00  0.00    +0.007 C 
BRANCH  33  34
ATOM     34  C   UNL     1     -12.362  -6.383  15.785  0.00  0.00    -0.003 C 
ATOM     35  C   UNL     1     -11.940  -5.610  14.547  0.00  0.00    +0.004 C 
ENDBRANCH  33  34
ENDBRANCH  30  33
ENDBRANCH  28  30
ENDBRANCH  16  22
ENDBRANCH  10  16
ENDBRANCH  12   9
ENDBRANCH  21  12
TORSDOF 8
ENDMDL
MODEL 4
REMARK VINA RESULT:      -6.1     23.021     26.854
REMARK  Name = 26742999
REMARK  9 active torsions:
REMARK  status: ('A' for Active; 'I' for Inactive)
REMARK    1  A    between atoms: N_6  and  C_14
REMARK    2  A    between atoms: C_9  and  C_12
REMARK    3  A    between atoms: C_10  and  C_16
REMARK    4  A    between atoms: C_12  and  C_21
REMARK    5  A    between atoms: C_16  and  C_22
REMARK    6  A    between atoms: C_28  and  C_30
REMARK    7  A    between atoms: C_30  and  C_33
REMARK    8  A    between atoms: C_33  and  C_34
REMARK    9  A    between atoms: C_34  and  C_35
REMARK                            x       y       z     vdW  Elec       q    Type
REMARK                         _______ _______ _______ _____ _____    ______ ____
ROOT
ATOM      1  O   UNL     1       8.710  -9.063  36.614  0.00  0.00    -0.276 OA
ATOM      4  N   UNL     1       6.428  -9.329  36.955  0.00  0.00    -0.301 N 
ATOM     14  C   UNL     1       4.239 -11.218  36.792  0.00  0.00    +0.095 C 
ATOM     17  C   UNL     1       5.698 -11.681  36.852  0.00  0.00    +0.044 C 
ATOM     18  C   UNL     1       4.141  -9.819  36.174  0.00  0.00    +0.044 C 
ATOM     19  C   UNL     1       6.575 -10.654  37.562  0.00  0.00    +0.110 C 
ATOM     20  C   UNL     1       5.049  -8.828  36.900  0.00  0.00    +0.110 C 
ATOM     21  C   UNL     1       7.557  -8.635  36.522  0.00  0.00    +0.216 C 
ENDROOT
BRANCH  14   6
ATOM      3  O   UNL     1       1.690 -12.605  37.612  0.00  0.00    -0.247 OA
ATOM      6  N   UNL     1       3.434 -12.163  36.058  0.00  0.00    -0.289 N 
ATOM      7  N   UNL     1       1.799 -13.618  35.478  0.00  0.00    -0.306 N 
ATOM     23  C   UNL     1       3.708 -12.628  34.766  0.00  0.00    +0.070 A 
ATOM     24  C   UNL     1       2.239 -12.767  36.532  0.00  0.00    +0.328 A 
ATOM     25  C   UNL     1       2.698 -13.523  34.416  0.00  0.00    +0.067 A 
ATOM     27  C   UNL     1       4.743 -12.335  33.903  0.00  0.00    +0.028 A 
ATOM     29  C   UNL     1       2.669 -14.165  33.197  0.00  0.00    +0.028 A 
ATOM     31  C   UNL     1       4.736 -12.975  32.658  0.00  0.00    +0.002 A 
ATOM     32  C   UNL     1       3.710 -13.879  32.311  0.00  0.00    +0.002 A 
ATOM     37  H   UNL     1       0.971 -14.200  35.485  0.00  0.00    +0.170 HD
ENDBRANCH  14   6
BRANCH  21  12
ATOM     12  C   UNL     1       7.322  -7.279  35.905  0.00  0.00    +0.100 C 
BRANCH  12   9
ATOM      5  N   UNL     1       8.254  -4.276  33.817  0.00  0.00    -0.316 NA
ATOM      9  C   UNL     1       8.228  -7.097  34.682  0.00  0.00    +0.004 C 
ATOM     10  C   UNL     1       7.486  -6.603  33.417  0.00  0.00    +0.012 C 
ATOM     11  C   UNL     1       9.382  -6.130  34.997  0.00  0.00    +0.019 C 
ATOM     13  C   UNL     1       7.093  -5.120  33.531  0.00  0.00    +0.085 C 
ATOM     15  C   UNL     1       8.924  -4.673  35.053  0.00  0.00    +0.081 C 
ATOM     36  H   UNL     1       7.954  -3.305  33.894  0.00  0.00    +0.122 HD
BRANCH  10  16
ATOM     16  C   UNL     1       6.266  -7.456  33.067  0.00  0.00    +0.064 C 
BRANCH  16  22
ATOM      2  O   UNL     1       6.860  -9.530  30.185  0.00  0.00    -0.359 OA
ATOM      8  N   UNL     1       6.438  -8.350  30.785  0.00  0.00    -0.083 NA
ATOM     22  C   UNL     1       6.620  -8.543  32.094  0.00  0.00    +0.084 A 
ATOM     26  C   UNL     1       7.147  -9.815  32.378  0.00  0.00    +0.071 A 
ATOM     28  C   UNL     1       7.281 -10.395  31.144  0.00  0.00    +0.138 A 
BRANCH  28  30
ATOM     30  C   UNL     1       7.764 -11.701  30.682  0.00  0.00    +0.077 C 
BRANCH  30  33
ATOM     33  C   UNL     1       6.772 -12.414  29.736  0.00  0.00    +0.007 C 
BRANCH  33  34
ATOM     34  C   UNL     1       7.475 -13.170  28.608  0.00  0.00    -0.003 C 
ATOM     35  C   UNL     1       8.412 -12.261  27.828  0.00  0.00    +0.004 C 
ENDBRANCH  33  34
ENDBRANCH  30  33
ENDBRANCH  28  30
ENDBRANCH  16  22
ENDBRANCH  10  16
ENDBRANCH  12   9
ENDBRANCH  21  12
TORSDOF 8
ENDMDL
MODEL 5
REMARK VINA RESULT:      -6.0     27.899     29.957
REMARK  Name = 26742999
REMARK  9 active torsions:
REMARK  status: ('A' for Active; 'I' for Inactive)
REMARK    1  A    between atoms: N_6  and  C_14
REMARK    2  A    between atoms: C_9  and  C_12
REMARK    3  A    between atoms: C_10  and  C_16
REMARK    4  A    between atoms: C_12  and  C_21
REMARK    5  A    between atoms: C_16  and  C_22
REMARK    6  A    between atoms: C_28  and  C_30
REMARK    7  A    between atoms: C_30  and  C_33
REMARK    8  A    between atoms: C_33  and  C_34
REMARK    9  A    between atoms: C_34  and  C_35
REMARK                            x       y       z     vdW  Elec       q    Type
REMARK                         _______ _______ _______ _____ _____    ______ ____
ROOT
ATOM      1  O   UNL     1      -4.036 -13.034  11.900  0.00  0.00    -0.276 OA
ATOM      4  N   UNL     1      -3.408 -11.915  13.836  0.00  0.00    -0.301 N 
ATOM     14  C   UNL     1      -3.872 -11.724  16.688  0.00  0.00    +0.095 C 
ATOM     17  C   UNL     1      -4.266 -12.972  15.891  0.00  0.00    +0.044 C 
ATOM     18  C   UNL     1      -3.879 -10.483  15.788  0.00  0.00    +0.044 C 
ATOM     19  C   UNL     1      -3.392 -13.132  14.650  0.00  0.00    +0.110 C 
ATOM     20  C   UNL     1      -3.011 -10.694  14.548  0.00  0.00    +0.110 C 
ATOM     21  C   UNL     1      -3.743 -11.989  12.485  0.00  0.00    +0.216 C 
ENDROOT
BRANCH  14   6
ATOM      3  O   UNL     1      -3.331 -12.173  19.621  0.00  0.00    -0.247 OA
ATOM      6  N   UNL     1      -4.749 -11.544  17.818  0.00  0.00    -0.289 N 
ATOM      7  N   UNL     1      -5.569 -11.474  19.928  0.00  0.00    -0.306 N 
ATOM     23  C   UNL     1      -6.077 -11.106  17.751  0.00  0.00    +0.070 A 
ATOM     24  C   UNL     1      -4.401 -11.783  19.175  0.00  0.00    +0.328 A 
ATOM     25  C   UNL     1      -6.575 -11.065  19.052  0.00  0.00    +0.067 A 
ATOM     27  C   UNL     1      -6.856 -10.752  16.670  0.00  0.00    +0.028 A 
ATOM     29  C   UNL     1      -7.865 -10.672  19.338  0.00  0.00    +0.028 A 
ATOM     31  C   UNL     1      -8.169 -10.349  16.934  0.00  0.00    +0.002 A 
ATOM     32  C   UNL     1      -8.667 -10.310  18.254  0.00  0.00    +0.002 A 
ATOM     37  H   UNL     1      -5.666 -11.535  20.934  0.00  0.00    +0.170 HD
ENDBRANCH  14   6
BRANCH  21  12
ATOM     12  C   UNL     1      -3.739 -10.691  11.716  0.00  0.00    +0.100 C 
BRANCH  12   9
ATOM      5  N   UNL     1      -4.992  -8.099   9.274  0.00  0.00    -0.316 NA
ATOM      9  C   UNL     1      -5.007 -10.587  10.860  0.00  0.00    +0.004 C 
ATOM     10  C   UNL     1      -5.900  -9.370  11.203  0.00  0.00    +0.012 C 
ATOM     11  C   UNL     1      -4.654 -10.544   9.364  0.00  0.00    +0.019 C 
ATOM     13  C   UNL     1      -5.280  -8.053  10.708  0.00  0.00    +0.085 C 
ATOM     15  C   UNL     1      -4.083  -9.192   8.937  0.00  0.00    +0.081 C 
ATOM     36  H   UNL     1      -4.575  -7.214   8.985  0.00  0.00    +0.122 HD
BRANCH  10  16
ATOM     16  C   UNL     1      -6.240  -9.277  12.691  0.00  0.00    +0.064 C 
BRANCH  16  22
ATOM      2  O   UNL     1      -9.389 -10.802  13.541  0.00  0.00    -0.359 OA
ATOM      8  N   UNL     1      -8.601  -9.702  13.223  0.00  0.00    -0.083 NA
ATOM     22  C   UNL     1      -7.371 -10.196  13.053  0.00  0.00    +0.084 A 
ATOM     26  C   UNL     1      -7.322 -11.587  13.250  0.00  0.00    +0.071 A 
ATOM     28  C   UNL     1      -8.616 -11.919  13.553  0.00  0.00    +0.138 A 
BRANCH  28  30
ATOM     30  C   UNL     1      -9.294 -13.181  13.874  0.00  0.00    +0.077 C 
BRANCH  30  33
ATOM     33  C   UNL     1      -9.351 -13.468  15.391  0.00  0.00    +0.007 C 
BRANCH  33  34
ATOM     34  C   UNL     1      -8.096 -14.176  15.903  0.00  0.00    -0.003 C 
ATOM     35  C   UNL     1      -8.074 -14.241  17.421  0.00  0.00    +0.004 C 
ENDBRANCH  33  34
ENDBRANCH  30  33
ENDBRANCH  28  30
ENDBRANCH  16  22
ENDBRANCH  10  16
ENDBRANCH  12   9
ENDBRANCH  21  12
TORSDOF 8
ENDMDL
MODEL 6
REMARK VINA RESULT:      -6.0     13.272     16.589
REMARK  Name = 26742999
REMARK  9 active torsions:
REMARK  status: ('A' for Active; 'I' for Inactive)
REMARK    1  A    between atoms: N_6  and  C_14
REMARK    2  A    between atoms: C_9  and  C_12
REMARK    3  A    between atoms: C_10  and  C_16
REMARK    4  A    between atoms: C_12  and  C_21
REMARK    5  A    between atoms: C_16  and  C_22
REMARK    6  A    between atoms: C_28  and  C_30
REMARK    7  A    between atoms: C_30  and  C_33
REMARK    8  A    between atoms: C_33  and  C_34
REMARK    9  A    between atoms: C_34  and  C_35
REMARK                            x       y       z     vdW  Elec       q    Type
REMARK                         _______ _______ _______ _____ _____    ______ ____
ROOT
ATOM      1  O   UNL     1      11.574  10.788   5.724  0.00  0.00    -0.276 OA
ATOM      4  N   UNL     1      13.355   9.472   6.423  0.00  0.00    -0.301 N 
ATOM     14  C   UNL     1      16.147   8.863   5.950  0.00  0.00    +0.095 C 
ATOM     17  C   UNL     1      15.516  10.172   5.466  0.00  0.00    +0.044 C 
ATOM     18  C   UNL     1      15.089   7.758   6.051  0.00  0.00    +0.044 C 
ATOM     19  C   UNL     1      14.325  10.566   6.335  0.00  0.00    +0.110 C 
ATOM     20  C   UNL     1      13.906   8.200   6.909  0.00  0.00    +0.110 C 
ATOM     21  C   UNL     1      12.019   9.700   6.095  0.00  0.00    +0.216 C 
ENDROOT
BRANCH  14   6
ATOM      3  O   UNL     1      16.091   8.203   3.008  0.00  0.00    -0.247 OA
ATOM      6  N   UNL     1      17.226   8.465   5.081  0.00  0.00    -0.289 N 
ATOM      7  N   UNL     1      18.412   7.830   3.260  0.00  0.00    -0.306 N 
ATOM     23  C   UNL     1      18.562   8.306   5.469  0.00  0.00    +0.070 A 
ATOM     24  C   UNL     1      17.101   8.173   3.697  0.00  0.00    +0.328 A 
ATOM     25  C   UNL     1      19.286   7.915   4.344  0.00  0.00    +0.067 A 
ATOM     27  C   UNL     1      19.170   8.473   6.696  0.00  0.00    +0.028 A 
ATOM     29  C   UNL     1      20.642   7.673   4.385  0.00  0.00    +0.028 A 
ATOM     31  C   UNL     1      20.547   8.233   6.762  0.00  0.00    +0.002 A 
ATOM     32  C   UNL     1      21.274   7.837   5.620  0.00  0.00    +0.002 A 
ATOM     37  H   UNL     1      18.680   7.566   2.320  0.00  0.00    +0.170 HD
ENDBRANCH  14   6
BRANCH  21  12
ATOM     12  C   UNL     1      11.085   8.521   6.208  0.00  0.00    +0.100 C 
BRANCH  12   9
ATOM      5  N   UNL     1       7.738   6.970   5.404  0.00  0.00    -0.316 NA
ATOM      9  C   UNL     1      10.297   8.351   4.903  0.00  0.00    +0.004 C 
ATOM     10  C   UNL     1      10.051   6.876   4.506  0.00  0.00    +0.012 C 
ATOM     11  C   UNL     1       8.947   9.083   4.981  0.00  0.00    +0.019 C 
ATOM     13  C   UNL     1       8.992   6.214   5.403  0.00  0.00    +0.085 C 
ATOM     15  C   UNL     1       7.934   8.346   5.856  0.00  0.00    +0.081 C 
ATOM     36  H   UNL     1       7.066   6.507   6.016  0.00  0.00    +0.122 HD
BRANCH  10  16
ATOM     16  C   UNL     1      11.331   6.040   4.480  0.00  0.00    +0.064 C 
BRANCH  16  22
ATOM      2  O   UNL     1      11.410   3.693   1.751  0.00  0.00    -0.359 OA
ATOM      8  N   UNL     1      11.139   4.037   3.070  0.00  0.00    -0.083 NA
ATOM     22  C   UNL     1      11.490   5.322   3.171  0.00  0.00    +0.084 A 
ATOM     26  C   UNL     1      11.986   5.838   1.961  0.00  0.00    +0.071 A 
ATOM     28  C   UNL     1      11.913   4.774   1.100  0.00  0.00    +0.138 A 
BRANCH  28  30
ATOM     30  C   UNL     1      12.257   4.586  -0.314  0.00  0.00    +0.077 C 
BRANCH  30  33
ATOM     33  C   UNL     1      13.353   3.520  -0.534  0.00  0.00    +0.007 C 
BRANCH  33  34
ATOM     34  C   UNL     1      14.739   4.005  -0.108  0.00  0.00    -0.003 C 
ATOM     35  C   UNL     1      15.064   3.583   1.315  0.00  0.00    +0.004 C 
ENDBRANCH  33  34
ENDBRANCH  30  33
ENDBRANCH  28  30
ENDBRANCH  16  22
ENDBRANCH  10  16
ENDBRANCH  12   9
ENDBRANCH  21  12
TORSDOF 8
ENDMDL
MODEL 7
REMARK VINA RESULT:      -6.0     23.648     27.347
REMARK  Name = 26742999
REMARK  9 active torsions:
REMARK  status: ('A' for Active; 'I' for Inactive)
REMARK    1  A    between atoms: N_6  and  C_14
REMARK    2  A    between atoms: C_9  and  C_12
REMARK    3  A    between atoms: C_10  and  C_16
REMARK    4  A    between atoms: C_12  and  C_21
REMARK    5  A    between atoms: C_16  and  C_22
REMARK    6  A    between atoms: C_28  and  C_30
REMARK    7  A    between atoms: C_30  and  C_33
REMARK    8  A    between atoms: C_33  and  C_34
REMARK    9  A    between atoms: C_34  and  C_35
REMARK                            x       y       z     vdW  Elec       q    Type
REMARK                         _______ _______ _______ _____ _____    ______ ____
ROOT
ATOM      1  O   UNL     1     -11.622   6.807  20.868  0.00  0.00    -0.276 OA
ATOM      4  N   UNL     1     -12.031   8.312  19.146  0.00  0.00    -0.301 N 
ATOM     14  C   UNL     1     -11.211  10.843  18.003  0.00  0.00    +0.095 C 
ATOM     17  C   UNL     1     -10.300  10.055  18.948  0.00  0.00    +0.044 C 
ATOM     18  C   UNL     1     -12.685  10.528  18.285  0.00  0.00    +0.044 C 
ATOM     19  C   UNL     1     -10.609   8.562  18.897  0.00  0.00    +0.110 C 
ATOM     20  C   UNL     1     -12.947   9.023  18.246  0.00  0.00    +0.110 C 
ATOM     21  C   UNL     1     -12.413   7.422  20.149  0.00  0.00    +0.216 C 
ENDROOT
BRANCH  14   6
ATOM      3  O   UNL     1     -12.660  12.927  19.631  0.00  0.00    -0.247 OA
ATOM      6  N   UNL     1     -10.958  12.258  18.111  0.00  0.00    -0.289 N 
ATOM      7  N   UNL     1     -11.096  14.439  18.704  0.00  0.00    -0.306 N 
ATOM     23  C   UNL     1      -9.941  12.952  17.444  0.00  0.00    +0.070 A 
ATOM     24  C   UNL     1     -11.701  13.167  18.911  0.00  0.00    +0.328 A 
ATOM     25  C   UNL     1     -10.032  14.293  17.813  0.00  0.00    +0.067 A 
ATOM     27  C   UNL     1      -8.974  12.510  16.567  0.00  0.00    +0.028 A 
ATOM     29  C   UNL     1      -9.170  15.253  17.330  0.00  0.00    +0.028 A 
ATOM     31  C   UNL     1      -8.086  13.466  16.062  0.00  0.00    +0.002 A 
ATOM     32  C   UNL     1      -8.184  14.822  16.439  0.00  0.00    +0.002 A 
ATOM     37  H   UNL     1     -11.381  15.313  19.127  0.00  0.00    +0.170 HD
ENDBRANCH  14   6
BRANCH  21  12
ATOM     12  C   UNL     1     -13.895   7.221  20.345  0.00  0.00    +0.100 C 
BRANCH  12   9
ATOM      5  N   UNL     1     -16.977   6.159  22.250  0.00  0.00    -0.316 NA
ATOM      9  C   UNL     1     -14.216   7.115  21.841  0.00  0.00    +0.004 C 
ATOM     10  C   UNL     1     -15.362   8.044  22.306  0.00  0.00    +0.012 C 
ATOM     11  C   UNL     1     -14.556   5.666  22.225  0.00  0.00    +0.019 C 
ATOM     13  C   UNL     1     -16.734   7.539  21.827  0.00  0.00    +0.085 C 
ATOM     15  C   UNL     1     -15.949   5.249  21.752  0.00  0.00    +0.081 C 
ATOM     36  H   UNL     1     -17.888   5.857  21.907  0.00  0.00    +0.122 HD
BRANCH  10  16
ATOM     16  C   UNL     1     -15.155   9.503  21.897  0.00  0.00    +0.064 C 
BRANCH  16  22
ATOM      2  O   UNL     1     -12.101  11.143  22.872  0.00  0.00    -0.359 OA
ATOM      8  N   UNL     1     -13.005  10.694  21.917  0.00  0.00    -0.083 NA
ATOM     22  C   UNL     1     -13.984  10.112  22.615  0.00  0.00    +0.084 A 
ATOM     26  C   UNL     1     -13.755  10.161  24.001  0.00  0.00    +0.071 A 
ATOM     28  C   UNL     1     -12.559  10.820  24.109  0.00  0.00    +0.138 A 
BRANCH  28  30
ATOM     30  C   UNL     1     -11.720  11.223  25.244  0.00  0.00    +0.077 C 
BRANCH  30  33
ATOM     33  C   UNL     1     -12.202  10.639  26.590  0.00  0.00    +0.007 C 
BRANCH  33  34
ATOM     34  C   UNL     1     -11.171   9.709  27.230  0.00  0.00    -0.003 C 
ATOM     35  C   UNL     1      -9.753  10.111  26.861  0.00  0.00    +0.004 C 
ENDBRANCH  33  34
ENDBRANCH  30  33
ENDBRANCH  28  30
ENDBRANCH  16  22
ENDBRANCH  10  16
ENDBRANCH  12   9
ENDBRANCH  21  12
TORSDOF 8
ENDMDL
MODEL 8
REMARK VINA RESULT:      -5.9      2.972      7.236
REMARK  Name = 26742999
REMARK  9 active torsions:
REMARK  status: ('A' for Active; 'I' for Inactive)
REMARK    1  A    between atoms: N_6  and  C_14
REMARK    2  A    between atoms: C_9  and  C_12
REMARK    3  A    between atoms: C_10  and  C_16
REMARK    4  A    between atoms: C_12  and  C_21
REMARK    5  A    between atoms: C_16  and  C_22
REMARK    6  A    between atoms: C_28  and  C_30
REMARK    7  A    between atoms: C_30  and  C_33
REMARK    8  A    between atoms: C_33  and  C_34
REMARK    9  A    between atoms: C_34  and  C_35
REMARK                            x       y       z     vdW  Elec       q    Type
REMARK                         _______ _______ _______ _____ _____    ______ ____
ROOT
ATOM      1  O   UNL     1      16.043  14.069  20.234  0.00  0.00    -0.276 OA
ATOM      4  N   UNL     1      16.460  11.793  20.437  0.00  0.00    -0.301 N 
ATOM     14  C   UNL     1      15.275   9.162  20.192  0.00  0.00    +0.095 C 
ATOM     17  C   UNL     1      14.658  10.388  19.512  0.00  0.00    +0.044 C 
ATOM     18  C   UNL     1      16.064   9.576  21.440  0.00  0.00    +0.044 C 
ATOM     19  C   UNL     1      15.716  11.450  19.223  0.00  0.00    +0.110 C 
ATOM     20  C   UNL     1      17.095  10.654  21.112  0.00  0.00    +0.110 C 
ATOM     21  C   UNL     1      16.554  13.125  20.840  0.00  0.00    +0.216 C 
ENDROOT
BRANCH  14   6
ATOM      3  O   UNL     1      15.203   6.196  19.656  0.00  0.00    -0.247 OA
ATOM      6  N   UNL     1      14.257   8.197  20.524  0.00  0.00    -0.289 N 
ATOM      7  N   UNL     1      13.101   6.262  20.737  0.00  0.00    -0.306 N 
ATOM     23  C   UNL     1      13.058   8.481  21.189  0.00  0.00    +0.070 A 
ATOM     24  C   UNL     1      14.312   6.809  20.228  0.00  0.00    +0.328 A 
ATOM     25  C   UNL     1      12.352   7.286  21.317  0.00  0.00    +0.067 A 
ATOM     27  C   UNL     1      12.556   9.670  21.674  0.00  0.00    +0.028 A 
ATOM     29  C   UNL     1      11.120   7.218  21.930  0.00  0.00    +0.028 A 
ATOM     31  C   UNL     1      11.306   9.626  22.302  0.00  0.00    +0.002 A 
ATOM     32  C   UNL     1      10.597   8.413  22.428  0.00  0.00    +0.002 A 
ATOM     37  H   UNL     1      12.818   5.291  20.694  0.00  0.00    +0.170 HD
ENDBRANCH  14   6
BRANCH  21  12
ATOM     12  C   UNL     1      17.335  13.395  22.102  0.00  0.00    +0.100 C 
BRANCH  12   9
ATOM      5  N   UNL     1      17.979  14.759  25.562  0.00  0.00    -0.316 NA
ATOM      9  C   UNL     1      16.495  14.242  23.065  0.00  0.00    +0.004 C 
ATOM     10  C   UNL     1      16.161  13.533  24.399  0.00  0.00    +0.012 C 
ATOM     11  C   UNL     1      17.193  15.578  23.368  0.00  0.00    +0.019 C 
ATOM     13  C   UNL     1      17.390  13.442  25.319  0.00  0.00    +0.085 C 
ATOM     15  C   UNL     1      18.379  15.415  24.319  0.00  0.00    +0.081 C 
ATOM     36  H   UNL     1      18.794  14.658  26.166  0.00  0.00    +0.122 HD
BRANCH  10  16
ATOM     16  C   UNL     1      15.535  12.152  24.202  0.00  0.00    +0.064 C 
BRANCH  16  22
ATOM      2  O   UNL     1      12.284  11.750  25.699  0.00  0.00    -0.359 OA
ATOM      8  N   UNL     1      13.661  11.559  25.678  0.00  0.00    -0.083 NA
ATOM     22  C   UNL     1      14.075  12.157  24.557  0.00  0.00    +0.084 A 
ATOM     26  C   UNL     1      13.016  12.736  23.837  0.00  0.00    +0.071 A 
ATOM     28  C   UNL     1      11.913  12.453  24.598  0.00  0.00    +0.138 A 
BRANCH  28  30
ATOM     30  C   UNL     1      10.481  12.746  24.461  0.00  0.00    +0.077 C 
BRANCH  30  33
ATOM     33  C   UNL     1      10.181  14.257  24.347  0.00  0.00    +0.007 C 
BRANCH  33  34
ATOM     34  C   UNL     1       9.480  14.621  23.037  0.00  0.00    -0.003 C 
ATOM     35  C   UNL     1      10.154  13.962  21.844  0.00  0.00    +0.004 C 
ENDBRANCH  33  34
ENDBRANCH  30  33
ENDBRANCH  28  30
ENDBRANCH  16  22
ENDBRANCH  10  16
ENDBRANCH  12   9
ENDBRANCH  21  12
TORSDOF 8
ENDMDL
MODEL 9
REMARK VINA RESULT:      -5.9      3.154      5.695
REMARK  Name = 26742999
REMARK  9 active torsions:
REMARK  status: ('A' for Active; 'I' for Inactive)
REMARK    1  A    between atoms: N_6  and  C_14
REMARK    2  A    between atoms: C_9  and  C_12
REMARK    3  A    between atoms: C_10  and  C_16
REMARK    4  A    between atoms: C_12  and  C_21
REMARK    5  A    between atoms: C_16  and  C_22
REMARK    6  A    between atoms: C_28  and  C_30
REMARK    7  A    between atoms: C_30  and  C_33
REMARK    8  A    between atoms: C_33  and  C_34
REMARK    9  A    between atoms: C_34  and  C_35
REMARK                            x       y       z     vdW  Elec       q    Type
REMARK                         _______ _______ _______ _____ _____    ______ ____
ROOT
ATOM      1  O   UNL     1      13.902  11.489  20.319  0.00  0.00    -0.276 OA
ATOM      4  N   UNL     1      12.523  11.727  22.172  0.00  0.00    -0.301 N 
ATOM     14  C   UNL     1      12.161  13.174  24.655  0.00  0.00    +0.095 C 
ATOM     17  C   UNL     1      13.058  13.710  23.535  0.00  0.00    +0.044 C 
ATOM     18  C   UNL     1      12.080  11.644  24.597  0.00  0.00    +0.044 C 
ATOM     19  C   UNL     1      12.611  13.188  22.172  0.00  0.00    +0.110 C 
ATOM     20  C   UNL     1      11.651  11.164  23.212  0.00  0.00    +0.110 C 
ATOM     21  C   UNL     1      13.206  10.990  21.206  0.00  0.00    +0.216 C 
ENDROOT
BRANCH  14   6
ATOM      3  O   UNL     1      11.057  15.315  26.469  0.00  0.00    -0.247 OA
ATOM      6  N   UNL     1      12.635  13.615  25.943  0.00  0.00    -0.289 N 
ATOM      7  N   UNL     1      12.843  14.729  27.904  0.00  0.00    -0.306 N 
ATOM     23  C   UNL     1      13.750  13.101  26.615  0.00  0.00    +0.070 A 
ATOM     24  C   UNL     1      12.043  14.640  26.729  0.00  0.00    +0.328 A 
ATOM     25  C   UNL     1      13.872  13.791  27.820  0.00  0.00    +0.067 A 
ATOM     27  C   UNL     1      14.637  12.107  26.260  0.00  0.00    +0.028 A 
ATOM     29  C   UNL     1      14.877  13.525  28.726  0.00  0.00    +0.028 A 
ATOM     31  C   UNL     1      15.667  11.818  27.164  0.00  0.00    +0.002 A 
ATOM     32  C   UNL     1      15.784  12.520  28.382  0.00  0.00    +0.002 A 
ATOM     37  H   UNL     1      12.699  15.363  28.680  0.00  0.00    +0.170 HD
ENDBRANCH  14   6
BRANCH  21  12
ATOM     12  C   UNL     1      13.066   9.490  21.276  0.00  0.00    +0.100 C 
BRANCH  12   9
ATOM      5  N   UNL     1      11.655   6.093  20.424  0.00  0.00    -0.316 NA
ATOM      9  C   UNL     1      12.079   9.005  20.208  0.00  0.00    +0.004 C 
ATOM     10  C   UNL     1      12.684   7.995  19.204  0.00  0.00    +0.012 C 
ATOM     11  C   UNL     1      10.833   8.382  20.858  0.00  0.00    +0.019 C 
ATOM     13  C   UNL     1      12.894   6.613  19.845  0.00  0.00    +0.085 C 
ATOM     15  C   UNL     1      11.108   6.994  21.436  0.00  0.00    +0.081 C 
ATOM     36  H   UNL     1      11.836   5.183  20.846  0.00  0.00    +0.122 HD
BRANCH  10  16
ATOM     16  C   UNL     1      13.979   8.492  18.561  0.00  0.00    +0.064 C 
BRANCH  16  22
ATOM      2  O   UNL     1      16.430   5.855  18.650  0.00  0.00    -0.359 OA
ATOM      8  N   UNL     1      15.300   6.468  18.119  0.00  0.00    -0.083 NA
ATOM     22  C   UNL     1      15.126   7.568  18.856  0.00  0.00    +0.084 A 
ATOM     26  C   UNL     1      16.103   7.701  19.858  0.00  0.00    +0.071 A 
ATOM     28  C   UNL     1      16.899   6.600  19.684  0.00  0.00    +0.138 A 
BRANCH  28  30
ATOM     30  C   UNL     1      18.097   6.095  20.365  0.00  0.00    +0.077 C 
BRANCH  30  33
ATOM     33  C   UNL     1      18.473   6.916  21.618  0.00  0.00    +0.007 C 
BRANCH  33  34
ATOM     34  C   UNL     1      19.484   8.023  21.315  0.00  0.00    -0.003 C 
ATOM     35  C   UNL     1      20.910   7.554  21.547  0.00  0.00    +0.004 C 
ENDBRANCH  33  34
ENDBRANCH  30  33
ENDBRANCH  28  30
ENDBRANCH  16  22
ENDBRANCH  10  16
ENDBRANCH  12   9
ENDBRANCH  21  12
TORSDOF 8
ENDMDL
MODEL 10
REMARK VINA RESULT:      -5.9     14.993     18.518
REMARK  Name = 26742999
REMARK  9 active torsions:
REMARK  status: ('A' for Active; 'I' for Inactive)
REMARK    1  A    between atoms: N_6  and  C_14
REMARK    2  A    between atoms: C_9  and  C_12
REMARK    3  A    between atoms: C_10  and  C_16
REMARK    4  A    between atoms: C_12  and  C_21
REMARK    5  A    between atoms: C_16  and  C_22
REMARK    6  A    between atoms: C_28  and  C_30
REMARK    7  A    between atoms: C_30  and  C_33
REMARK    8  A    between atoms: C_33  and  C_34
REMARK    9  A    between atoms: C_34  and  C_35
REMARK                            x       y       z     vdW  Elec       q    Type
REMARK                         _______ _______ _______ _____ _____    ______ ____
ROOT
ATOM      1  O   UNL     1      11.917   9.696   0.082  0.00  0.00    -0.276 OA
ATOM      4  N   UNL     1      10.338   9.121   1.686  0.00  0.00    -0.301 N 
ATOM     14  C   UNL     1       9.920   7.636   4.136  0.00  0.00    +0.095 C 
ATOM     17  C   UNL     1      11.320   8.054   3.679  0.00  0.00    +0.044 C 
ATOM     18  C   UNL     1       8.981   7.484   2.934  0.00  0.00    +0.044 C 
ATOM     19  C   UNL     1      11.265   9.304   2.804  0.00  0.00    +0.110 C 
ATOM     20  C   UNL     1       8.972   8.746   2.074  0.00  0.00    +0.110 C 
ATOM     21  C   UNL     1      10.773   9.344   0.380  0.00  0.00    +0.216 C 
ENDROOT
BRANCH  14   6
ATOM      3  O   UNL     1      10.659   4.851   3.247  0.00  0.00    -0.247 OA
ATOM      6  N   UNL     1       9.977   6.416   4.902  0.00  0.00    -0.289 N 
ATOM      7  N   UNL     1      10.254   4.249   5.498  0.00  0.00    -0.306 N 
ATOM     23  C   UNL     1       9.684   6.302   6.267  0.00  0.00    +0.070 A 
ATOM     24  C   UNL     1      10.340   5.141   4.392  0.00  0.00    +0.328 A 
ATOM     25  C   UNL     1       9.857   4.967   6.627  0.00  0.00    +0.067 A 
ATOM     27  C   UNL     1       9.290   7.251   7.186  0.00  0.00    +0.028 A 
ATOM     29  C   UNL     1       9.647   4.514   7.911  0.00  0.00    +0.028 A 
ATOM     31  C   UNL     1       9.071   6.816   8.498  0.00  0.00    +0.002 A 
ATOM     32  C   UNL     1       9.247   5.463   8.855  0.00  0.00    +0.002 A 
ATOM     37  H   UNL     1      10.449   3.256   5.482  0.00  0.00    +0.170 HD
ENDBRANCH  14   6
BRANCH  21  12
ATOM     12  C   UNL     1       9.759   9.131  -0.716  0.00  0.00    +0.100 C 
BRANCH  12   9
ATOM      5  N   UNL     1       8.634   8.390  -4.243  0.00  0.00    -0.316 NA
ATOM      9  C   UNL     1      10.397   8.359  -1.877  0.00  0.00    +0.004 C 
ATOM     10  C   UNL     1       9.586   7.123  -2.332  0.00  0.00    +0.012 C 
ATOM     11  C   UNL     1      10.626   9.282  -3.085  0.00  0.00    +0.019 C 
ATOM     13  C   UNL     1       8.319   7.527  -3.104  0.00  0.00    +0.085 C 
ATOM     15  C   UNL     1       9.329   9.606  -3.826  0.00  0.00    +0.081 C 
ATOM     36  H   UNL     1       7.771   8.644  -4.723  0.00  0.00    +0.122 HD
BRANCH  10  16
ATOM     16  C   UNL     1       9.235   6.180  -1.180  0.00  0.00    +0.064 C 
BRANCH  16  22
ATOM      2  O   UNL     1      11.168   3.157  -1.483  0.00  0.00    -0.359 OA
ATOM      8  N   UNL     1      10.102   3.976  -1.836  0.00  0.00    -0.083 NA
ATOM     22  C   UNL     1      10.230   5.061  -1.066  0.00  0.00    +0.084 A 
ATOM     26  C   UNL     1      11.345   4.983  -0.214  0.00  0.00    +0.071 A 
ATOM     28  C   UNL     1      11.901   3.768  -0.517  0.00  0.00    +0.138 A 
BRANCH  28  30
ATOM     30  C   UNL     1      13.074   3.037  -0.024  0.00  0.00    +0.077 C 
BRANCH  30  33
ATOM     33  C   UNL     1      13.385   3.323   1.463  0.00  0.00    +0.007 C 
BRANCH  33  34
ATOM     34  C   UNL     1      14.723   4.039   1.656  0.00  0.00    -0.003 C 
ATOM     35  C   UNL     1      15.576   3.974   0.400  0.00  0.00    +0.004 C 
ENDBRANCH  33  34
ENDBRANCH  30  33
ENDBRANCH  28  30
ENDBRANCH  16  22
ENDBRANCH  10  16
ENDBRANCH  12   9
ENDBRANCH  21  12
TORSDOF 8
ENDMDL
