MODEL 1
REMARK VINA RESULT:      -7.2      0.000      0.000
REMARK  Name = 45783975
REMARK  13 active torsions:
REMARK  status: ('A' for Active; 'I' for Inactive)
REMARK    1  A    between atoms: N_2  and  C_12
REMARK    2  A    between atoms: N_3  and  C_24
REMARK    3  A    between atoms: N_6  and  C_31
REMARK    4  A    between atoms: N_6  and  C_32
REMARK    5  A    between atoms: N_6  and  C_33
REMARK    6  A    between atoms: C_7  and  C_11
REMARK    7  A    between atoms: C_8  and  C_12
REMARK    8  A    between atoms: C_10  and  C_15
REMARK    9  A    between atoms: C_11  and  C_16
REMARK   10  A    between atoms: C_11  and  C_17
REMARK   11  A    between atoms: C_14  and  C_20
REMARK   12  A    between atoms: C_15  and  C_23
REMARK   13  A    between atoms: C_25  and  C_26
REMARK                            x       y       z     vdW  Elec       q    Type
REMARK                         _______ _______ _______ _____ _____    ______ ____
ROOT
ATOM      7  C   UNL     1      14.124  10.512  20.955  0.00  0.00    +0.000 C 
ATOM      8  C   UNL     1      12.732  10.580  20.284  0.00  0.00    +0.029 C 
ATOM      9  C   UNL     1      14.598   9.055  21.063  0.00  0.00    +0.012 C 
ATOM     10  C   UNL     1      14.648   8.327  19.702  0.00  0.00    +0.024 C 
ATOM     13  C   UNL     1      12.624   9.679  19.081  0.00  0.00    -0.023 C 
ATOM     14  C   UNL     1      13.476   8.676  18.798  0.00  0.00    -0.073 C 
ATOM     20  C   UNL     1      13.326   7.892  17.522  0.00  0.00    +0.039 C 
ENDROOT
BRANCH   7  11
ATOM     11  C   UNL     1      15.148  11.376  20.208  0.00  0.00    -0.013 C 
ATOM     16  C   UNL     1      16.492  11.352  20.930  0.00  0.00    +0.007 C 
ATOM     17  C   UNL     1      14.635  12.806  20.066  0.00  0.00    +0.007 C 
ENDBRANCH   7  11
BRANCH   8  12
ATOM     12  C   UNL     1      11.611  10.239  21.271  0.00  0.00    +0.092 C 
BRANCH  12   2
ATOM      2  N   UNL     1      11.668  11.113  22.440  0.00  0.00    -0.299 NA
ATOM      3  N   UNL     1      10.458  12.674  24.552  0.00  0.00    -0.303 NA
ATOM     18  C   UNL     1      11.047  10.469  23.605  0.00  0.00    +0.100 C 
ATOM     19  C   UNL     1      11.020  12.400  22.161  0.00  0.00    +0.100 C 
ATOM     21  C   UNL     1      11.106  11.387  24.831  0.00  0.00    +0.099 C 
ATOM     22  C   UNL     1      11.077  13.318  23.387  0.00  0.00    +0.099 C 
ATOM     24  C   UNL     1      10.517  13.549  25.721  0.00  0.00    +0.105 C 
ENDBRANCH  12   2
ENDBRANCH   8  12
BRANCH  10  15
ATOM     15  C   UNL     1      14.775   6.820  19.959  0.00  0.00    +0.105 C 
BRANCH  15  23
ATOM      1  O   UNL     1      17.080   6.489  20.688  0.00  0.00    -0.420 OA
ATOM      4  N   UNL     1      16.664   5.767  18.613  0.00  0.00    -0.112 NA
ATOM      5  N   UNL     1      17.995   5.518  18.892  0.00  0.00    -0.107 NA
ATOM     23  C   UNL     1      16.170   6.334  19.689  0.00  0.00    +0.218 A 
ATOM     25  C   UNL     1      18.194   5.957  20.113  0.00  0.00    +0.248 A 
BRANCH  25  26
ATOM     26  C   UNL     1      19.379   5.960  20.919  0.00  0.00    +0.039 A 
ATOM     27  C   UNL     1      19.430   6.732  22.080  0.00  0.00    +0.015 A 
ATOM     28  C   UNL     1      20.480   5.190  20.545  0.00  0.00    +0.015 A 
ATOM     29  C   UNL     1      20.583   6.735  22.866  0.00  0.00    +0.024 A 
ATOM     30  C   UNL     1      21.633   5.192  21.330  0.00  0.00    +0.024 A 
ATOM     31  C   UNL     1      21.684   5.964  22.490  0.00  0.00    +0.029 A 
BRANCH  31   6
ATOM      6  N   UNL     1      22.851   5.968  23.284  0.00  0.00    -0.336 N 
ATOM     32  C   UNL     1      24.091   5.425  22.767  0.00  0.00    +0.129 C 
ATOM     33  C   UNL     1      22.826   6.522  24.623  0.00  0.00    +0.129 C 
ENDBRANCH  31   6
ENDBRANCH  25  26
ENDBRANCH  15  23
ENDBRANCH  10  15
TORSDOF 7
ENDMDL
MODEL 2
REMARK VINA RESULT:      -7.1      1.349      2.391
REMARK  Name = 45783975
REMARK  13 active torsions:
REMARK  status: ('A' for Active; 'I' for Inactive)
REMARK    1  A    between atoms: N_2  and  C_12
REMARK    2  A    between atoms: N_3  and  C_24
REMARK    3  A    between atoms: N_6  and  C_31
REMARK    4  A    between atoms: N_6  and  C_32
REMARK    5  A    between atoms: N_6  and  C_33
REMARK    6  A    between atoms: C_7  and  C_11
REMARK    7  A    between atoms: C_8  and  C_12
REMARK    8  A    between atoms: C_10  and  C_15
REMARK    9  A    between atoms: C_11  and  C_16
REMARK   10  A    between atoms: C_11  and  C_17
REMARK   11  A    between atoms: C_14  and  C_20
REMARK   12  A    between atoms: C_15  and  C_23
REMARK   13  A    between atoms: C_25  and  C_26
REMARK                            x       y       z     vdW  Elec       q    Type
REMARK                         _______ _______ _______ _____ _____    ______ ____
ROOT
ATOM      7  C   UNL     1      13.838   9.382  18.104  0.00  0.00    +0.000 C 
ATOM      8  C   UNL     1      12.702   9.941  18.991  0.00  0.00    +0.029 C 
ATOM      9  C   UNL     1      14.751   8.456  18.921  0.00  0.00    +0.012 C 
ATOM     10  C   UNL     1      13.996   7.285  19.586  0.00  0.00    +0.024 C 
ATOM     13  C   UNL     1      12.083   8.887  19.873  0.00  0.00    -0.023 C 
ATOM     14  C   UNL     1      12.639   7.691  20.140  0.00  0.00    -0.073 C 
ATOM     20  C   UNL     1      11.894   6.676  20.965  0.00  0.00    +0.039 C 
ENDROOT
BRANCH   7  11
ATOM     11  C   UNL     1      13.282   8.665  16.868  0.00  0.00    -0.013 C 
ATOM     16  C   UNL     1      14.252   8.793  15.697  0.00  0.00    +0.007 C 
ATOM     17  C   UNL     1      11.912   9.224  16.499  0.00  0.00    +0.007 C 
ENDBRANCH   7  11
BRANCH   8  12
ATOM     12  C   UNL     1      13.183  11.106  19.861  0.00  0.00    +0.092 C 
BRANCH  12   2
ATOM      2  N   UNL     1      12.295  11.297  21.007  0.00  0.00    -0.299 NA
ATOM      3  N   UNL     1      11.527  12.567  23.488  0.00  0.00    -0.303 NA
ATOM     18  C   UNL     1      11.758  12.663  21.030  0.00  0.00    +0.100 C 
ATOM     19  C   UNL     1      12.995  11.001  22.263  0.00  0.00    +0.100 C 
ATOM     21  C   UNL     1      10.828  12.863  22.231  0.00  0.00    +0.099 C 
ATOM     22  C   UNL     1      12.066  11.202  23.466  0.00  0.00    +0.099 C 
ATOM     24  C   UNL     1      10.639  12.756  24.633  0.00  0.00    +0.105 C 
ENDBRANCH  12   2
ENDBRANCH   8  12
BRANCH  10  15
ATOM     15  C   UNL     1      14.908   6.653  20.645  0.00  0.00    +0.105 C 
BRANCH  15  23
ATOM      1  O   UNL     1      17.325   6.392  20.857  0.00  0.00    -0.420 OA
ATOM      4  N   UNL     1      16.509   5.774  18.869  0.00  0.00    -0.112 NA
ATOM      5  N   UNL     1      17.876   5.574  18.849  0.00  0.00    -0.107 NA
ATOM     23  C   UNL     1      16.232   6.251  20.059  0.00  0.00    +0.218 A 
ATOM     25  C   UNL     1      18.311   5.949  20.029  0.00  0.00    +0.248 A 
BRANCH  25  26
ATOM     26  C   UNL     1      19.638   5.962  20.572  0.00  0.00    +0.039 A 
ATOM     27  C   UNL     1      20.097   7.081  21.266  0.00  0.00    +0.015 A 
ATOM     28  C   UNL     1      20.471   4.855  20.406  0.00  0.00    +0.015 A 
ATOM     29  C   UNL     1      21.388   7.094  21.796  0.00  0.00    +0.024 A 
ATOM     30  C   UNL     1      21.761   4.866  20.935  0.00  0.00    +0.024 A 
ATOM     31  C   UNL     1      22.220   5.986  21.629  0.00  0.00    +0.029 A 
BRANCH  31   6
ATOM      6  N   UNL     1      23.526   5.999  22.162  0.00  0.00    -0.336 N 
ATOM     32  C   UNL     1      24.528   5.076  21.670  0.00  0.00    +0.129 C 
ATOM     33  C   UNL     1      23.884   6.941  23.204  0.00  0.00    +0.129 C 
ENDBRANCH  31   6
ENDBRANCH  25  26
ENDBRANCH  15  23
ENDBRANCH  10  15
TORSDOF 7
ENDMDL
MODEL 3
REMARK VINA RESULT:      -6.6     27.960     31.359
REMARK  Name = 45783975
REMARK  13 active torsions:
REMARK  status: ('A' for Active; 'I' for Inactive)
REMARK    1  A    between atoms: N_2  and  C_12
REMARK    2  A    between atoms: N_3  and  C_24
REMARK    3  A    between atoms: N_6  and  C_31
REMARK    4  A    between atoms: N_6  and  C_32
REMARK    5  A    between atoms: N_6  and  C_33
REMARK    6  A    between atoms: C_7  and  C_11
REMARK    7  A    between atoms: C_8  and  C_12
REMARK    8  A    between atoms: C_10  and  C_15
REMARK    9  A    between atoms: C_11  and  C_16
REMARK   10  A    between atoms: C_11  and  C_17
REMARK   11  A    between atoms: C_14  and  C_20
REMARK   12  A    between atoms: C_15  and  C_23
REMARK   13  A    between atoms: C_25  and  C_26
REMARK                            x       y       z     vdW  Elec       q    Type
REMARK                         _______ _______ _______ _____ _____    ______ ____
ROOT
ATOM      7  C   UNL     1      -3.934 -10.410  15.516  0.00  0.00    +0.000 C 
ATOM      8  C   UNL     1      -5.072 -11.202  14.833  0.00  0.00    +0.029 C 
ATOM      9  C   UNL     1      -4.121 -10.405  17.040  0.00  0.00    +0.012 C 
ATOM     10  C   UNL     1      -4.199 -11.821  17.650  0.00  0.00    +0.024 C 
ATOM     13  C   UNL     1      -5.384 -12.496  15.541  0.00  0.00    -0.023 C 
ATOM     14  C   UNL     1      -4.993 -12.795  16.793  0.00  0.00    -0.073 C 
ATOM     20  C   UNL     1      -5.284 -14.153  17.374  0.00  0.00    +0.039 C 
ENDROOT
BRANCH   7  11
ATOM     11  C   UNL     1      -2.556 -10.963  15.127  0.00  0.00    -0.013 C 
ATOM     16  C   UNL     1      -1.461 -10.285  15.946  0.00  0.00    +0.007 C 
ATOM     17  C   UNL     1      -2.309 -10.775  13.634  0.00  0.00    +0.007 C 
ENDBRANCH   7  11
BRANCH   8  12
ATOM     12  C   UNL     1      -6.353 -10.369  14.719  0.00  0.00    +0.092 C 
BRANCH  12   2
ATOM      2  N   UNL     1      -6.831 -10.342  13.339  0.00  0.00    -0.299 NA
ATOM      3  N   UNL     1      -7.865  -9.000  10.996  0.00  0.00    -0.303 NA
ATOM     18  C   UNL     1      -5.972  -9.493  12.504  0.00  0.00    +0.100 C 
ATOM     19  C   UNL     1      -8.223  -9.879  13.278  0.00  0.00    +0.100 C 
ATOM     21  C   UNL     1      -6.474  -9.464  11.057  0.00  0.00    +0.099 C 
ATOM     22  C   UNL     1      -8.726  -9.848  11.830  0.00  0.00    +0.099 C 
ATOM     24  C   UNL     1      -8.344  -8.975   9.615  0.00  0.00    +0.105 C 
ENDBRANCH  12   2
ENDBRANCH   8  12
BRANCH  10  15
ATOM     15  C   UNL     1      -4.739 -11.708  19.081  0.00  0.00    +0.105 C 
BRANCH  15  23
ATOM      1  O   UNL     1      -6.815 -10.615  18.407  0.00  0.00    -0.420 OA
ATOM      4  N   UNL     1      -7.107 -12.426  19.686  0.00  0.00    -0.112 NA
ATOM      5  N   UNL     1      -8.354 -11.914  19.382  0.00  0.00    -0.107 NA
ATOM     23  C   UNL     1      -6.239 -11.637  19.097  0.00  0.00    +0.218 A 
ATOM     25  C   UNL     1      -8.135 -10.857  18.634  0.00  0.00    +0.248 A 
BRANCH  25  26
ATOM     26  C   UNL     1      -9.054  -9.938  18.030  0.00  0.00    +0.039 A 
ATOM     27  C   UNL     1      -8.587  -8.965  17.146  0.00  0.00    +0.015 A 
ATOM     28  C   UNL     1     -10.415 -10.016  18.325  0.00  0.00    +0.015 A 
ATOM     29  C   UNL     1      -9.481  -8.070  16.557  0.00  0.00    +0.024 A 
ATOM     30  C   UNL     1     -11.310  -9.122  17.737  0.00  0.00    +0.024 A 
ATOM     31  C   UNL     1     -10.843  -8.149  16.853  0.00  0.00    +0.029 A 
BRANCH  31   6
ATOM      6  N   UNL     1     -11.747  -7.244  16.259  0.00  0.00    -0.336 N 
ATOM     32  C   UNL     1     -11.319  -5.905  15.907  0.00  0.00    +0.129 C 
ATOM     33  C   UNL     1     -13.113  -7.643  15.987  0.00  0.00    +0.129 C 
ENDBRANCH  31   6
ENDBRANCH  25  26
ENDBRANCH  15  23
ENDBRANCH  10  15
TORSDOF 7
ENDMDL
MODEL 4
REMARK VINA RESULT:      -6.5     27.683     31.005
REMARK  Name = 45783975
REMARK  13 active torsions:
REMARK  status: ('A' for Active; 'I' for Inactive)
REMARK    1  A    between atoms: N_2  and  C_12
REMARK    2  A    between atoms: N_3  and  C_24
REMARK    3  A    between atoms: N_6  and  C_31
REMARK    4  A    between atoms: N_6  and  C_32
REMARK    5  A    between atoms: N_6  and  C_33
REMARK    6  A    between atoms: C_7  and  C_11
REMARK    7  A    between atoms: C_8  and  C_12
REMARK    8  A    between atoms: C_10  and  C_15
REMARK    9  A    between atoms: C_11  and  C_16
REMARK   10  A    between atoms: C_11  and  C_17
REMARK   11  A    between atoms: C_14  and  C_20
REMARK   12  A    between atoms: C_15  and  C_23
REMARK   13  A    between atoms: C_25  and  C_26
REMARK                            x       y       z     vdW  Elec       q    Type
REMARK                         _______ _______ _______ _____ _____    ______ ____
ROOT
ATOM      7  C   UNL     1      -5.018 -12.360  15.604  0.00  0.00    +0.000 C 
ATOM      8  C   UNL     1      -4.638 -11.528  16.850  0.00  0.00    +0.029 C 
ATOM      9  C   UNL     1      -4.547 -11.656  14.324  0.00  0.00    +0.012 C 
ATOM     10  C   UNL     1      -3.030 -11.370  14.307  0.00  0.00    +0.024 C 
ATOM     13  C   UNL     1      -3.232 -10.988  16.781  0.00  0.00    -0.023 C 
ATOM     14  C   UNL     1      -2.494 -10.921  15.658  0.00  0.00    -0.073 C 
ATOM     20  C   UNL     1      -1.068 -10.445  15.716  0.00  0.00    +0.039 C 
ENDROOT
BRANCH   7  11
ATOM     11  C   UNL     1      -4.459 -13.786  15.692  0.00  0.00    -0.013 C 
ATOM     16  C   UNL     1      -4.852 -14.588  14.454  0.00  0.00    +0.007 C 
ATOM     17  C   UNL     1      -4.953 -14.474  16.961  0.00  0.00    +0.007 C 
ENDBRANCH   7  11
BRANCH   8  12
ATOM     12  C   UNL     1      -5.612 -10.366  17.075  0.00  0.00    +0.092 C 
BRANCH  12   2
ATOM      2  N   UNL     1      -6.875 -10.851  17.629  0.00  0.00    -0.299 NA
ATOM      3  N   UNL     1      -8.970 -10.883  19.621  0.00  0.00    -0.303 NA
ATOM     18  C   UNL     1      -7.857  -9.764  17.720  0.00  0.00    +0.100 C 
ATOM     19  C   UNL     1      -6.665 -11.463  18.947  0.00  0.00    +0.100 C 
ATOM     21  C   UNL     1      -9.180 -10.272  18.303  0.00  0.00    +0.099 C 
ATOM     22  C   UNL     1      -7.988 -11.970  19.531  0.00  0.00    +0.099 C 
ATOM     24  C   UNL     1     -10.233 -11.369  20.174  0.00  0.00    +0.105 C 
ENDBRANCH  12   2
ENDBRANCH   8  12
BRANCH  10  15
ATOM     15  C   UNL     1      -2.733 -10.367  13.185  0.00  0.00    +0.105 C 
BRANCH  15  23
ATOM      1  O   UNL     1      -4.020 -10.044  11.136  0.00  0.00    -0.420 OA
ATOM      4  N   UNL     1      -2.975 -12.018  11.260  0.00  0.00    -0.112 NA
ATOM      5  N   UNL     1      -3.658 -11.972  10.059  0.00  0.00    -0.107 NA
ATOM     23  C   UNL     1      -3.214 -10.873  11.855  0.00  0.00    +0.218 A 
ATOM     25  C   UNL     1      -4.254 -10.803  10.030  0.00  0.00    +0.248 A 
BRANCH  25  26
ATOM     26  C   UNL     1      -5.095 -10.212   9.031  0.00  0.00    +0.039 A 
ATOM     27  C   UNL     1      -6.007  -9.219   9.386  0.00  0.00    +0.015 A 
ATOM     28  C   UNL     1      -5.001 -10.630   7.703  0.00  0.00    +0.015 A 
ATOM     29  C   UNL     1      -6.826  -8.642   8.414  0.00  0.00    +0.024 A 
ATOM     30  C   UNL     1      -5.818 -10.054   6.730  0.00  0.00    +0.024 A 
ATOM     31  C   UNL     1      -6.731  -9.061   7.086  0.00  0.00    +0.029 A 
BRANCH  31   6
ATOM      6  N   UNL     1      -7.559  -8.480   6.103  0.00  0.00    -0.336 N 
ATOM     32  C   UNL     1      -7.562  -8.995   4.749  0.00  0.00    +0.129 C 
ATOM     33  C   UNL     1      -8.424  -7.366   6.437  0.00  0.00    +0.129 C 
ENDBRANCH  31   6
ENDBRANCH  25  26
ENDBRANCH  15  23
ENDBRANCH  10  15
TORSDOF 7
ENDMDL
MODEL 5
REMARK VINA RESULT:      -6.5     27.213     31.050
REMARK  Name = 45783975
REMARK  13 active torsions:
REMARK  status: ('A' for Active; 'I' for Inactive)
REMARK    1  A    between atoms: N_2  and  C_12
REMARK    2  A    between atoms: N_3  and  C_24
REMARK    3  A    between atoms: N_6  and  C_31
REMARK    4  A    between atoms: N_6  and  C_32
REMARK    5  A    between atoms: N_6  and  C_33
REMARK    6  A    between atoms: C_7  and  C_11
REMARK    7  A    between atoms: C_8  and  C_12
REMARK    8  A    between atoms: C_10  and  C_15
REMARK    9  A    between atoms: C_11  and  C_16
REMARK   10  A    between atoms: C_11  and  C_17
REMARK   11  A    between atoms: C_14  and  C_20
REMARK   12  A    between atoms: C_15  and  C_23
REMARK   13  A    between atoms: C_25  and  C_26
REMARK                            x       y       z     vdW  Elec       q    Type
REMARK                         _______ _______ _______ _____ _____    ______ ____
ROOT
ATOM      7  C   UNL     1     -13.593  10.302  21.740  0.00  0.00    +0.000 C 
ATOM      8  C   UNL     1     -12.188  10.218  21.098  0.00  0.00    +0.029 C 
ATOM      9  C   UNL     1     -14.534   9.266  21.109  0.00  0.00    +0.012 C 
ATOM     10  C   UNL     1     -14.008   7.818  21.214  0.00  0.00    +0.024 C 
ATOM     13  C   UNL     1     -11.713   8.798  20.927  0.00  0.00    -0.023 C 
ATOM     14  C   UNL     1     -12.507   7.713  20.987  0.00  0.00    -0.073 C 
ATOM     20  C   UNL     1     -11.914   6.333  20.888  0.00  0.00    +0.039 C 
ENDROOT
BRANCH   7  11
ATOM     11  C   UNL     1     -13.522  10.134  23.264  0.00  0.00    -0.013 C 
ATOM     16  C   UNL     1     -14.877  10.442  23.895  0.00  0.00    +0.007 C 
ATOM     17  C   UNL     1     -12.436  11.031  23.848  0.00  0.00    +0.007 C 
ENDBRANCH   7  11
BRANCH   8  12
ATOM     12  C   UNL     1     -12.141  10.932  19.743  0.00  0.00    +0.092 C 
BRANCH  12   2
ATOM      2  N   UNL     1     -11.702  10.016  18.692  0.00  0.00    -0.299 NA
ATOM      3  N   UNL     1     -11.158   9.328  15.937  0.00  0.00    -0.303 NA
ATOM     18  C   UNL     1     -10.529  10.552  17.990  0.00  0.00    +0.100 C 
ATOM     19  C   UNL     1     -12.790   9.751  17.743  0.00  0.00    +0.100 C 
ATOM     21  C   UNL     1     -10.070   9.593  16.887  0.00  0.00    +0.099 C 
ATOM     22  C   UNL     1     -12.332   8.793  16.638  0.00  0.00    +0.099 C 
ATOM     24  C   UNL     1     -10.719   8.411  14.887  0.00  0.00    +0.105 C 
ENDBRANCH  12   2
ENDBRANCH   8  12
BRANCH  10  15
ATOM     15  C   UNL     1     -14.818   6.933  20.258  0.00  0.00    +0.105 C 
BRANCH  15  23
ATOM      1  O   UNL     1     -15.494   5.899  22.363  0.00  0.00    -0.420 OA
ATOM      4  N   UNL     1     -16.431   4.983  20.551  0.00  0.00    -0.112 NA
ATOM      5  N   UNL     1     -16.899   4.305  21.661  0.00  0.00    -0.107 NA
ATOM     23  C   UNL     1     -15.615   5.903  21.008  0.00  0.00    +0.218 A 
ATOM     25  C   UNL     1     -16.326   4.873  22.696  0.00  0.00    +0.248 A 
BRANCH  25  26
ATOM     26  C   UNL     1     -16.439   4.587  24.096  0.00  0.00    +0.039 A 
ATOM     27  C   UNL     1     -17.164   5.442  24.926  0.00  0.00    +0.015 A 
ATOM     28  C   UNL     1     -15.825   3.453  24.629  0.00  0.00    +0.015 A 
ATOM     29  C   UNL     1     -17.275   5.164  26.289  0.00  0.00    +0.024 A 
ATOM     30  C   UNL     1     -15.936   3.174  25.991  0.00  0.00    +0.024 A 
ATOM     31  C   UNL     1     -16.661   4.029  26.821  0.00  0.00    +0.029 A 
BRANCH  31   6
ATOM      6  N   UNL     1     -16.772   3.748  28.198  0.00  0.00    -0.336 N 
ATOM     32  C   UNL     1     -15.585   3.529  29.000  0.00  0.00    +0.129 C 
ATOM     33  C   UNL     1     -18.073   3.683  28.832  0.00  0.00    +0.129 C 
ENDBRANCH  31   6
ENDBRANCH  25  26
ENDBRANCH  15  23
ENDBRANCH  10  15
TORSDOF 7
ENDMDL
MODEL 6
REMARK VINA RESULT:      -6.5     27.467     30.989
REMARK  Name = 45783975
REMARK  13 active torsions:
REMARK  status: ('A' for Active; 'I' for Inactive)
REMARK    1  A    between atoms: N_2  and  C_12
REMARK    2  A    between atoms: N_3  and  C_24
REMARK    3  A    between atoms: N_6  and  C_31
REMARK    4  A    between atoms: N_6  and  C_32
REMARK    5  A    between atoms: N_6  and  C_33
REMARK    6  A    between atoms: C_7  and  C_11
REMARK    7  A    between atoms: C_8  and  C_12
REMARK    8  A    between atoms: C_10  and  C_15
REMARK    9  A    between atoms: C_11  and  C_16
REMARK   10  A    between atoms: C_11  and  C_17
REMARK   11  A    between atoms: C_14  and  C_20
REMARK   12  A    between atoms: C_15  and  C_23
REMARK   13  A    between atoms: C_25  and  C_26
REMARK                            x       y       z     vdW  Elec       q    Type
REMARK                         _______ _______ _______ _____ _____    ______ ____
ROOT
ATOM      7  C   UNL     1      -5.375 -10.580  10.945  0.00  0.00    +0.000 C 
ATOM      8  C   UNL     1      -4.650 -10.350   9.599  0.00  0.00    +0.029 C 
ATOM      9  C   UNL     1      -4.404 -11.152  11.988  0.00  0.00    +0.012 C 
ATOM     10  C   UNL     1      -3.162 -10.263  12.218  0.00  0.00    +0.024 C 
ATOM     13  C   UNL     1      -3.295  -9.713   9.771  0.00  0.00    -0.023 C 
ATOM     14  C   UNL     1      -2.620  -9.653  10.935  0.00  0.00    -0.073 C 
ATOM     20  C   UNL     1      -1.311  -8.916  11.014  0.00  0.00    +0.039 C 
ENDROOT
BRANCH   7  11
ATOM     11  C   UNL     1      -6.037  -9.292  11.451  0.00  0.00    -0.013 C 
ATOM     16  C   UNL     1      -6.752  -9.546  12.775  0.00  0.00    +0.007 C 
ATOM     17  C   UNL     1      -7.009  -8.748  10.408  0.00  0.00    +0.007 C 
ENDBRANCH   7  11
BRANCH   8  12
ATOM     12  C   UNL     1      -4.496 -11.654   8.809  0.00  0.00    +0.092 C 
BRANCH  12   2
ATOM      2  N   UNL     1      -4.728 -11.425   7.384  0.00  0.00    -0.299 NA
ATOM      3  N   UNL     1      -5.982 -12.026   4.849  0.00  0.00    -0.303 NA
ATOM     18  C   UNL     1      -6.136 -11.092   7.131  0.00  0.00    +0.100 C 
ATOM     19  C   UNL     1      -4.331 -12.598   6.596  0.00  0.00    +0.100 C 
ATOM     21  C   UNL     1      -6.379 -10.853   5.638  0.00  0.00    +0.099 C 
ATOM     22  C   UNL     1      -4.576 -12.362   5.102  0.00  0.00    +0.099 C 
ATOM     24  C   UNL     1      -6.213 -11.796   3.424  0.00  0.00    +0.105 C 
ENDBRANCH  12   2
ENDBRANCH   8  12
BRANCH  10  15
ATOM     15  C   UNL     1      -2.111 -11.080  12.981  0.00  0.00    +0.105 C 
BRANCH  15  23
ATOM      1  O   UNL     1      -3.597 -11.246  14.909  0.00  0.00    -0.420 OA
ATOM      4  N   UNL     1      -1.477 -10.753  15.426  0.00  0.00    -0.112 NA
ATOM      5  N   UNL     1      -2.200 -10.815  16.603  0.00  0.00    -0.107 NA
ATOM     23  C   UNL     1      -2.332 -11.011  14.464  0.00  0.00    +0.218 A 
ATOM     25  C   UNL     1      -3.431 -11.105  16.254  0.00  0.00    +0.248 A 
BRANCH  25  26
ATOM     26  C   UNL     1      -4.606 -11.293  17.053  0.00  0.00    +0.039 A 
ATOM     27  C   UNL     1      -5.869 -11.112  16.490  0.00  0.00    +0.015 A 
ATOM     28  C   UNL     1      -4.486 -11.660  18.394  0.00  0.00    +0.015 A 
ATOM     29  C   UNL     1      -7.013 -11.296  17.268  0.00  0.00    +0.024 A 
ATOM     30  C   UNL     1      -5.628 -11.844  19.172  0.00  0.00    +0.024 A 
ATOM     31  C   UNL     1      -6.892 -11.663  18.609  0.00  0.00    +0.029 A 
BRANCH  31   6
ATOM      6  N   UNL     1      -8.048 -11.848  19.396  0.00  0.00    -0.336 N 
ATOM     32  C   UNL     1      -8.218 -13.057  20.177  0.00  0.00    +0.129 C 
ATOM     33  C   UNL     1      -9.077 -10.828  19.440  0.00  0.00    +0.129 C 
ENDBRANCH  31   6
ENDBRANCH  25  26
ENDBRANCH  15  23
ENDBRANCH  10  15
TORSDOF 7
ENDMDL
MODEL 7
REMARK VINA RESULT:      -6.4     28.135     30.673
REMARK  Name = 45783975
REMARK  13 active torsions:
REMARK  status: ('A' for Active; 'I' for Inactive)
REMARK    1  A    between atoms: N_2  and  C_12
REMARK    2  A    between atoms: N_3  and  C_24
REMARK    3  A    between atoms: N_6  and  C_31
REMARK    4  A    between atoms: N_6  and  C_32
REMARK    5  A    between atoms: N_6  and  C_33
REMARK    6  A    between atoms: C_7  and  C_11
REMARK    7  A    between atoms: C_8  and  C_12
REMARK    8  A    between atoms: C_10  and  C_15
REMARK    9  A    between atoms: C_11  and  C_16
REMARK   10  A    between atoms: C_11  and  C_17
REMARK   11  A    between atoms: C_14  and  C_20
REMARK   12  A    between atoms: C_15  and  C_23
REMARK   13  A    between atoms: C_25  and  C_26
REMARK                            x       y       z     vdW  Elec       q    Type
REMARK                         _______ _______ _______ _____ _____    ______ ____
ROOT
ATOM      7  C   UNL     1      -6.986 -11.906  16.825  0.00  0.00    +0.000 C 
ATOM      8  C   UNL     1      -7.157 -11.676  18.345  0.00  0.00    +0.029 C 
ATOM      9  C   UNL     1      -5.699 -11.238  16.321  0.00  0.00    +0.012 C 
ATOM     10  C   UNL     1      -4.431 -11.720  17.059  0.00  0.00    +0.024 C 
ATOM     13  C   UNL     1      -5.874 -11.877  19.110  0.00  0.00    -0.023 C 
ATOM     14  C   UNL     1      -4.649 -11.912  18.552  0.00  0.00    -0.073 C 
ATOM     20  C   UNL     1      -3.440 -12.207  19.398  0.00  0.00    +0.039 C 
ENDROOT
BRANCH   7  11
ATOM     11  C   UNL     1      -7.008 -13.402  16.481  0.00  0.00    -0.013 C 
ATOM     16  C   UNL     1      -6.936 -13.600  14.970  0.00  0.00    +0.007 C 
ATOM     17  C   UNL     1      -8.257 -14.062  17.054  0.00  0.00    +0.007 C 
ENDBRANCH   7  11
BRANCH   8  12
ATOM     12  C   UNL     1      -7.709 -10.279  18.647  0.00  0.00    +0.092 C 
BRANCH  12   2
ATOM      2  N   UNL     1      -8.882  -9.997  17.822  0.00  0.00    -0.299 NA
ATOM      3  N   UNL     1     -11.201  -8.435  17.090  0.00  0.00    -0.303 NA
ATOM     18  C   UNL     1      -8.746  -8.702  17.145  0.00  0.00    +0.100 C 
ATOM     19  C   UNL     1     -10.107 -10.026  18.630  0.00  0.00    +0.100 C 
ATOM     21  C   UNL     1      -9.976  -8.406  16.281  0.00  0.00    +0.099 C 
ATOM     22  C   UNL     1     -11.338  -9.729  17.768  0.00  0.00    +0.099 C 
ATOM     24  C   UNL     1     -12.375  -8.155  16.264  0.00  0.00    +0.105 C 
ENDBRANCH  12   2
ENDBRANCH   8  12
BRANCH  10  15
ATOM     15  C   UNL     1      -3.284 -10.751  16.744  0.00  0.00    +0.105 C 
BRANCH  15  23
ATOM      1  O   UNL     1      -3.799 -10.442  14.378  0.00  0.00    -0.420 OA
ATOM      4  N   UNL     1      -1.745 -11.235  14.772  0.00  0.00    -0.112 NA
ATOM      5  N   UNL     1      -1.899 -11.110  13.404  0.00  0.00    -0.107 NA
ATOM     23  C   UNL     1      -2.878 -10.834  15.300  0.00  0.00    +0.218 A 
ATOM     25  C   UNL     1      -3.112 -10.645  13.220  0.00  0.00    +0.248 A 
BRANCH  25  26
ATOM     26  C   UNL     1      -3.812 -10.322  12.012  0.00  0.00    +0.039 A 
ATOM     27  C   UNL     1      -3.104  -9.881  10.893  0.00  0.00    +0.015 A 
ATOM     28  C   UNL     1      -5.200 -10.448  11.953  0.00  0.00    +0.015 A 
ATOM     29  C   UNL     1      -3.784  -9.567   9.716  0.00  0.00    +0.024 A 
ATOM     30  C   UNL     1      -5.881 -10.135  10.777  0.00  0.00    +0.024 A 
ATOM     31  C   UNL     1      -5.173  -9.694   9.659  0.00  0.00    +0.029 A 
BRANCH  31   6
ATOM      6  N   UNL     1      -5.861  -9.375   8.469  0.00  0.00    -0.336 N 
ATOM     32  C   UNL     1      -6.975  -8.448   8.492  0.00  0.00    +0.129 C 
ATOM     33  C   UNL     1      -5.459  -9.964   7.208  0.00  0.00    +0.129 C 
ENDBRANCH  31   6
ENDBRANCH  25  26
ENDBRANCH  15  23
ENDBRANCH  10  15
TORSDOF 7
ENDMDL
MODEL 8
REMARK VINA RESULT:      -6.4     28.613     31.969
REMARK  Name = 45783975
REMARK  13 active torsions:
REMARK  status: ('A' for Active; 'I' for Inactive)
REMARK    1  A    between atoms: N_2  and  C_12
REMARK    2  A    between atoms: N_3  and  C_24
REMARK    3  A    between atoms: N_6  and  C_31
REMARK    4  A    between atoms: N_6  and  C_32
REMARK    5  A    between atoms: N_6  and  C_33
REMARK    6  A    between atoms: C_7  and  C_11
REMARK    7  A    between atoms: C_8  and  C_12
REMARK    8  A    between atoms: C_10  and  C_15
REMARK    9  A    between atoms: C_11  and  C_16
REMARK   10  A    between atoms: C_11  and  C_17
REMARK   11  A    between atoms: C_14  and  C_20
REMARK   12  A    between atoms: C_15  and  C_23
REMARK   13  A    between atoms: C_25  and  C_26
REMARK                            x       y       z     vdW  Elec       q    Type
REMARK                         _______ _______ _______ _____ _____    ______ ____
ROOT
ATOM      7  C   UNL     1     -14.078   7.099  21.695  0.00  0.00    +0.000 C 
ATOM      8  C   UNL     1     -14.586   7.965  20.519  0.00  0.00    +0.029 C 
ATOM      9  C   UNL     1     -15.244   6.339  22.344  0.00  0.00    +0.012 C 
ATOM     10  C   UNL     1     -16.023   5.451  21.351  0.00  0.00    +0.024 C 
ATOM     13  C   UNL     1     -15.569   7.233  19.641  0.00  0.00    -0.023 C 
ATOM     14  C   UNL     1     -16.212   6.103  19.990  0.00  0.00    -0.073 C 
ATOM     20  C   UNL     1     -17.108   5.406  19.003  0.00  0.00    +0.039 C 
ENDROOT
BRANCH   7  11
ATOM     11  C   UNL     1     -12.971   6.137  21.243  0.00  0.00    -0.013 C 
ATOM     16  C   UNL     1     -12.670   5.120  22.341  0.00  0.00    +0.007 C 
ATOM     17  C   UNL     1     -11.713   6.913  20.866  0.00  0.00    +0.007 C 
ENDBRANCH   7  11
BRANCH   8  12
ATOM     12  C   UNL     1     -15.223   9.269  21.010  0.00  0.00    +0.092 C 
BRANCH  12   2
ATOM      2  N   UNL     1     -14.427   9.860  22.083  0.00  0.00    -0.299 NA
ATOM      3  N   UNL     1     -13.354  12.102  23.561  0.00  0.00    -0.303 NA
ATOM     18  C   UNL     1     -15.272  10.655  22.984  0.00  0.00    +0.100 C 
ATOM     19  C   UNL     1     -13.344  10.687  21.536  0.00  0.00    +0.100 C 
ATOM     21  C   UNL     1     -14.437  11.276  24.109  0.00  0.00    +0.099 C 
ATOM     22  C   UNL     1     -12.509  11.310  22.660  0.00  0.00    +0.099 C 
ATOM     24  C   UNL     1     -12.557  12.692  24.635  0.00  0.00    +0.105 C 
ENDBRANCH  12   2
ENDBRANCH   8  12
BRANCH  10  15
ATOM     15  C   UNL     1     -17.349   5.036  22.002  0.00  0.00    +0.105 C 
BRANCH  15  23
ATOM      1  O   UNL     1     -16.935   3.909  24.127  0.00  0.00    -0.420 OA
ATOM      4  N   UNL     1     -17.281   2.522  22.407  0.00  0.00    -0.112 NA
ATOM      5  N   UNL     1     -17.063   1.755  23.535  0.00  0.00    -0.107 NA
ATOM     23  C   UNL     1     -17.198   3.772  22.799  0.00  0.00    +0.218 A 
ATOM     25  C   UNL     1     -16.864   2.606  24.515  0.00  0.00    +0.248 A 
BRANCH  25  26
ATOM     26  C   UNL     1     -16.591   2.379  25.904  0.00  0.00    +0.039 A 
ATOM     27  C   UNL     1     -16.130   3.425  26.703  0.00  0.00    +0.015 A 
ATOM     28  C   UNL     1     -16.788   1.114  26.457  0.00  0.00    +0.015 A 
ATOM     29  C   UNL     1     -15.865   3.206  28.056  0.00  0.00    +0.024 A 
ATOM     30  C   UNL     1     -16.523   0.893  27.808  0.00  0.00    +0.024 A 
ATOM     31  C   UNL     1     -16.062   1.939  28.607  0.00  0.00    +0.029 A 
BRANCH  31   6
ATOM      6  N   UNL     1     -15.793   1.716  29.974  0.00  0.00    -0.336 N 
ATOM     32  C   UNL     1     -15.818   2.818  30.916  0.00  0.00    +0.129 C 
ATOM     33  C   UNL     1     -15.496   0.382  30.456  0.00  0.00    +0.129 C 
ENDBRANCH  31   6
ENDBRANCH  25  26
ENDBRANCH  15  23
ENDBRANCH  10  15
TORSDOF 7
ENDMDL
MODEL 9
REMARK VINA RESULT:      -6.4     27.020     31.116
REMARK  Name = 45783975
REMARK  13 active torsions:
REMARK  status: ('A' for Active; 'I' for Inactive)
REMARK    1  A    between atoms: N_2  and  C_12
REMARK    2  A    between atoms: N_3  and  C_24
REMARK    3  A    between atoms: N_6  and  C_31
REMARK    4  A    between atoms: N_6  and  C_32
REMARK    5  A    between atoms: N_6  and  C_33
REMARK    6  A    between atoms: C_7  and  C_11
REMARK    7  A    between atoms: C_8  and  C_12
REMARK    8  A    between atoms: C_10  and  C_15
REMARK    9  A    between atoms: C_11  and  C_16
REMARK   10  A    between atoms: C_11  and  C_17
REMARK   11  A    between atoms: C_14  and  C_20
REMARK   12  A    between atoms: C_15  and  C_23
REMARK   13  A    between atoms: C_25  and  C_26
REMARK                            x       y       z     vdW  Elec       q    Type
REMARK                         _______ _______ _______ _____ _____    ______ ____
ROOT
ATOM      7  C   UNL     1     -13.174   8.999  20.540  0.00  0.00    +0.000 C 
ATOM      8  C   UNL     1     -11.859   8.247  20.230  0.00  0.00    +0.029 C 
ATOM      9  C   UNL     1     -14.370   8.039  20.477  0.00  0.00    +0.012 C 
ATOM     10  C   UNL     1     -14.234   6.830  21.427  0.00  0.00    +0.024 C 
ATOM     13  C   UNL     1     -11.774   6.915  20.931  0.00  0.00    -0.023 C 
ATOM     14  C   UNL     1     -12.820   6.273  21.482  0.00  0.00    -0.073 C 
ATOM     20  C   UNL     1     -12.608   4.987  22.235  0.00  0.00    +0.039 C 
ENDROOT
BRANCH   7  11
ATOM     11  C   UNL     1     -13.104   9.711  21.898  0.00  0.00    -0.013 C 
ATOM     16  C   UNL     1     -14.484  10.217  22.305  0.00  0.00    +0.007 C 
ATOM     17  C   UNL     1     -12.100  10.858  21.847  0.00  0.00    +0.007 C 
ENDBRANCH   7  11
BRANCH   8  12
ATOM     12  C   UNL     1     -11.670   8.036  18.724  0.00  0.00    +0.092 C 
BRANCH  12   2
ATOM      2  N   UNL     1     -11.468   9.315  18.045  0.00  0.00    -0.299 NA
ATOM      3  N   UNL     1      -9.933  11.165  16.439  0.00  0.00    -0.303 NA
ATOM     18  C   UNL     1     -11.309   9.119  16.599  0.00  0.00    +0.100 C 
ATOM     19  C   UNL     1     -10.305  10.021  18.597  0.00  0.00    +0.100 C 
ATOM     21  C   UNL     1     -11.096  10.459  15.887  0.00  0.00    +0.099 C 
ATOM     22  C   UNL     1     -10.090  11.361  17.885  0.00  0.00    +0.099 C 
ATOM     24  C   UNL     1      -9.733  12.444  15.761  0.00  0.00    +0.105 C 
ENDBRANCH  12   2
ENDBRANCH   8  12
BRANCH  10  15
ATOM     15  C   UNL     1     -15.275   5.775  21.029  0.00  0.00    +0.105 C 
BRANCH  15  23
ATOM      1  O   UNL     1     -15.832   5.204  23.335  0.00  0.00    -0.420 OA
ATOM      4  N   UNL     1     -17.602   5.709  22.064  0.00  0.00    -0.112 NA
ATOM      5  N   UNL     1     -18.060   5.409  23.333  0.00  0.00    -0.107 NA
ATOM     23  C   UNL     1     -16.297   5.577  22.111  0.00  0.00    +0.218 A 
ATOM     25  C   UNL     1     -16.994   5.120  24.041  0.00  0.00    +0.248 A 
BRANCH  25  26
ATOM     26  C   UNL     1     -16.865   4.737  25.416  0.00  0.00    +0.039 A 
ATOM     27  C   UNL     1     -16.158   3.584  25.756  0.00  0.00    +0.015 A 
ATOM     28  C   UNL     1     -17.446   5.519  26.415  0.00  0.00    +0.015 A 
ATOM     29  C   UNL     1     -16.031   3.212  27.095  0.00  0.00    +0.024 A 
ATOM     30  C   UNL     1     -17.320   5.148  27.754  0.00  0.00    +0.024 A 
ATOM     31  C   UNL     1     -16.613   3.994  28.094  0.00  0.00    +0.029 A 
BRANCH  31   6
ATOM      6  N   UNL     1     -16.487   3.618  29.447  0.00  0.00    -0.336 N 
ATOM     32  C   UNL     1     -16.484   4.623  30.491  0.00  0.00    +0.129 C 
ATOM     33  C   UNL     1     -16.367   2.221  29.812  0.00  0.00    +0.129 C 
ENDBRANCH  31   6
ENDBRANCH  25  26
ENDBRANCH  15  23
ENDBRANCH  10  15
TORSDOF 7
ENDMDL
MODEL 10
REMARK VINA RESULT:      -6.3     27.153     29.493
REMARK  Name = 45783975
REMARK  13 active torsions:
REMARK  status: ('A' for Active; 'I' for Inactive)
REMARK    1  A    between atoms: N_2  and  C_12
REMARK    2  A    between atoms: N_3  and  C_24
REMARK    3  A    between atoms: N_6  and  C_31
REMARK    4  A    between atoms: N_6  and  C_32
REMARK    5  A    between atoms: N_6  and  C_33
REMARK    6  A    between atoms: C_7  and  C_11
REMARK    7  A    between atoms: C_8  and  C_12
REMARK    8  A    between atoms: C_10  and  C_15
REMARK    9  A    between atoms: C_11  and  C_16
REMARK   10  A    between atoms: C_11  and  C_17
REMARK   11  A    between atoms: C_14  and  C_20
REMARK   12  A    between atoms: C_15  and  C_23
REMARK   13  A    between atoms: C_25  and  C_26
REMARK                            x       y       z     vdW  Elec       q    Type
REMARK                         _______ _______ _______ _____ _____    ______ ____
ROOT
ATOM      7  C   UNL     1     -12.208  10.204  18.212  0.00  0.00    +0.000 C 
ATOM      8  C   UNL     1     -12.572   8.805  17.664  0.00  0.00    +0.029 C 
ATOM      9  C   UNL     1     -12.786  10.396  19.621  0.00  0.00    +0.012 C 
ATOM     10  C   UNL     1     -12.325   9.316  20.623  0.00  0.00    +0.024 C 
ATOM     13  C   UNL     1     -12.392   7.715  18.689  0.00  0.00    -0.023 C 
ATOM     14  C   UNL     1     -12.267   7.924  20.013  0.00  0.00    -0.073 C 
ATOM     20  C   UNL     1     -12.004   6.769  20.941  0.00  0.00    +0.039 C 
ENDROOT
BRANCH   7  11
ATOM     11  C   UNL     1     -10.691  10.432  18.198  0.00  0.00    -0.013 C 
ATOM     16  C   UNL     1     -10.378  11.921  18.079  0.00  0.00    +0.007 C 
ATOM     17  C   UNL     1     -10.045   9.652  17.058  0.00  0.00    +0.007 C 
ENDBRANCH   7  11
BRANCH   8  12
ATOM     12  C   UNL     1     -14.008   8.762  17.131  0.00  0.00    +0.092 C 
BRANCH  12   2
ATOM      2  N   UNL     1     -14.108   7.856  15.988  0.00  0.00    -0.299 NA
ATOM      3  N   UNL     1     -14.809   7.224  13.255  0.00  0.00    -0.303 NA
ATOM     18  C   UNL     1     -13.304   8.346  14.861  0.00  0.00    +0.100 C 
ATOM     19  C   UNL     1     -15.507   7.683  15.580  0.00  0.00    +0.100 C 
ATOM     21  C   UNL     1     -13.409   7.397  13.663  0.00  0.00    +0.099 C 
ATOM     22  C   UNL     1     -15.614   6.736  14.381  0.00  0.00    +0.099 C 
ATOM     24  C   UNL     1     -14.908   6.317  12.113  0.00  0.00    +0.105 C 
ENDBRANCH  12   2
ENDBRANCH   8  12
BRANCH  10  15
ATOM     15  C   UNL     1     -13.223   9.386  21.865  0.00  0.00    +0.105 C 
BRANCH  15  23
ATOM      1  O   UNL     1     -12.615  10.031  24.139  0.00  0.00    -0.420 OA
ATOM      4  N   UNL     1     -12.391  11.668  22.631  0.00  0.00    -0.112 NA
ATOM      5  N   UNL     1     -12.015  12.169  23.863  0.00  0.00    -0.107 NA
ATOM     23  C   UNL     1     -12.733  10.418  22.839  0.00  0.00    +0.218 A 
ATOM     25  C   UNL     1     -12.163  11.180  24.713  0.00  0.00    +0.248 A 
BRANCH  25  26
ATOM     26  C   UNL     1     -11.924  11.123  26.126  0.00  0.00    +0.039 A 
ATOM     27  C   UNL     1     -11.219  10.049  26.671  0.00  0.00    +0.015 A 
ATOM     28  C   UNL     1     -12.395  12.140  26.955  0.00  0.00    +0.015 A 
ATOM     29  C   UNL     1     -10.986   9.993  28.045  0.00  0.00    +0.024 A 
ATOM     30  C   UNL     1     -12.162  12.086  28.329  0.00  0.00    +0.024 A 
ATOM     31  C   UNL     1     -11.457  11.012  28.874  0.00  0.00    +0.029 A 
BRANCH  31   6
ATOM      6  N   UNL     1     -11.223  10.955  30.264  0.00  0.00    -0.336 N 
ATOM     32  C   UNL     1     -10.473  12.004  30.925  0.00  0.00    +0.129 C 
ATOM     33  C   UNL     1     -11.736   9.851  31.050  0.00  0.00    +0.129 C 
ENDBRANCH  31   6
ENDBRANCH  25  26
ENDBRANCH  15  23
ENDBRANCH  10  15
TORSDOF 7
ENDMDL
