MODEL 1
REMARK VINA RESULT:      -7.0      0.000      0.000
REMARK  Name = 28962208
REMARK  15 active torsions:
REMARK  status: ('A' for Active; 'I' for Inactive)
REMARK    1  A    between atoms: O_2  and  C_12
REMARK    2  A    between atoms: O_3  and  C_15
REMARK    3  A    between atoms: O_5  and  C_29
REMARK    4  A    between atoms: O_5  and  C_32
REMARK    5  A    between atoms: O_6  and  C_30
REMARK    6  A    between atoms: O_6  and  C_33
REMARK    7  A    between atoms: N_7  and  C_10
REMARK    8  A    between atoms: N_7  and  C_16
REMARK    9  A    between atoms: N_7  and  C_17
REMARK   10  A    between atoms: N_8  and  C_14
REMARK   11  A    between atoms: N_9  and  C_25
REMARK   12  A    between atoms: C_11  and  C_14
REMARK   13  A    between atoms: C_13  and  C_15
REMARK   14  A    between atoms: C_16  and  C_18
REMARK   15  A    between atoms: C_18  and  C_19
REMARK                            x       y       z     vdW  Elec       q    Type
REMARK                         _______ _______ _______ _____ _____    ______ ____
ROOT
ATOM      1  O   UNL     1      20.337   7.698  20.857  0.00  0.00    -0.365 OA
ATOM     10  C   UNL     1      21.660   6.018  21.901  0.00  0.00    +0.118 C 
ATOM     11  C   UNL     1      20.862   6.370  20.639  0.00  0.00    +0.155 C 
ATOM     12  C   UNL     1      20.999   6.871  22.973  0.00  0.00    +0.165 C 
ATOM     13  C   UNL     1      20.701   8.137  22.180  0.00  0.00    +0.174 C 
ENDROOT
BRANCH  12   2
ATOM      2  O   UNL     1      19.793   6.282  23.438  0.00  0.00    -0.388 OA
ATOM     34  H   UNL     1      19.390   5.806  22.693  0.00  0.00    +0.210 HD
ENDBRANCH  12   2
BRANCH  10   7
ATOM      7  N   UNL     1      21.771   4.603  22.216  0.00  0.00    -0.297 NA
ATOM     17  C   UNL     1      22.522   4.403  23.459  0.00  0.00    +0.105 C 
BRANCH   7  16
ATOM     16  C   UNL     1      22.412   3.872  21.118  0.00  0.00    +0.089 C 
BRANCH  16  18
ATOM     18  C   UNL     1      23.443   2.878  21.650  0.00  0.00    +0.050 C 
BRANCH  18  19
ATOM     19  C   UNL     1      24.777   3.045  20.968  0.00  0.00    -0.046 A 
ATOM     21  C   UNL     1      25.951   2.691  21.634  0.00  0.00    +0.003 A 
ATOM     22  C   UNL     1      24.839   3.553  19.670  0.00  0.00    +0.003 A 
ATOM     23  C   UNL     1      27.185   2.845  21.002  0.00  0.00    +0.000 A 
ATOM     24  C   UNL     1      26.073   3.707  19.039  0.00  0.00    +0.000 A 
ATOM     26  C   UNL     1      27.247   3.353  19.705  0.00  0.00    +0.000 A 
ENDBRANCH  18  19
ENDBRANCH  16  18
ENDBRANCH   7  16
ENDBRANCH  10   7
BRANCH  11  14
ATOM     14  C   UNL     1      19.681   5.467  20.302  0.00  0.00    +0.139 C 
BRANCH  14   8
ATOM      4  O   UNL     1      17.388   5.504  18.587  0.00  0.00    -0.253 OA
ATOM      8  N   UNL     1      18.436   6.131  20.551  0.00  0.00    -0.297 N 
ATOM      9  N   UNL     1      16.275   6.839  20.165  0.00  0.00    -0.269 N 
ATOM     20  C   UNL     1      17.351   6.105  19.658  0.00  0.00    +0.304 C 
ATOM     35  H   UNL     1      18.338   6.660  21.412  0.00  0.00    +0.150 HD
ATOM     37  H   UNL     1      16.411   7.277  21.073  0.00  0.00    +0.156 HD
BRANCH   9  25
ATOM     25  C   UNL     1      15.011   7.050  19.570  0.00  0.00    +0.042 A 
ATOM     27  C   UNL     1      14.926   7.526  18.262  0.00  0.00    +0.069 A 
ATOM     28  C   UNL     1      13.846   6.780  20.290  0.00  0.00    +0.069 A 
ATOM     29  C   UNL     1      12.599   6.988  19.702  0.00  0.00    +0.125 A 
ATOM     30  C   UNL     1      13.678   7.734  17.673  0.00  0.00    +0.125 A 
ATOM     31  C   UNL     1      12.514   7.464  18.394  0.00  0.00    +0.091 A 
BRANCH  29   5
ATOM      5  O   UNL     1      11.463   6.724  20.405  0.00  0.00    -0.495 OA
ATOM     32  C   UNL     1      10.788   7.837  20.990  0.00  0.00    +0.277 C 
ENDBRANCH  29   5
BRANCH  30   6
ATOM      6  O   UNL     1      13.596   8.200  16.398  0.00  0.00    -0.495 OA
ATOM     33  C   UNL     1      12.643   9.231  16.144  0.00  0.00    +0.277 C 
ENDBRANCH  30   6
ENDBRANCH   9  25
ENDBRANCH  14   8
ENDBRANCH  11  14
BRANCH  13  15
ATOM     15  C   UNL     1      19.596   9.014  22.740  0.00  0.00    +0.190 C 
BRANCH  15   3
ATOM      3  O   UNL     1      18.345   8.517  22.293  0.00  0.00    -0.392 OA
ATOM     36  H   UNL     1      18.517   7.969  21.510  0.00  0.00    +0.210 HD
ENDBRANCH  15   3
ENDBRANCH  13  15
TORSDOF 12
ENDMDL
MODEL 2
REMARK VINA RESULT:      -6.6     30.314     35.121
REMARK  Name = 28962208
REMARK  15 active torsions:
REMARK  status: ('A' for Active; 'I' for Inactive)
REMARK    1  A    between atoms: O_2  and  C_12
REMARK    2  A    between atoms: O_3  and  C_15
REMARK    3  A    between atoms: O_5  and  C_29
REMARK    4  A    between atoms: O_5  and  C_32
REMARK    5  A    between atoms: O_6  and  C_30
REMARK    6  A    between atoms: O_6  and  C_33
REMARK    7  A    between atoms: N_7  and  C_10
REMARK    8  A    between atoms: N_7  and  C_16
REMARK    9  A    between atoms: N_7  and  C_17
REMARK   10  A    between atoms: N_8  and  C_14
REMARK   11  A    between atoms: N_9  and  C_25
REMARK   12  A    between atoms: C_11  and  C_14
REMARK   13  A    between atoms: C_13  and  C_15
REMARK   14  A    between atoms: C_16  and  C_18
REMARK   15  A    between atoms: C_18  and  C_19
REMARK                            x       y       z     vdW  Elec       q    Type
REMARK                         _______ _______ _______ _____ _____    ______ ____
ROOT
ATOM      1  O   UNL     1     -17.470   4.757  23.366  0.00  0.00    -0.365 OA
ATOM     10  C   UNL     1     -17.477   2.897  24.851  0.00  0.00    +0.118 C 
ATOM     11  C   UNL     1     -16.842   4.264  24.571  0.00  0.00    +0.155 C 
ATOM     12  C   UNL     1     -17.921   2.436  23.471  0.00  0.00    +0.165 C 
ATOM     13  C   UNL     1     -18.379   3.758  22.867  0.00  0.00    +0.174 C 
ENDROOT
BRANCH  12   2
ATOM      2  O   UNL     1     -16.835   1.901  22.726  0.00  0.00    -0.388 OA
ATOM     34  H   UNL     1     -17.182   1.179  22.176  0.00  0.00    +0.210 HD
ENDBRANCH  12   2
BRANCH  10   7
ATOM      7  N   UNL     1     -16.660   1.948  25.588  0.00  0.00    -0.297 NA
ATOM     17  C   UNL     1     -17.281   0.620  25.596  0.00  0.00    +0.105 C 
BRANCH   7  16
ATOM     16  C   UNL     1     -16.438   2.407  26.963  0.00  0.00    +0.089 C 
BRANCH  16  18
ATOM     18  C   UNL     1     -16.702   1.284  27.966  0.00  0.00    +0.050 C 
BRANCH  18  19
ATOM     19  C   UNL     1     -15.775   1.371  29.152  0.00  0.00    -0.046 A 
ATOM     21  C   UNL     1     -14.976   2.501  29.331  0.00  0.00    +0.003 A 
ATOM     22  C   UNL     1     -15.718   0.324  30.071  0.00  0.00    +0.003 A 
ATOM     23  C   UNL     1     -14.119   2.582  30.429  0.00  0.00    +0.000 A 
ATOM     24  C   UNL     1     -14.861   0.405  31.169  0.00  0.00    +0.000 A 
ATOM     26  C   UNL     1     -14.061   1.535  31.348  0.00  0.00    +0.000 A 
ENDBRANCH  18  19
ENDBRANCH  16  18
ENDBRANCH   7  16
ENDBRANCH  10   7
BRANCH  11  14
ATOM     14  C   UNL     1     -15.336   4.284  24.336  0.00  0.00    +0.139 C 
BRANCH  14   8
ATOM      4  O   UNL     1     -14.275   4.616  21.696  0.00  0.00    -0.253 OA
ATOM      8  N   UNL     1     -14.924   5.513  23.727  0.00  0.00    -0.297 N 
ATOM      9  N   UNL     1     -14.094   6.921  22.100  0.00  0.00    -0.269 N 
ATOM     20  C   UNL     1     -14.410   5.598  22.421  0.00  0.00    +0.304 C 
ATOM     35  H   UNL     1     -14.994   6.366  24.273  0.00  0.00    +0.150 HD
ATOM     37  H   UNL     1     -14.268   7.619  22.819  0.00  0.00    +0.156 HD
BRANCH   9  25
ATOM     25  C   UNL     1     -13.557   7.416  20.889  0.00  0.00    +0.042 A 
ATOM     27  C   UNL     1     -12.232   7.846  20.837  0.00  0.00    +0.069 A 
ATOM     28  C   UNL     1     -14.354   7.472  19.744  0.00  0.00    +0.069 A 
ATOM     29  C   UNL     1     -13.824   7.959  18.550  0.00  0.00    +0.125 A 
ATOM     30  C   UNL     1     -11.702   8.333  19.642  0.00  0.00    +0.125 A 
ATOM     31  C   UNL     1     -12.499   8.390  18.498  0.00  0.00    +0.091 A 
BRANCH  29   5
ATOM      5  O   UNL     1     -14.602   8.013  17.433  0.00  0.00    -0.495 OA
ATOM     32  C   UNL     1     -13.936   8.206  16.186  0.00  0.00    +0.277 C 
ENDBRANCH  29   5
BRANCH  30   6
ATOM      6  O   UNL     1     -10.409   8.754  19.592  0.00  0.00    -0.495 OA
ATOM     33  C   UNL     1     -10.094   9.768  18.638  0.00  0.00    +0.277 C 
ENDBRANCH  30   6
ENDBRANCH   9  25
ENDBRANCH  14   8
ENDBRANCH  11  14
BRANCH  13  15
ATOM     15  C   UNL     1     -18.401   3.811  21.351  0.00  0.00    +0.190 C 
BRANCH  15   3
ATOM      3  O   UNL     1     -17.126   4.225  20.888  0.00  0.00    -0.392 OA
ATOM     36  H   UNL     1     -17.205   5.156  20.623  0.00  0.00    +0.210 HD
ENDBRANCH  15   3
ENDBRANCH  13  15
TORSDOF 12
ENDMDL
MODEL 3
REMARK VINA RESULT:      -6.5     15.390     20.366
REMARK  Name = 28962208
REMARK  15 active torsions:
REMARK  status: ('A' for Active; 'I' for Inactive)
REMARK    1  A    between atoms: O_2  and  C_12
REMARK    2  A    between atoms: O_3  and  C_15
REMARK    3  A    between atoms: O_5  and  C_29
REMARK    4  A    between atoms: O_5  and  C_32
REMARK    5  A    between atoms: O_6  and  C_30
REMARK    6  A    between atoms: O_6  and  C_33
REMARK    7  A    between atoms: N_7  and  C_10
REMARK    8  A    between atoms: N_7  and  C_16
REMARK    9  A    between atoms: N_7  and  C_17
REMARK   10  A    between atoms: N_8  and  C_14
REMARK   11  A    between atoms: N_9  and  C_25
REMARK   12  A    between atoms: C_11  and  C_14
REMARK   13  A    between atoms: C_13  and  C_15
REMARK   14  A    between atoms: C_16  and  C_18
REMARK   15  A    between atoms: C_18  and  C_19
REMARK                            x       y       z     vdW  Elec       q    Type
REMARK                         _______ _______ _______ _____ _____    ______ ____
ROOT
ATOM      1  O   UNL     1      12.949   7.123   1.945  0.00  0.00    -0.365 OA
ATOM     10  C   UNL     1      14.124   5.699   0.444  0.00  0.00    +0.118 C 
ATOM     11  C   UNL     1      12.740   6.048   1.002  0.00  0.00    +0.155 C 
ATOM     12  C   UNL     1      15.063   6.132   1.560  0.00  0.00    +0.165 C 
ATOM     13  C   UNL     1      14.361   7.394   2.044  0.00  0.00    +0.174 C 
ENDROOT
BRANCH  12   2
ATOM      2  O   UNL     1      15.118   5.165   2.600  0.00  0.00    -0.388 OA
ATOM     34  H   UNL     1      15.228   4.293   2.185  0.00  0.00    +0.210 HD
ENDBRANCH  12   2
BRANCH  10   7
ATOM      7  N   UNL     1      14.304   4.334  -0.022  0.00  0.00    -0.297 NA
ATOM     17  C   UNL     1      15.727   3.999  -0.121  0.00  0.00    +0.105 C 
BRANCH   7  16
ATOM     16  C   UNL     1      13.649   4.135  -1.318  0.00  0.00    +0.089 C 
BRANCH  16  18
ATOM     18  C   UNL     1      12.652   2.978  -1.257  0.00  0.00    +0.050 C 
BRANCH  18  19
ATOM     19  C   UNL     1      11.441   3.244  -2.114  0.00  0.00    -0.046 A 
ATOM     21  C   UNL     1      10.880   2.213  -2.868  0.00  0.00    +0.003 A 
ATOM     22  C   UNL     1      10.880   4.521  -2.153  0.00  0.00    +0.003 A 
ATOM     23  C   UNL     1       9.758   2.460  -3.661  0.00  0.00    +0.000 A 
ATOM     24  C   UNL     1       9.759   4.767  -2.945  0.00  0.00    +0.000 A 
ATOM     26  C   UNL     1       9.197   3.736  -3.700  0.00  0.00    +0.000 A 
ENDBRANCH  18  19
ENDBRANCH  16  18
ENDBRANCH   7  16
ENDBRANCH  10   7
BRANCH  11  14
ATOM     14  C   UNL     1      12.000   4.938   1.740  0.00  0.00    +0.139 C 
BRANCH  14   8
ATOM      4  O   UNL     1       9.917   5.984   3.406  0.00  0.00    -0.253 OA
ATOM      8  N   UNL     1      12.055   5.135   3.158  0.00  0.00    -0.297 N 
ATOM      9  N   UNL     1      11.331   5.734   5.264  0.00  0.00    -0.269 N 
ATOM     20  C   UNL     1      10.988   5.655   3.911  0.00  0.00    +0.304 C 
ATOM     35  H   UNL     1      12.916   4.897   3.642  0.00  0.00    +0.150 HD
ATOM     37  H   UNL     1      12.264   5.418   5.517  0.00  0.00    +0.156 HD
BRANCH   9  25
ATOM     25  C   UNL     1      10.534   6.200   6.335  0.00  0.00    +0.042 A 
ATOM     27  C   UNL     1      10.058   5.304   7.293  0.00  0.00    +0.069 A 
ATOM     28  C   UNL     1      10.226   7.557   6.437  0.00  0.00    +0.069 A 
ATOM     29  C   UNL     1       9.441   8.016   7.494  0.00  0.00    +0.125 A 
ATOM     30  C   UNL     1       9.273   5.763   8.350  0.00  0.00    +0.125 A 
ATOM     31  C   UNL     1       8.965   7.120   8.450  0.00  0.00    +0.091 A 
BRANCH  29   5
ATOM      5  O   UNL     1       9.140   9.341   7.592  0.00  0.00    -0.495 OA
ATOM     32  C   UNL     1       9.178  10.106   6.389  0.00  0.00    +0.277 C 
ENDBRANCH  29   5
BRANCH  30   6
ATOM      6  O   UNL     1       8.808   4.889   9.283  0.00  0.00    -0.495 OA
ATOM     33  C   UNL     1       9.669   4.595  10.383  0.00  0.00    +0.277 C 
ENDBRANCH  30   6
ENDBRANCH   9  25
ENDBRANCH  14   8
ENDBRANCH  11  14
BRANCH  13  15
ATOM     15  C   UNL     1      14.691   7.823   3.462  0.00  0.00    +0.190 C 
BRANCH  15   3
ATOM      3  O   UNL     1      14.066   6.930   4.369  0.00  0.00    -0.392 OA
ATOM     36  H   UNL     1      14.362   7.174   5.262  0.00  0.00    +0.210 HD
ENDBRANCH  15   3
ENDBRANCH  13  15
TORSDOF 12
ENDMDL
MODEL 4
REMARK VINA RESULT:      -6.5      1.716      2.903
REMARK  Name = 28962208
REMARK  15 active torsions:
REMARK  status: ('A' for Active; 'I' for Inactive)
REMARK    1  A    between atoms: O_2  and  C_12
REMARK    2  A    between atoms: O_3  and  C_15
REMARK    3  A    between atoms: O_5  and  C_29
REMARK    4  A    between atoms: O_5  and  C_32
REMARK    5  A    between atoms: O_6  and  C_30
REMARK    6  A    between atoms: O_6  and  C_33
REMARK    7  A    between atoms: N_7  and  C_10
REMARK    8  A    between atoms: N_7  and  C_16
REMARK    9  A    between atoms: N_7  and  C_17
REMARK   10  A    between atoms: N_8  and  C_14
REMARK   11  A    between atoms: N_9  and  C_25
REMARK   12  A    between atoms: C_11  and  C_14
REMARK   13  A    between atoms: C_13  and  C_15
REMARK   14  A    between atoms: C_16  and  C_18
REMARK   15  A    between atoms: C_18  and  C_19
REMARK                            x       y       z     vdW  Elec       q    Type
REMARK                         _______ _______ _______ _____ _____    ______ ____
ROOT
ATOM      1  O   UNL     1      19.354   8.560  20.868  0.00  0.00    -0.365 OA
ATOM     10  C   UNL     1      21.119   7.349  21.906  0.00  0.00    +0.118 C 
ATOM     11  C   UNL     1      19.972   7.254  20.894  0.00  0.00    +0.155 C 
ATOM     12  C   UNL     1      20.666   8.465  22.834  0.00  0.00    +0.165 C 
ATOM     13  C   UNL     1      20.000   9.406  21.838  0.00  0.00    +0.174 C 
ENDROOT
BRANCH  12   2
ATOM      2  O   UNL     1      19.720   8.000  23.786  0.00  0.00    -0.388 OA
ATOM     34  H   UNL     1      19.943   8.399  24.644  0.00  0.00    +0.210 HD
ENDBRANCH  12   2
BRANCH  10   7
ATOM      7  N   UNL     1      21.499   6.111  22.566  0.00  0.00    -0.297 NA
ATOM     17  C   UNL     1      22.247   6.382  23.797  0.00  0.00    +0.105 C 
BRANCH   7  16
ATOM     16  C   UNL     1      22.294   5.265  21.670  0.00  0.00    +0.089 C 
BRANCH  16  18
ATOM     18  C   UNL     1      21.723   3.849  21.603  0.00  0.00    +0.050 C 
BRANCH  18  19
ATOM     19  C   UNL     1      22.759   2.815  21.963  0.00  0.00    -0.046 A 
ATOM     21  C   UNL     1      23.500   2.191  20.958  0.00  0.00    +0.003 A 
ATOM     22  C   UNL     1      22.979   2.483  23.300  0.00  0.00    +0.003 A 
ATOM     23  C   UNL     1      24.460   1.234  21.292  0.00  0.00    +0.000 A 
ATOM     24  C   UNL     1      23.939   1.527  23.633  0.00  0.00    +0.000 A 
ATOM     26  C   UNL     1      24.679   0.902  22.629  0.00  0.00    +0.000 A 
ENDBRANCH  18  19
ENDBRANCH  16  18
ENDBRANCH   7  16
ENDBRANCH  10   7
BRANCH  11  14
ATOM     14  C   UNL     1      18.874   6.240  21.198  0.00  0.00    +0.139 C 
BRANCH  14   8
ATOM      4  O   UNL     1      16.263   7.411  21.320  0.00  0.00    -0.253 OA
ATOM      8  N   UNL     1      17.881   6.229  20.165  0.00  0.00    -0.297 N 
ATOM      9  N   UNL     1      15.863   6.656  19.133  0.00  0.00    -0.269 N 
ATOM     20  C   UNL     1      16.616   6.827  20.299  0.00  0.00    +0.304 C 
ATOM     35  H   UNL     1      18.099   5.752  19.295  0.00  0.00    +0.150 HD
ATOM     37  H   UNL     1      16.308   6.145  18.375  0.00  0.00    +0.156 HD
BRANCH   9  25
ATOM     25  C   UNL     1      14.550   7.109  18.874  0.00  0.00    +0.042 A 
ATOM     27  C   UNL     1      13.553   6.949  19.836  0.00  0.00    +0.069 A 
ATOM     28  C   UNL     1      14.249   7.721  17.656  0.00  0.00    +0.069 A 
ATOM     29  C   UNL     1      12.954   8.169  17.401  0.00  0.00    +0.125 A 
ATOM     30  C   UNL     1      12.257   7.397  19.582  0.00  0.00    +0.125 A 
ATOM     31  C   UNL     1      11.958   8.007  18.363  0.00  0.00    +0.091 A 
BRANCH  29   5
ATOM      5  O   UNL     1      12.662   8.765  16.212  0.00  0.00    -0.495 OA
ATOM     32  C   UNL     1      11.300   9.123  15.982  0.00  0.00    +0.277 C 
ENDBRANCH  29   5
BRANCH  30   6
ATOM      6  O   UNL     1      11.285   7.239  20.521  0.00  0.00    -0.495 OA
ATOM     33  C   UNL     1      11.413   6.127  21.406  0.00  0.00    +0.277 C 
ENDBRANCH  30   6
ENDBRANCH   9  25
ENDBRANCH  14   8
ENDBRANCH  11  14
BRANCH  13  15
ATOM     15  C   UNL     1      18.980  10.365  22.425  0.00  0.00    +0.190 C 
BRANCH  15   3
ATOM      3  O   UNL     1      17.699   9.759  22.378  0.00  0.00    -0.392 OA
ATOM     36  H   UNL     1      17.555   9.463  21.464  0.00  0.00    +0.210 HD
ENDBRANCH  15   3
ENDBRANCH  13  15
TORSDOF 12
ENDMDL
MODEL 5
REMARK VINA RESULT:      -6.4     28.459     31.477
REMARK  Name = 28962208
REMARK  15 active torsions:
REMARK  status: ('A' for Active; 'I' for Inactive)
REMARK    1  A    between atoms: O_2  and  C_12
REMARK    2  A    between atoms: O_3  and  C_15
REMARK    3  A    between atoms: O_5  and  C_29
REMARK    4  A    between atoms: O_5  and  C_32
REMARK    5  A    between atoms: O_6  and  C_30
REMARK    6  A    between atoms: O_6  and  C_33
REMARK    7  A    between atoms: N_7  and  C_10
REMARK    8  A    between atoms: N_7  and  C_16
REMARK    9  A    between atoms: N_7  and  C_17
REMARK   10  A    between atoms: N_8  and  C_14
REMARK   11  A    between atoms: N_9  and  C_25
REMARK   12  A    between atoms: C_11  and  C_14
REMARK   13  A    between atoms: C_13  and  C_15
REMARK   14  A    between atoms: C_16  and  C_18
REMARK   15  A    between atoms: C_18  and  C_19
REMARK                            x       y       z     vdW  Elec       q    Type
REMARK                         _______ _______ _______ _____ _____    ______ ____
ROOT
ATOM      1  O   UNL     1      -4.937 -10.293  18.261  0.00  0.00    -0.365 OA
ATOM     10  C   UNL     1      -4.452 -12.071  16.757  0.00  0.00    +0.118 C 
ATOM     11  C   UNL     1      -4.553 -10.547  16.892  0.00  0.00    +0.155 C 
ATOM     12  C   UNL     1      -5.398 -12.574  17.837  0.00  0.00    +0.165 C 
ATOM     13  C   UNL     1      -5.142 -11.549  18.935  0.00  0.00    +0.174 C 
ENDROOT
BRANCH  12   2
ATOM      2  O   UNL     1      -6.752 -12.517  17.412  0.00  0.00    -0.388 OA
ATOM     34  H   UNL     1      -6.988 -11.580  17.302  0.00  0.00    +0.210 HD
ENDBRANCH  12   2
BRANCH  10   7
ATOM      7  N   UNL     1      -4.682 -12.615  15.429  0.00  0.00    -0.297 NA
ATOM     17  C   UNL     1      -4.685 -14.081  15.458  0.00  0.00    +0.105 C 
BRANCH   7  16
ATOM     16  C   UNL     1      -3.670 -12.133  14.484  0.00  0.00    +0.089 C 
BRANCH  16  18
ATOM     18  C   UNL     1      -4.222 -12.100  13.059  0.00  0.00    +0.050 C 
BRANCH  18  19
ATOM     19  C   UNL     1      -3.506 -11.079  12.212  0.00  0.00    -0.046 A 
ATOM     21  C   UNL     1      -2.163 -10.788  12.456  0.00  0.00    +0.003 A 
ATOM     22  C   UNL     1      -4.184 -10.427  11.182  0.00  0.00    +0.003 A 
ATOM     23  C   UNL     1      -1.501  -9.843  11.671  0.00  0.00    +0.000 A 
ATOM     24  C   UNL     1      -3.521  -9.484  10.397  0.00  0.00    +0.000 A 
ATOM     26  C   UNL     1      -2.179  -9.191  10.642  0.00  0.00    +0.000 A 
ENDBRANCH  18  19
ENDBRANCH  16  18
ENDBRANCH   7  16
ENDBRANCH  10   7
BRANCH  11  14
ATOM     14  C   UNL     1      -5.572  -9.847  16.000  0.00  0.00    +0.139 C 
BRANCH  14   8
ATOM      4  O   UNL     1      -8.358 -10.474  15.776  0.00  0.00    -0.253 OA
ATOM      8  N   UNL     1      -6.640  -9.289  16.774  0.00  0.00    -0.297 N 
ATOM      9  N   UNL     1      -8.802  -8.941  17.498  0.00  0.00    -0.269 N 
ATOM     20  C   UNL     1      -7.989  -9.647  16.606  0.00  0.00    +0.304 C 
ATOM     35  H   UNL     1      -6.411  -8.588  17.472  0.00  0.00    +0.150 HD
ATOM     37  H   UNL     1      -8.334  -8.291  18.124  0.00  0.00    +0.156 HD
BRANCH   9  25
ATOM     25  C   UNL     1     -10.206  -9.021  17.641  0.00  0.00    +0.042 A 
ATOM     27  C   UNL     1     -11.037  -8.298  16.785  0.00  0.00    +0.069 A 
ATOM     28  C   UNL     1     -10.763  -9.824  18.638  0.00  0.00    +0.069 A 
ATOM     29  C   UNL     1     -12.148  -9.903  18.777  0.00  0.00    +0.125 A 
ATOM     30  C   UNL     1     -12.423  -8.377  16.925  0.00  0.00    +0.125 A 
ATOM     31  C   UNL     1     -12.978  -9.180  17.922  0.00  0.00    +0.091 A 
BRANCH  29   5
ATOM      5  O   UNL     1     -12.690 -10.687  19.750  0.00  0.00    -0.495 OA
ATOM     32  C   UNL     1     -13.559 -10.053  20.687  0.00  0.00    +0.277 C 
ENDBRANCH  29   5
BRANCH  30   6
ATOM      6  O   UNL     1     -13.233  -7.670  16.091  0.00  0.00    -0.495 OA
ATOM     33  C   UNL     1     -12.707  -6.459  15.549  0.00  0.00    +0.277 C 
ENDBRANCH  30   6
ENDBRANCH   9  25
ENDBRANCH  14   8
ENDBRANCH  11  14
BRANCH  13  15
ATOM     15  C   UNL     1      -6.252 -11.396  19.958  0.00  0.00    +0.190 C 
BRANCH  15   3
ATOM      3  O   UNL     1      -6.961 -10.197  19.690  0.00  0.00    -0.392 OA
ATOM     36  H   UNL     1      -7.827 -10.450  19.332  0.00  0.00    +0.210 HD
ENDBRANCH  15   3
ENDBRANCH  13  15
TORSDOF 12
ENDMDL
MODEL 6
REMARK VINA RESULT:      -6.4     28.435     31.367
REMARK  Name = 28962208
REMARK  15 active torsions:
REMARK  status: ('A' for Active; 'I' for Inactive)
REMARK    1  A    between atoms: O_2  and  C_12
REMARK    2  A    between atoms: O_3  and  C_15
REMARK    3  A    between atoms: O_5  and  C_29
REMARK    4  A    between atoms: O_5  and  C_32
REMARK    5  A    between atoms: O_6  and  C_30
REMARK    6  A    between atoms: O_6  and  C_33
REMARK    7  A    between atoms: N_7  and  C_10
REMARK    8  A    between atoms: N_7  and  C_16
REMARK    9  A    between atoms: N_7  and  C_17
REMARK   10  A    between atoms: N_8  and  C_14
REMARK   11  A    between atoms: N_9  and  C_25
REMARK   12  A    between atoms: C_11  and  C_14
REMARK   13  A    between atoms: C_13  and  C_15
REMARK   14  A    between atoms: C_16  and  C_18
REMARK   15  A    between atoms: C_18  and  C_19
REMARK                            x       y       z     vdW  Elec       q    Type
REMARK                         _______ _______ _______ _____ _____    ______ ____
ROOT
ATOM      1  O   UNL     1      -4.827 -10.661  18.335  0.00  0.00    -0.365 OA
ATOM     10  C   UNL     1      -4.560 -12.365  16.696  0.00  0.00    +0.118 C 
ATOM     11  C   UNL     1      -4.402 -10.865  16.969  0.00  0.00    +0.155 C 
ATOM     12  C   UNL     1      -5.649 -12.779  17.674  0.00  0.00    +0.165 C 
ATOM     13  C   UNL     1      -5.293 -11.912  18.875  0.00  0.00    +0.174 C 
ENDROOT
BRANCH  12   2
ATOM      2  O   UNL     1      -6.941 -12.444  17.187  0.00  0.00    -0.388 OA
ATOM     34  H   UNL     1      -7.570 -13.091  17.549  0.00  0.00    +0.210 HD
ENDBRANCH  12   2
BRANCH  10   7
ATOM      7  N   UNL     1      -4.792 -12.746  15.313  0.00  0.00    -0.297 NA
ATOM     17  C   UNL     1      -4.918 -14.201  15.186  0.00  0.00    +0.105 C 
BRANCH   7  16
ATOM     16  C   UNL     1      -3.712 -12.258  14.449  0.00  0.00    +0.089 C 
BRANCH  16  18
ATOM     18  C   UNL     1      -4.134 -12.278  12.980  0.00  0.00    +0.050 C 
BRANCH  18  19
ATOM     19  C   UNL     1      -3.432 -11.205  12.187  0.00  0.00    -0.046 A 
ATOM     21  C   UNL     1      -2.107 -10.877  12.479  0.00  0.00    +0.003 A 
ATOM     22  C   UNL     1      -4.105 -10.542  11.161  0.00  0.00    +0.003 A 
ATOM     23  C   UNL     1      -1.457  -9.884  11.745  0.00  0.00    +0.000 A 
ATOM     24  C   UNL     1      -3.454  -9.550  10.427  0.00  0.00    +0.000 A 
ATOM     26  C   UNL     1      -2.130  -9.221  10.719  0.00  0.00    +0.000 A 
ENDBRANCH  18  19
ENDBRANCH  16  18
ENDBRANCH   7  16
ENDBRANCH  10   7
BRANCH  11  14
ATOM     14  C   UNL     1      -5.222  -9.921  16.096  0.00  0.00    +0.139 C 
BRANCH  14   8
ATOM      4  O   UNL     1      -8.013 -10.089  15.479  0.00  0.00    -0.253 OA
ATOM      8  N   UNL     1      -6.299  -9.336  16.837  0.00  0.00    -0.297 N 
ATOM      9  N   UNL     1      -8.473  -8.786  17.378  0.00  0.00    -0.269 N 
ATOM     20  C   UNL     1      -7.650  -9.461  16.470  0.00  0.00    +0.304 C 
ATOM     35  H   UNL     1      -6.072  -8.790  17.662  0.00  0.00    +0.150 HD
ATOM     37  H   UNL     1      -8.008  -8.314  18.149  0.00  0.00    +0.156 HD
BRANCH   9  25
ATOM     25  C   UNL     1      -9.882  -8.678  17.357  0.00  0.00    +0.042 A 
ATOM     27  C   UNL     1     -10.656  -9.476  18.200  0.00  0.00    +0.069 A 
ATOM     28  C   UNL     1     -10.500  -7.772  16.495  0.00  0.00    +0.069 A 
ATOM     29  C   UNL     1     -11.890  -7.665  16.476  0.00  0.00    +0.125 A 
ATOM     30  C   UNL     1     -12.046  -9.369  18.181  0.00  0.00    +0.125 A 
ATOM     31  C   UNL     1     -12.663  -8.463  17.318  0.00  0.00    +0.091 A 
BRANCH  29   5
ATOM      5  O   UNL     1     -12.493  -6.780  15.634  0.00  0.00    -0.495 OA
ATOM     32  C   UNL     1     -11.660  -5.796  15.021  0.00  0.00    +0.277 C 
ENDBRANCH  29   5
BRANCH  30   6
ATOM      6  O   UNL     1     -12.801 -10.148  19.003  0.00  0.00    -0.495 OA
ATOM     33  C   UNL     1     -12.567 -10.027  20.405  0.00  0.00    +0.277 C 
ENDBRANCH  30   6
ENDBRANCH   9  25
ENDBRANCH  14   8
ENDBRANCH  11  14
BRANCH  13  15
ATOM     15  C   UNL     1      -6.425 -11.648  19.850  0.00  0.00    +0.190 C 
BRANCH  15   3
ATOM      3  O   UNL     1      -6.957 -10.358  19.598  0.00  0.00    -0.392 OA
ATOM     36  H   UNL     1      -7.670 -10.211  20.241  0.00  0.00    +0.210 HD
ENDBRANCH  15   3
ENDBRANCH  13  15
TORSDOF 12
ENDMDL
MODEL 7
REMARK VINA RESULT:      -6.3     15.341     19.109
REMARK  Name = 28962208
REMARK  15 active torsions:
REMARK  status: ('A' for Active; 'I' for Inactive)
REMARK    1  A    between atoms: O_2  and  C_12
REMARK    2  A    between atoms: O_3  and  C_15
REMARK    3  A    between atoms: O_5  and  C_29
REMARK    4  A    between atoms: O_5  and  C_32
REMARK    5  A    between atoms: O_6  and  C_30
REMARK    6  A    between atoms: O_6  and  C_33
REMARK    7  A    between atoms: N_7  and  C_10
REMARK    8  A    between atoms: N_7  and  C_16
REMARK    9  A    between atoms: N_7  and  C_17
REMARK   10  A    between atoms: N_8  and  C_14
REMARK   11  A    between atoms: N_9  and  C_25
REMARK   12  A    between atoms: C_11  and  C_14
REMARK   13  A    between atoms: C_13  and  C_15
REMARK   14  A    between atoms: C_16  and  C_18
REMARK   15  A    between atoms: C_18  and  C_19
REMARK                            x       y       z     vdW  Elec       q    Type
REMARK                         _______ _______ _______ _____ _____    ______ ____
ROOT
ATOM      1  O   UNL     1       8.923   6.335   6.964  0.00  0.00    -0.365 OA
ATOM     10  C   UNL     1      10.680   7.905   7.297  0.00  0.00    +0.118 C 
ATOM     11  C   UNL     1       9.317   7.685   6.631  0.00  0.00    +0.155 C 
ATOM     12  C   UNL     1      11.244   6.495   7.397  0.00  0.00    +0.165 C 
ATOM     13  C   UNL     1       9.979   5.709   7.719  0.00  0.00    +0.174 C 
ENDROOT
BRANCH  12   2
ATOM      2  O   UNL     1      11.794   6.064   6.160  0.00  0.00    -0.388 OA
ATOM     34  H   UNL     1      11.671   6.783   5.517  0.00  0.00    +0.210 HD
ENDBRANCH  12   2
BRANCH  10   7
ATOM      7  N   UNL     1      11.555   8.877   6.664  0.00  0.00    -0.297 NA
ATOM     17  C   UNL     1      12.952   8.648   7.043  0.00  0.00    +0.105 C 
BRANCH   7  16
ATOM     16  C   UNL     1      11.157  10.244   7.015  0.00  0.00    +0.089 C 
BRANCH  16  18
ATOM     18  C   UNL     1      11.950  10.755   8.217  0.00  0.00    +0.050 C 
BRANCH  18  19
ATOM     19  C   UNL     1      11.041  11.185   9.340  0.00  0.00    -0.046 A 
ATOM     21  C   UNL     1       9.670  10.935   9.261  0.00  0.00    +0.003 A 
ATOM     22  C   UNL     1      11.569  11.830  10.458  0.00  0.00    +0.003 A 
ATOM     23  C   UNL     1       8.829  11.333  10.301  0.00  0.00    +0.000 A 
ATOM     24  C   UNL     1      10.728  12.226  11.498  0.00  0.00    +0.000 A 
ATOM     26  C   UNL     1       9.357  11.978  11.419  0.00  0.00    +0.000 A 
ENDBRANCH  18  19
ENDBRANCH  16  18
ENDBRANCH   7  16
ENDBRANCH  10   7
BRANCH  11  14
ATOM     14  C   UNL     1       9.269   7.807   5.112  0.00  0.00    +0.139 C 
BRANCH  14   8
ATOM      4  O   UNL     1      10.959   7.329   2.851  0.00  0.00    -0.253 OA
ATOM      8  N   UNL     1       9.522   6.545   4.484  0.00  0.00    -0.297 N 
ATOM      9  N   UNL     1      10.420   5.047   2.978  0.00  0.00    -0.269 N 
ATOM     20  C   UNL     1      10.367   6.388   3.372  0.00  0.00    +0.304 C 
ATOM     35  H   UNL     1       9.054   5.723   4.854  0.00  0.00    +0.150 HD
ATOM     37  H   UNL     1       9.866   4.391   3.521  0.00  0.00    +0.156 HD
BRANCH   9  25
ATOM     25  C   UNL     1      11.155   4.486   1.909  0.00  0.00    +0.042 A 
ATOM     27  C   UNL     1      10.562   4.339   0.655  0.00  0.00    +0.069 A 
ATOM     28  C   UNL     1      12.475   4.080   2.106  0.00  0.00    +0.069 A 
ATOM     29  C   UNL     1      13.200   3.527   1.051  0.00  0.00    +0.125 A 
ATOM     30  C   UNL     1      11.287   3.787  -0.401  0.00  0.00    +0.125 A 
ATOM     31  C   UNL     1      12.607   3.380  -0.202  0.00  0.00    +0.091 A 
BRANCH  29   5
ATOM      5  O   UNL     1      14.489   3.131   1.245  0.00  0.00    -0.495 OA
ATOM     32  C   UNL     1      15.508   3.908   0.619  0.00  0.00    +0.277 C 
ENDBRANCH  29   5
BRANCH  30   6
ATOM      6  O   UNL     1      10.708   3.643  -1.624  0.00  0.00    -0.495 OA
ATOM     33  C   UNL     1      11.118   4.549  -2.646  0.00  0.00    +0.277 C 
ENDBRANCH  30   6
ENDBRANCH   9  25
ENDBRANCH  14   8
ENDBRANCH  11  14
BRANCH  13  15
ATOM     15  C   UNL     1      10.025   4.230   7.383  0.00  0.00    +0.190 C 
BRANCH  15   3
ATOM      3  O   UNL     1       9.975   4.076   5.975  0.00  0.00    -0.392 OA
ATOM     36  H   UNL     1      10.831   4.372   5.623  0.00  0.00    +0.210 HD
ENDBRANCH  15   3
ENDBRANCH  13  15
TORSDOF 12
ENDMDL
MODEL 8
REMARK VINA RESULT:      -6.0     15.697     20.613
REMARK  Name = 28962208
REMARK  15 active torsions:
REMARK  status: ('A' for Active; 'I' for Inactive)
REMARK    1  A    between atoms: O_2  and  C_12
REMARK    2  A    between atoms: O_3  and  C_15
REMARK    3  A    between atoms: O_5  and  C_29
REMARK    4  A    between atoms: O_5  and  C_32
REMARK    5  A    between atoms: O_6  and  C_30
REMARK    6  A    between atoms: O_6  and  C_33
REMARK    7  A    between atoms: N_7  and  C_10
REMARK    8  A    between atoms: N_7  and  C_16
REMARK    9  A    between atoms: N_7  and  C_17
REMARK   10  A    between atoms: N_8  and  C_14
REMARK   11  A    between atoms: N_9  and  C_25
REMARK   12  A    between atoms: C_11  and  C_14
REMARK   13  A    between atoms: C_13  and  C_15
REMARK   14  A    between atoms: C_16  and  C_18
REMARK   15  A    between atoms: C_18  and  C_19
REMARK                            x       y       z     vdW  Elec       q    Type
REMARK                         _______ _______ _______ _____ _____    ______ ____
ROOT
ATOM      1  O   UNL     1      12.813   6.874   1.995  0.00  0.00    -0.365 OA
ATOM     10  C   UNL     1      13.776   5.485   0.321  0.00  0.00    +0.118 C 
ATOM     11  C   UNL     1      12.482   5.809   1.077  0.00  0.00    +0.155 C 
ATOM     12  C   UNL     1      14.860   5.916   1.297  0.00  0.00    +0.165 C 
ATOM     13  C   UNL     1      14.220   7.163   1.895  0.00  0.00    +0.174 C 
ENDROOT
BRANCH  12   2
ATOM      2  O   UNL     1      15.075   4.937   2.304  0.00  0.00    -0.388 OA
ATOM     34  H   UNL     1      14.895   4.066   1.912  0.00  0.00    +0.210 HD
ENDBRANCH  12   2
BRANCH  10   7
ATOM      7  N   UNL     1      13.902   4.128  -0.185  0.00  0.00    -0.297 NA
ATOM     17  C   UNL     1      15.151   3.965  -0.936  0.00  0.00    +0.105 C 
BRANCH   7  16
ATOM     16  C   UNL     1      12.757   3.778  -1.031  0.00  0.00    +0.089 C 
BRANCH  16  18
ATOM     18  C   UNL     1      13.188   3.583  -2.484  0.00  0.00    +0.050 C 
BRANCH  18  19
ATOM     19  C   UNL     1      12.011   3.273  -3.375  0.00  0.00    -0.046 A 
ATOM     21  C   UNL     1      10.859   2.703  -2.833  0.00  0.00    +0.003 A 
ATOM     22  C   UNL     1      12.074   3.556  -4.739  0.00  0.00    +0.003 A 
ATOM     23  C   UNL     1       9.770   2.416  -3.657  0.00  0.00    +0.000 A 
ATOM     24  C   UNL     1      10.985   3.270  -5.562  0.00  0.00    +0.000 A 
ATOM     26  C   UNL     1       9.833   2.699  -5.021  0.00  0.00    +0.000 A 
ENDBRANCH  18  19
ENDBRANCH  16  18
ENDBRANCH   7  16
ENDBRANCH  10   7
BRANCH  11  14
ATOM     14  C   UNL     1      11.868   4.680   1.897  0.00  0.00    +0.139 C 
BRANCH  14   8
ATOM      4  O   UNL     1       9.861   6.010   3.448  0.00  0.00    -0.253 OA
ATOM      8  N   UNL     1      11.922   4.971   3.299  0.00  0.00    -0.297 N 
ATOM      9  N   UNL     1      11.225   5.777   5.344  0.00  0.00    -0.269 N 
ATOM     20  C   UNL     1      10.894   5.631   3.994  0.00  0.00    +0.304 C 
ATOM     35  H   UNL     1      12.754   4.699   3.813  0.00  0.00    +0.150 HD
ATOM     37  H   UNL     1      12.125   5.404   5.635  0.00  0.00    +0.156 HD
BRANCH   9  25
ATOM     25  C   UNL     1      10.458   6.383   6.366  0.00  0.00    +0.042 A 
ATOM     27  C   UNL     1      10.196   7.752   6.324  0.00  0.00    +0.069 A 
ATOM     28  C   UNL     1       9.960   5.610   7.416  0.00  0.00    +0.069 A 
ATOM     29  C   UNL     1       9.202   6.208   8.422  0.00  0.00    +0.125 A 
ATOM     30  C   UNL     1       9.438   8.350   7.330  0.00  0.00    +0.125 A 
ATOM     31  C   UNL     1       8.941   7.577   8.380  0.00  0.00    +0.091 A 
BRANCH  29   5
ATOM      5  O   UNL     1       8.716   5.453   9.447  0.00  0.00    -0.495 OA
ATOM     32  C   UNL     1       9.511   4.347   9.872  0.00  0.00    +0.277 C 
ENDBRANCH  29   5
BRANCH  30   6
ATOM      6  O   UNL     1       9.185   9.686   7.289  0.00  0.00    -0.495 OA
ATOM     33  C   UNL     1      10.033  10.482   6.463  0.00  0.00    +0.277 C 
ENDBRANCH  30   6
ENDBRANCH   9  25
ENDBRANCH  14   8
ENDBRANCH  11  14
BRANCH  13  15
ATOM     15  C   UNL     1      14.746   7.578   3.257  0.00  0.00    +0.190 C 
BRANCH  15   3
ATOM      3  O   UNL     1      14.001   6.908   4.260  0.00  0.00    -0.392 OA
ATOM     36  H   UNL     1      13.677   7.585   4.877  0.00  0.00    +0.210 HD
ENDBRANCH  15   3
ENDBRANCH  13  15
TORSDOF 12
ENDMDL
MODEL 9
REMARK VINA RESULT:      -6.0     15.139     18.847
REMARK  Name = 28962208
REMARK  15 active torsions:
REMARK  status: ('A' for Active; 'I' for Inactive)
REMARK    1  A    between atoms: O_2  and  C_12
REMARK    2  A    between atoms: O_3  and  C_15
REMARK    3  A    between atoms: O_5  and  C_29
REMARK    4  A    between atoms: O_5  and  C_32
REMARK    5  A    between atoms: O_6  and  C_30
REMARK    6  A    between atoms: O_6  and  C_33
REMARK    7  A    between atoms: N_7  and  C_10
REMARK    8  A    between atoms: N_7  and  C_16
REMARK    9  A    between atoms: N_7  and  C_17
REMARK   10  A    between atoms: N_8  and  C_14
REMARK   11  A    between atoms: N_9  and  C_25
REMARK   12  A    between atoms: C_11  and  C_14
REMARK   13  A    between atoms: C_13  and  C_15
REMARK   14  A    between atoms: C_16  and  C_18
REMARK   15  A    between atoms: C_18  and  C_19
REMARK                            x       y       z     vdW  Elec       q    Type
REMARK                         _______ _______ _______ _____ _____    ______ ____
ROOT
ATOM      1  O   UNL     1       8.537   6.561   7.879  0.00  0.00    -0.365 OA
ATOM     10  C   UNL     1      10.501   7.882   7.634  0.00  0.00    +0.118 C 
ATOM     11  C   UNL     1       9.006   7.801   7.304  0.00  0.00    +0.155 C 
ATOM     12  C   UNL     1      10.897   6.422   7.789  0.00  0.00    +0.165 C 
ATOM     13  C   UNL     1       9.652   5.863   8.466  0.00  0.00    +0.174 C 
ENDROOT
BRANCH  12   2
ATOM      2  O   UNL     1      11.098   5.799   6.528  0.00  0.00    -0.388 OA
ATOM     34  H   UNL     1      11.340   6.493   5.892  0.00  0.00    +0.210 HD
ENDBRANCH  12   2
BRANCH  10   7
ATOM      7  N   UNL     1      11.321   8.652   6.714  0.00  0.00    -0.297 NA
ATOM     17  C   UNL     1      12.745   8.371   6.923  0.00  0.00    +0.105 C 
BRANCH   7  16
ATOM     16  C   UNL     1      11.065  10.088   6.863  0.00  0.00    +0.089 C 
BRANCH  16  18
ATOM     18  C   UNL     1      11.929  10.688   7.971  0.00  0.00    +0.050 C 
BRANCH  18  19
ATOM     19  C   UNL     1      11.096  11.124   9.149  0.00  0.00    -0.046 A 
ATOM     21  C   UNL     1      11.711  11.689  10.267  0.00  0.00    +0.003 A 
ATOM     22  C   UNL     1       9.711  10.965   9.122  0.00  0.00    +0.003 A 
ATOM     23  C   UNL     1      10.940  12.093  11.358  0.00  0.00    +0.000 A 
ATOM     24  C   UNL     1       8.940  11.370  10.211  0.00  0.00    +0.000 A 
ATOM     26  C   UNL     1       9.554  11.934  11.330  0.00  0.00    +0.000 A 
ENDBRANCH  18  19
ENDBRANCH  16  18
ENDBRANCH   7  16
ENDBRANCH  10   7
BRANCH  11  14
ATOM     14  C   UNL     1       8.631   7.783   5.826  0.00  0.00    +0.139 C 
BRANCH  14   8
ATOM      4  O   UNL     1      10.030   7.560   3.336  0.00  0.00    -0.253 OA
ATOM      8  N   UNL     1       9.071   6.573   5.196  0.00  0.00    -0.297 N 
ATOM      9  N   UNL     1      10.054   5.227   3.603  0.00  0.00    -0.269 N 
ATOM     20  C   UNL     1       9.754   6.543   3.968  0.00  0.00    +0.304 C 
ATOM     35  H   UNL     1       8.866   5.691   5.656  0.00  0.00    +0.150 HD
ATOM     37  H   UNL     1       9.753   4.497   4.243  0.00  0.00    +0.156 HD
BRANCH   9  25
ATOM     25  C   UNL     1      10.731   4.781   2.444  0.00  0.00    +0.042 A 
ATOM     27  C   UNL     1      12.025   4.270   2.544  0.00  0.00    +0.069 A 
ATOM     28  C   UNL     1      10.103   4.849   1.199  0.00  0.00    +0.069 A 
ATOM     29  C   UNL     1      10.771   4.408   0.057  0.00  0.00    +0.125 A 
ATOM     30  C   UNL     1      12.692   3.829   1.402  0.00  0.00    +0.125 A 
ATOM     31  C   UNL     1      12.064   3.898   0.158  0.00  0.00    +0.091 A 
BRANCH  29   5
ATOM      5  O   UNL     1      10.158   4.475  -1.157  0.00  0.00    -0.495 OA
ATOM     32  C   UNL     1      10.794   3.804  -2.244  0.00  0.00    +0.277 C 
ENDBRANCH  29   5
BRANCH  30   6
ATOM      6  O   UNL     1      13.955   3.332   1.500  0.00  0.00    -0.495 OA
ATOM     33  C   UNL     1      14.898   3.760   0.518  0.00  0.00    +0.277 C 
ENDBRANCH  30   6
ENDBRANCH   9  25
ENDBRANCH  14   8
ENDBRANCH  11  14
BRANCH  13  15
ATOM     15  C   UNL     1       9.442   4.367   8.317  0.00  0.00    +0.190 C 
BRANCH  15   3
ATOM      3  O   UNL     1      10.705   3.722   8.343  0.00  0.00    -0.392 OA
ATOM     36  H   UNL     1      10.756   3.225   9.176  0.00  0.00    +0.210 HD
ENDBRANCH  15   3
ENDBRANCH  13  15
TORSDOF 12
ENDMDL
MODEL 10
REMARK VINA RESULT:      -5.9     28.452     32.078
REMARK  Name = 28962208
REMARK  15 active torsions:
REMARK  status: ('A' for Active; 'I' for Inactive)
REMARK    1  A    between atoms: O_2  and  C_12
REMARK    2  A    between atoms: O_3  and  C_15
REMARK    3  A    between atoms: O_5  and  C_29
REMARK    4  A    between atoms: O_5  and  C_32
REMARK    5  A    between atoms: O_6  and  C_30
REMARK    6  A    between atoms: O_6  and  C_33
REMARK    7  A    between atoms: N_7  and  C_10
REMARK    8  A    between atoms: N_7  and  C_16
REMARK    9  A    between atoms: N_7  and  C_17
REMARK   10  A    between atoms: N_8  and  C_14
REMARK   11  A    between atoms: N_9  and  C_25
REMARK   12  A    between atoms: C_11  and  C_14
REMARK   13  A    between atoms: C_13  and  C_15
REMARK   14  A    between atoms: C_16  and  C_18
REMARK   15  A    between atoms: C_18  and  C_19
REMARK                            x       y       z     vdW  Elec       q    Type
REMARK                         _______ _______ _______ _____ _____    ______ ____
ROOT
ATOM      1  O   UNL     1      -9.652  -8.167   8.793  0.00  0.00    -0.365 OA
ATOM     10  C   UNL     1      -8.225  -9.253   7.229  0.00  0.00    +0.118 C 
ATOM     11  C   UNL     1      -8.588  -9.141   8.715  0.00  0.00    +0.155 C 
ATOM     12  C   UNL     1      -8.637  -7.899   6.673  0.00  0.00    +0.165 C 
ATOM     13  C   UNL     1      -9.904  -7.638   7.477  0.00  0.00    +0.174 C 
ENDROOT
BRANCH  12   2
ATOM      2  O   UNL     1      -7.661  -6.904   6.949  0.00  0.00    -0.388 OA
ATOM     34  H   UNL     1      -7.133  -7.210   7.706  0.00  0.00    +0.210 HD
ENDBRANCH  12   2
BRANCH  10   7
ATOM      7  N   UNL     1      -6.862  -9.658   6.930  0.00  0.00    -0.297 NA
ATOM     17  C   UNL     1      -6.639  -9.712   5.482  0.00  0.00    +0.105 C 
BRANCH   7  16
ATOM     16  C   UNL     1      -6.559 -10.959   7.534  0.00  0.00    +0.089 C 
BRANCH  16  18
ATOM     18  C   UNL     1      -5.062 -11.260   7.466  0.00  0.00    +0.050 C 
BRANCH  18  19
ATOM     19  C   UNL     1      -4.356 -10.854   8.735  0.00  0.00    -0.046 A 
ATOM     21  C   UNL     1      -4.017  -9.518   8.947  0.00  0.00    +0.003 A 
ATOM     22  C   UNL     1      -4.044 -11.814   9.698  0.00  0.00    +0.003 A 
ATOM     23  C   UNL     1      -3.364  -9.142  10.121  0.00  0.00    +0.000 A 
ATOM     24  C   UNL     1      -3.392 -11.438  10.872  0.00  0.00    +0.000 A 
ATOM     26  C   UNL     1      -3.052 -10.101  11.084  0.00  0.00    +0.000 A 
ENDBRANCH  18  19
ENDBRANCH  16  18
ENDBRANCH   7  16
ENDBRANCH  10   7
BRANCH  11  14
ATOM     14  C   UNL     1      -7.482  -8.679   9.656  0.00  0.00    +0.139 C 
BRANCH  14   8
ATOM      4  O   UNL     1      -5.945  -8.195  12.024  0.00  0.00    -0.253 OA
ATOM      8  N   UNL     1      -7.399  -9.523  10.811  0.00  0.00    -0.297 N 
ATOM      9  N   UNL     1      -6.734 -10.223  12.905  0.00  0.00    -0.269 N 
ATOM     20  C   UNL     1      -6.620  -9.218  11.940  0.00  0.00    +0.304 C 
ATOM     35  H   UNL     1      -7.921 -10.394  10.806  0.00  0.00    +0.150 HD
ATOM     37  H   UNL     1      -7.338 -11.008  12.675  0.00  0.00    +0.156 HD
BRANCH   9  25
ATOM     25  C   UNL     1      -6.110 -10.285  14.172  0.00  0.00    +0.042 A 
ATOM     27  C   UNL     1      -6.831  -9.966  15.322  0.00  0.00    +0.069 A 
ATOM     28  C   UNL     1      -4.772 -10.668  14.273  0.00  0.00    +0.069 A 
ATOM     29  C   UNL     1      -4.157 -10.730  15.523  0.00  0.00    +0.125 A 
ATOM     30  C   UNL     1      -6.216 -10.028  16.572  0.00  0.00    +0.125 A 
ATOM     31  C   UNL     1      -4.878 -10.410  16.672  0.00  0.00    +0.091 A 
BRANCH  29   5
ATOM      5  O   UNL     1      -2.851 -11.103  15.620  0.00  0.00    -0.495 OA
ATOM     32  C   UNL     1      -1.948 -10.570  14.652  0.00  0.00    +0.277 C 
ENDBRANCH  29   5
BRANCH  30   6
ATOM      6  O   UNL     1      -6.920  -9.715  17.694  0.00  0.00    -0.495 OA
ATOM     33  C   UNL     1      -8.285  -9.337  17.518  0.00  0.00    +0.277 C 
ENDBRANCH  30   6
ENDBRANCH   9  25
ENDBRANCH  14   8
ENDBRANCH  11  14
BRANCH  13  15
ATOM     15  C   UNL     1     -10.317  -6.182   7.593  0.00  0.00    +0.190 C 
BRANCH  15   3
ATOM      3  O   UNL     1      -9.675  -5.610   8.721  0.00  0.00    -0.392 OA
ATOM     36  H   UNL     1      -8.729  -5.545   8.510  0.00  0.00    +0.210 HD
ENDBRANCH  15   3
ENDBRANCH  13  15
TORSDOF 12
ENDMDL
