MODEL 1
REMARK VINA RESULT:      -6.8      0.000      0.000
REMARK  Name = 28961418
REMARK  9 active torsions:
REMARK  status: ('A' for Active; 'I' for Inactive)
REMARK    1  A    between atoms: O_3  and  C_10
REMARK    2  A    between atoms: O_4  and  C_17
REMARK    3  A    between atoms: N_5  and  C_8
REMARK    4  A    between atoms: N_6  and  C_18
REMARK    5  A    between atoms: N_7  and  C_14
REMARK    6  A    between atoms: N_7  and  C_19
REMARK    7  A    between atoms: C_9  and  C_14
REMARK    8  A    between atoms: C_11  and  C_17
REMARK    9  A    between atoms: C_19  and  C_22
REMARK                            x       y       z     vdW  Elec       q    Type
REMARK                         _______ _______ _______ _____ _____    ______ ____
ROOT
ATOM      2  O   UNL     1     -17.529   3.427  23.648  0.00  0.00    -0.366 OA
ATOM      8  C   UNL     1     -17.435   2.945  25.977  0.00  0.00    +0.118 C 
ATOM      9  C   UNL     1     -16.849   3.819  24.861  0.00  0.00    +0.152 C 
ATOM     10  C   UNL     1     -17.909   1.707  25.231  0.00  0.00    +0.165 C 
ATOM     11  C   UNL     1     -18.424   2.337  23.942  0.00  0.00    +0.174 C 
ENDROOT
BRANCH   8   5
ATOM      5  N   UNL     1     -16.568   2.688  27.114  0.00  0.00    -0.292 NA
ATOM      6  N   UNL     1     -15.900   2.447  29.880  0.00  0.00    -0.327 N 
ATOM     12  C   UNL     1     -16.458   3.885  27.958  0.00  0.00    +0.104 C 
ATOM     13  C   UNL     1     -17.080   1.564  27.908  0.00  0.00    +0.104 C 
ATOM     15  C   UNL     1     -15.502   3.644  29.129  0.00  0.00    +0.120 C 
ATOM     16  C   UNL     1     -16.145   1.246  29.078  0.00  0.00    +0.120 C 
BRANCH   6  18
ATOM     18  C   UNL     1     -15.450   2.320  31.200  0.00  0.00    +0.030 A 
ATOM     20  C   UNL     1     -15.429   3.434  32.040  0.00  0.00    +0.023 A 
ATOM     21  C   UNL     1     -15.026   1.081  31.676  0.00  0.00    +0.023 A 
ATOM     23  C   UNL     1     -14.984   3.307  33.356  0.00  0.00    +0.002 A 
ATOM     24  C   UNL     1     -14.582   0.953  32.991  0.00  0.00    +0.002 A 
ATOM     25  C   UNL     1     -14.561   2.067  33.832  0.00  0.00    +0.000 A 
ENDBRANCH   6  18
ENDBRANCH   8   5
BRANCH  10   3
ATOM      3  O   UNL     1     -16.832   0.822  24.953  0.00  0.00    -0.388 OA
ATOM     31  H   UNL     1     -17.163  -0.086  25.054  0.00  0.00    +0.210 HD
ENDBRANCH  10   3
BRANCH   9  14
ATOM     14  C   UNL     1     -15.352   3.686  24.604  0.00  0.00    +0.114 C 
BRANCH  14   7
ATOM      7  N   UNL     1     -15.037   3.955  23.208  0.00  0.00    -0.310 NA
ATOM     32  H   UNL     1     -15.790   4.504  22.792  0.00  0.00    +0.122 HD
BRANCH   7  19
ATOM     19  C   UNL     1     -13.781   4.683  23.088  0.00  0.00    +0.116 C 
BRANCH  19  22
ATOM      1 CL   UNL     1     -11.206   7.851  19.848  0.00  0.00    -0.084 Cl
ATOM     22  C   UNL     1     -13.818   5.683  21.963  0.00  0.00    -0.032 A 
ATOM     26  C   UNL     1     -12.633   6.238  21.483  0.00  0.00    +0.025 A 
ATOM     27  C   UNL     1     -15.041   6.055  21.402  0.00  0.00    +0.005 A 
ATOM     28  C   UNL     1     -12.669   7.165  20.442  0.00  0.00    +0.041 A 
ATOM     29  C   UNL     1     -15.077   6.981  20.360  0.00  0.00    +0.002 A 
ATOM     30  C   UNL     1     -13.890   7.537  19.880  0.00  0.00    +0.020 A 
ENDBRANCH  19  22
ENDBRANCH   7  19
ENDBRANCH  14   7
ENDBRANCH   9  14
BRANCH  11  17
ATOM     17  C   UNL     1     -18.494   1.409  22.743  0.00  0.00    +0.190 C 
BRANCH  17   4
ATOM      4  O   UNL     1     -17.208   1.326  22.151  0.00  0.00    -0.392 OA
ATOM     33  H   UNL     1     -17.064   0.396  21.907  0.00  0.00    +0.210 HD
ENDBRANCH  17   4
ENDBRANCH  11  17
TORSDOF 9
ENDMDL
MODEL 2
REMARK VINA RESULT:      -6.6     20.396     22.377
REMARK  Name = 28961418
REMARK  9 active torsions:
REMARK  status: ('A' for Active; 'I' for Inactive)
REMARK    1  A    between atoms: O_3  and  C_10
REMARK    2  A    between atoms: O_4  and  C_17
REMARK    3  A    between atoms: N_5  and  C_8
REMARK    4  A    between atoms: N_6  and  C_18
REMARK    5  A    between atoms: N_7  and  C_14
REMARK    6  A    between atoms: N_7  and  C_19
REMARK    7  A    between atoms: C_9  and  C_14
REMARK    8  A    between atoms: C_11  and  C_17
REMARK    9  A    between atoms: C_19  and  C_22
REMARK                            x       y       z     vdW  Elec       q    Type
REMARK                         _______ _______ _______ _____ _____    ______ ____
ROOT
ATOM      2  O   UNL     1      -7.894  -9.615   7.459  0.00  0.00    -0.366 OA
ATOM      8  C   UNL     1      -6.446 -10.382   9.185  0.00  0.00    +0.118 C 
ATOM      9  C   UNL     1      -7.678  -9.519   8.884  0.00  0.00    +0.152 C 
ATOM     10  C   UNL     1      -5.687 -10.369   7.866  0.00  0.00    +0.165 C 
ATOM     11  C   UNL     1      -6.845 -10.411   6.876  0.00  0.00    +0.174 C 
ENDROOT
BRANCH   8   5
ATOM      5  N   UNL     1      -5.666 -10.005  10.351  0.00  0.00    -0.292 NA
ATOM      6  N   UNL     1      -4.204 -10.449  12.764  0.00  0.00    -0.327 N 
ATOM     12  C   UNL     1      -6.366 -10.388  11.584  0.00  0.00    +0.104 C 
ATOM     13  C   UNL     1      -4.342 -10.638  10.312  0.00  0.00    +0.104 C 
ATOM     15  C   UNL     1      -5.582  -9.946  12.821  0.00  0.00    +0.120 C 
ATOM     16  C   UNL     1      -3.490 -10.204  11.507  0.00  0.00    +0.120 C 
BRANCH   6  18
ATOM     18  C   UNL     1      -3.487 -10.541  13.963  0.00  0.00    +0.030 A 
ATOM     20  C   UNL     1      -2.096 -10.431  13.954  0.00  0.00    +0.023 A 
ATOM     21  C   UNL     1      -4.163 -10.740  15.166  0.00  0.00    +0.023 A 
ATOM     23  C   UNL     1      -1.383 -10.519  15.150  0.00  0.00    +0.002 A 
ATOM     24  C   UNL     1      -3.450 -10.828  16.360  0.00  0.00    +0.002 A 
ATOM     25  C   UNL     1      -2.059 -10.717  16.353  0.00  0.00    +0.000 A 
ENDBRANCH   6  18
ENDBRANCH   8   5
BRANCH  10   3
ATOM      3  O   UNL     1      -4.943  -9.169   7.705  0.00  0.00    -0.388 OA
ATOM     31  H   UNL     1      -4.486  -9.217   6.849  0.00  0.00    +0.210 HD
ENDBRANCH  10   3
BRANCH   9  14
ATOM     14  C   UNL     1      -7.573  -8.036   9.226  0.00  0.00    +0.114 C 
BRANCH  14   7
ATOM      7  N   UNL     1      -7.473  -7.229   8.019  0.00  0.00    -0.310 NA
ATOM     32  H   UNL     1      -8.007  -7.672   7.271  0.00  0.00    +0.122 HD
BRANCH   7  19
ATOM     19  C   UNL     1      -7.980  -5.882   8.249  0.00  0.00    +0.116 C 
BRANCH  19  22
ATOM      1 CL   UNL     1     -12.405  -3.619   9.814  0.00  0.00    -0.084 Cl
ATOM     22  C   UNL     1      -9.484  -5.838   8.221  0.00  0.00    -0.032 A 
ATOM     26  C   UNL     1     -10.168  -4.862   8.945  0.00  0.00    +0.025 A 
ATOM     27  C   UNL     1     -10.195  -6.777   7.472  0.00  0.00    +0.005 A 
ATOM     28  C   UNL     1     -11.561  -4.823   8.920  0.00  0.00    +0.041 A 
ATOM     29  C   UNL     1     -11.589  -6.737   7.446  0.00  0.00    +0.002 A 
ATOM     30  C   UNL     1     -12.272  -5.760   8.170  0.00  0.00    +0.020 A 
ENDBRANCH  19  22
ENDBRANCH   7  19
ENDBRANCH  14   7
ENDBRANCH   9  14
BRANCH  11  17
ATOM     17  C   UNL     1      -6.535  -9.891   5.485  0.00  0.00    +0.190 C 
BRANCH  17   4
ATOM      4  O   UNL     1      -6.703  -8.483   5.473  0.00  0.00    -0.392 OA
ATOM     33  H   UNL     1      -7.450  -8.278   6.062  0.00  0.00    +0.210 HD
ENDBRANCH  17   4
ENDBRANCH  11  17
TORSDOF 9
ENDMDL
MODEL 3
REMARK VINA RESULT:      -6.5     15.772     18.629
REMARK  Name = 28961418
REMARK  9 active torsions:
REMARK  status: ('A' for Active; 'I' for Inactive)
REMARK    1  A    between atoms: O_3  and  C_10
REMARK    2  A    between atoms: O_4  and  C_17
REMARK    3  A    between atoms: N_5  and  C_8
REMARK    4  A    between atoms: N_6  and  C_18
REMARK    5  A    between atoms: N_7  and  C_14
REMARK    6  A    between atoms: N_7  and  C_19
REMARK    7  A    between atoms: C_9  and  C_14
REMARK    8  A    between atoms: C_11  and  C_17
REMARK    9  A    between atoms: C_19  and  C_22
REMARK                            x       y       z     vdW  Elec       q    Type
REMARK                         _______ _______ _______ _____ _____    ______ ____
ROOT
ATOM      2  O   UNL     1      -9.934 -11.517  17.405  0.00  0.00    -0.366 OA
ATOM      8  C   UNL     1     -11.258  -9.697  16.627  0.00  0.00    +0.118 C 
ATOM      9  C   UNL     1     -10.302 -10.817  16.195  0.00  0.00    +0.152 C 
ATOM     10  C   UNL     1     -10.853  -9.438  18.071  0.00  0.00    +0.165 C 
ATOM     11  C   UNL     1     -10.540 -10.857  18.533  0.00  0.00    +0.174 C 
ENDROOT
BRANCH   8   5
ATOM      5  N   UNL     1     -11.296  -8.522  15.775  0.00  0.00    -0.292 NA
ATOM      6  N   UNL     1     -12.531  -6.406  14.307  0.00  0.00    -0.327 N 
ATOM     12  C   UNL     1     -12.030  -8.808  14.536  0.00  0.00    +0.104 C 
ATOM     13  C   UNL     1     -11.924  -7.396  16.478  0.00  0.00    +0.104 C 
ATOM     15  C   UNL     1     -12.030  -7.594  13.605  0.00  0.00    +0.120 C 
ATOM     16  C   UNL     1     -11.921  -6.135  15.611  0.00  0.00    +0.120 C 
BRANCH   6  18
ATOM     18  C   UNL     1     -13.022  -5.345  13.536  0.00  0.00    +0.030 A 
ATOM     20  C   UNL     1     -12.139  -4.524  12.836  0.00  0.00    +0.023 A 
ATOM     21  C   UNL     1     -14.395  -5.111  13.468  0.00  0.00    +0.023 A 
ATOM     23  C   UNL     1     -12.629  -3.469  12.065  0.00  0.00    +0.002 A 
ATOM     24  C   UNL     1     -14.885  -4.057  12.698  0.00  0.00    +0.002 A 
ATOM     25  C   UNL     1     -14.002  -3.236  11.996  0.00  0.00    +0.000 A 
ENDBRANCH   6  18
ENDBRANCH   8   5
BRANCH  10   3
ATOM      3  O   UNL     1      -9.689  -8.626  18.148  0.00  0.00    -0.388 OA
ATOM     31  H   UNL     1      -9.325  -8.547  17.250  0.00  0.00    +0.210 HD
ENDBRANCH  10   3
BRANCH   9  14
ATOM     14  C   UNL     1      -9.009 -10.386  15.511  0.00  0.00    +0.114 C 
BRANCH  14   7
ATOM      7  N   UNL     1      -7.851 -10.723  16.327  0.00  0.00    -0.310 NA
ATOM     32  H   UNL     1      -7.395 -11.550  15.940  0.00  0.00    +0.122 HD
BRANCH   7  19
ATOM     19  C   UNL     1      -6.903  -9.618  16.367  0.00  0.00    +0.116 C 
BRANCH  19  22
ATOM      1 CL   UNL     1      -3.694 -10.804  12.436  0.00  0.00    -0.084 Cl
ATOM     22  C   UNL     1      -5.533 -10.037  15.903  0.00  0.00    -0.032 A 
ATOM     26  C   UNL     1      -5.278 -10.206  14.543  0.00  0.00    +0.025 A 
ATOM     27  C   UNL     1      -4.520 -10.260  16.837  0.00  0.00    +0.005 A 
ATOM     28  C   UNL     1      -4.010 -10.596  14.114  0.00  0.00    +0.041 A 
ATOM     29  C   UNL     1      -3.251 -10.649  16.408  0.00  0.00    +0.002 A 
ATOM     30  C   UNL     1      -2.996 -10.817  15.046  0.00  0.00    +0.020 A 
ENDBRANCH  19  22
ENDBRANCH   7  19
ENDBRANCH  14   7
ENDBRANCH   9  14
BRANCH  11  17
ATOM     17  C   UNL     1      -9.616 -10.965  19.732  0.00  0.00    +0.190 C 
BRANCH  17   4
ATOM      4  O   UNL     1     -10.072 -10.083  20.744  0.00  0.00    -0.392 OA
ATOM     33  H   UNL     1      -9.407 -10.093  21.454  0.00  0.00    +0.210 HD
ENDBRANCH  17   4
ENDBRANCH  11  17
TORSDOF 9
ENDMDL
MODEL 4
REMARK VINA RESULT:      -6.5     21.063     24.051
REMARK  Name = 28961418
REMARK  9 active torsions:
REMARK  status: ('A' for Active; 'I' for Inactive)
REMARK    1  A    between atoms: O_3  and  C_10
REMARK    2  A    between atoms: O_4  and  C_17
REMARK    3  A    between atoms: N_5  and  C_8
REMARK    4  A    between atoms: N_6  and  C_18
REMARK    5  A    between atoms: N_7  and  C_14
REMARK    6  A    between atoms: N_7  and  C_19
REMARK    7  A    between atoms: C_9  and  C_14
REMARK    8  A    between atoms: C_11  and  C_17
REMARK    9  A    between atoms: C_19  and  C_22
REMARK                            x       y       z     vdW  Elec       q    Type
REMARK                         _______ _______ _______ _____ _____    ______ ____
ROOT
ATOM      2  O   UNL     1      -1.668 -12.646  13.266  0.00  0.00    -0.366 OA
ATOM      8  C   UNL     1      -3.010 -11.924  11.436  0.00  0.00    +0.118 C 
ATOM      9  C   UNL     1      -2.169 -11.450  12.629  0.00  0.00    +0.152 C 
ATOM     10  C   UNL     1      -3.453 -13.317  11.862  0.00  0.00    +0.165 C 
ATOM     11  C   UNL     1      -2.203 -13.799  12.588  0.00  0.00    +0.174 C 
ENDROOT
BRANCH   8   5
ATOM      5  N   UNL     1      -4.079 -11.038  11.011  0.00  0.00    -0.292 NA
ATOM      6  N   UNL     1      -5.689  -9.612   9.132  0.00  0.00    -0.327 N 
ATOM     12  C   UNL     1      -3.531  -9.880  10.292  0.00  0.00    +0.104 C 
ATOM     13  C   UNL     1      -5.030 -11.754  10.151  0.00  0.00    +0.104 C 
ATOM     15  C   UNL     1      -4.643  -8.910   9.886  0.00  0.00    +0.120 C 
ATOM     16  C   UNL     1      -6.192 -10.846   9.740  0.00  0.00    +0.120 C 
BRANCH   6  18
ATOM     18  C   UNL     1      -6.529  -8.851   8.310  0.00  0.00    +0.030 A 
ATOM     20  C   UNL     1      -6.664  -9.176   6.960  0.00  0.00    +0.023 A 
ATOM     21  C   UNL     1      -7.232  -7.770   8.840  0.00  0.00    +0.023 A 
ATOM     23  C   UNL     1      -7.504  -8.419   6.142  0.00  0.00    +0.002 A 
ATOM     24  C   UNL     1      -8.071  -7.014   8.023  0.00  0.00    +0.002 A 
ATOM     25  C   UNL     1      -8.207  -7.339   6.673  0.00  0.00    +0.000 A 
ENDBRANCH   6  18
ENDBRANCH   8   5
BRANCH  10   3
ATOM      3  O   UNL     1      -4.555 -13.261  12.758  0.00  0.00    -0.388 OA
ATOM     31  H   UNL     1      -4.649 -12.340  13.052  0.00  0.00    +0.210 HD
ENDBRANCH  10   3
BRANCH   9  14
ATOM     14  C   UNL     1      -2.895 -10.638  13.697  0.00  0.00    +0.114 C 
BRANCH  14   7
ATOM      7  N   UNL     1      -3.147 -11.446  14.882  0.00  0.00    -0.310 NA
ATOM     32  H   UNL     1      -2.526 -12.255  14.876  0.00  0.00    +0.122 HD
BRANCH   7  19
ATOM     19  C   UNL     1      -2.927 -10.671  16.097  0.00  0.00    +0.116 C 
BRANCH  19  22
ATOM      1 CL   UNL     1      -7.823  -9.172  17.064  0.00  0.00    -0.084 Cl
ATOM     22  C   UNL     1      -4.128 -10.700  17.004  0.00  0.00    -0.032 A 
ATOM     26  C   UNL     1      -5.284 -10.004  16.654  0.00  0.00    +0.025 A 
ATOM     27  C   UNL     1      -4.082 -11.422  18.197  0.00  0.00    +0.005 A 
ATOM     28  C   UNL     1      -6.395 -10.030  17.496  0.00  0.00    +0.041 A 
ATOM     29  C   UNL     1      -5.194 -11.450  19.038  0.00  0.00    +0.002 A 
ATOM     30  C   UNL     1      -6.351 -10.754  18.688  0.00  0.00    +0.020 A 
ENDBRANCH  19  22
ENDBRANCH   7  19
ENDBRANCH  14   7
ENDBRANCH   9  14
BRANCH  11  17
ATOM     17  C   UNL     1      -2.421 -14.914  13.594  0.00  0.00    +0.190 C 
BRANCH  17   4
ATOM      4  O   UNL     1      -2.762 -14.343  14.846  0.00  0.00    -0.392 OA
ATOM     33  H   UNL     1      -3.062 -15.069  15.420  0.00  0.00    +0.210 HD
ENDBRANCH  17   4
ENDBRANCH  11  17
TORSDOF 9
ENDMDL
MODEL 5
REMARK VINA RESULT:      -6.5     20.492     23.592
REMARK  Name = 28961418
REMARK  9 active torsions:
REMARK  status: ('A' for Active; 'I' for Inactive)
REMARK    1  A    between atoms: O_3  and  C_10
REMARK    2  A    between atoms: O_4  and  C_17
REMARK    3  A    between atoms: N_5  and  C_8
REMARK    4  A    between atoms: N_6  and  C_18
REMARK    5  A    between atoms: N_7  and  C_14
REMARK    6  A    between atoms: N_7  and  C_19
REMARK    7  A    between atoms: C_9  and  C_14
REMARK    8  A    between atoms: C_11  and  C_17
REMARK    9  A    between atoms: C_19  and  C_22
REMARK                            x       y       z     vdW  Elec       q    Type
REMARK                         _______ _______ _______ _____ _____    ______ ____
ROOT
ATOM      2  O   UNL     1      -3.025 -11.373  14.394  0.00  0.00    -0.366 OA
ATOM      8  C   UNL     1      -3.635 -10.439  12.291  0.00  0.00    +0.118 C 
ATOM      9  C   UNL     1      -4.090 -10.647  13.741  0.00  0.00    +0.152 C 
ATOM     10  C   UNL     1      -2.675 -11.598  12.063  0.00  0.00    +0.165 C 
ATOM     11  C   UNL     1      -2.001 -11.676  13.428  0.00  0.00    +0.174 C 
ENDROOT
BRANCH   8   5
ATOM      5  N   UNL     1      -4.688 -10.304  11.300  0.00  0.00    -0.292 NA
ATOM      6  N   UNL     1      -6.122  -9.044   9.175  0.00  0.00    -0.327 N 
ATOM     12  C   UNL     1      -5.482  -9.095  11.555  0.00  0.00    +0.104 C 
ATOM     13  C   UNL     1      -4.119 -10.251   9.947  0.00  0.00    +0.104 C 
ATOM     15  C   UNL     1      -6.630  -8.971  10.551  0.00  0.00    +0.120 C 
ATOM     16  C   UNL     1      -5.222 -10.165   8.889  0.00  0.00    +0.120 C 
BRANCH   6  18
ATOM     18  C   UNL     1      -6.916  -8.513   8.152  0.00  0.00    +0.030 A 
ATOM     20  C   UNL     1      -7.684  -7.372   8.386  0.00  0.00    +0.023 A 
ATOM     21  C   UNL     1      -6.937  -9.123   6.898  0.00  0.00    +0.023 A 
ATOM     23  C   UNL     1      -8.472  -6.841   7.364  0.00  0.00    +0.002 A 
ATOM     24  C   UNL     1      -7.725  -8.592   5.878  0.00  0.00    +0.002 A 
ATOM     25  C   UNL     1      -8.493  -7.451   6.111  0.00  0.00    +0.000 A 
ENDBRANCH   6  18
ENDBRANCH   8   5
BRANCH  10   3
ATOM      3  O   UNL     1      -3.373 -12.805  11.787  0.00  0.00    -0.388 OA
ATOM     31  H   UNL     1      -3.782 -13.105  12.616  0.00  0.00    +0.210 HD
ENDBRANCH  10   3
BRANCH   9  14
ATOM     14  C   UNL     1      -5.373 -11.446  13.947  0.00  0.00    +0.114 C 
BRANCH  14   7
ATOM      7  N   UNL     1      -6.352 -10.674  14.700  0.00  0.00    -0.310 NA
ATOM     32  H   UNL     1      -6.966 -11.311  15.207  0.00  0.00    +0.122 HD
BRANCH   7  19
ATOM     19  C   UNL     1      -5.695  -9.776  15.641  0.00  0.00    +0.116 C 
BRANCH  19  22
ATOM      1 CL   UNL     1      -3.386 -12.275  19.589  0.00  0.00    -0.084 Cl
ATOM     22  C   UNL     1      -5.763 -10.297  17.052  0.00  0.00    -0.032 A 
ATOM     26  C   UNL     1      -4.670 -10.966  17.602  0.00  0.00    +0.025 A 
ATOM     27  C   UNL     1      -6.921 -10.112  17.807  0.00  0.00    +0.005 A 
ATOM     28  C   UNL     1      -4.734 -11.449  18.909  0.00  0.00    +0.041 A 
ATOM     29  C   UNL     1      -6.985 -10.595  19.114  0.00  0.00    +0.002 A 
ATOM     30  C   UNL     1      -5.891 -11.264  19.665  0.00  0.00    +0.020 A 
ENDBRANCH  19  22
ENDBRANCH   7  19
ENDBRANCH  14   7
ENDBRANCH   9  14
BRANCH  11  17
ATOM     17  C   UNL     1      -1.370 -13.013  13.770  0.00  0.00    +0.190 C 
BRANCH  17   4
ATOM      4  O   UNL     1      -2.279 -13.762  14.558  0.00  0.00    -0.392 OA
ATOM     33  H   UNL     1      -1.752 -14.278  15.192  0.00  0.00    +0.210 HD
ENDBRANCH  17   4
ENDBRANCH  11  17
TORSDOF 9
ENDMDL
MODEL 6
REMARK VINA RESULT:      -6.3     31.274     36.278
REMARK  Name = 28961418
REMARK  9 active torsions:
REMARK  status: ('A' for Active; 'I' for Inactive)
REMARK    1  A    between atoms: O_3  and  C_10
REMARK    2  A    between atoms: O_4  and  C_17
REMARK    3  A    between atoms: N_5  and  C_8
REMARK    4  A    between atoms: N_6  and  C_18
REMARK    5  A    between atoms: N_7  and  C_14
REMARK    6  A    between atoms: N_7  and  C_19
REMARK    7  A    between atoms: C_9  and  C_14
REMARK    8  A    between atoms: C_11  and  C_17
REMARK    9  A    between atoms: C_19  and  C_22
REMARK                            x       y       z     vdW  Elec       q    Type
REMARK                         _______ _______ _______ _____ _____    ______ ____
ROOT
ATOM      2  O   UNL     1       9.067   5.756   6.733  0.00  0.00    -0.366 OA
ATOM      8  C   UNL     1      11.043   7.050   6.442  0.00  0.00    +0.118 C 
ATOM      9  C   UNL     1      10.015   6.166   5.724  0.00  0.00    +0.152 C 
ATOM     10  C   UNL     1      10.981   6.552   7.878  0.00  0.00    +0.165 C 
ATOM     11  C   UNL     1       9.489   6.268   8.012  0.00  0.00    +0.174 C 
ENDROOT
BRANCH   8   5
ATOM      5  N   UNL     1      12.373   7.092   5.859  0.00  0.00    -0.292 NA
ATOM      6  N   UNL     1      14.862   8.288   5.129  0.00  0.00    -0.327 N 
ATOM     12  C   UNL     1      12.431   8.088   4.781  0.00  0.00    +0.104 C 
ATOM     13  C   UNL     1      13.375   7.409   6.884  0.00  0.00    +0.104 C 
ATOM     15  C   UNL     1      13.811   8.102   4.121  0.00  0.00    +0.120 C 
ATOM     16  C   UNL     1      14.787   7.402   6.295  0.00  0.00    +0.120 C 
BRANCH   6  18
ATOM     18  C   UNL     1      16.105   8.769   4.702  0.00  0.00    +0.030 A 
ATOM     20  C   UNL     1      17.214   8.679   5.543  0.00  0.00    +0.023 A 
ATOM     21  C   UNL     1      16.235   9.337   3.435  0.00  0.00    +0.023 A 
ATOM     23  C   UNL     1      18.454   9.157   5.116  0.00  0.00    +0.002 A 
ATOM     24  C   UNL     1      17.474   9.814   3.008  0.00  0.00    +0.002 A 
ATOM     25  C   UNL     1      18.584   9.724   3.849  0.00  0.00    +0.000 A 
ENDBRANCH   6  18
ENDBRANCH   8   5
BRANCH  10   3
ATOM      3  O   UNL     1      11.728   5.355   8.047  0.00  0.00    -0.388 OA
ATOM     31  H   UNL     1      11.679   5.106   8.985  0.00  0.00    +0.210 HD
ENDBRANCH  10   3
BRANCH   9  14
ATOM     14  C   UNL     1      10.547   4.899   5.062  0.00  0.00    +0.114 C 
BRANCH  14   7
ATOM      7  N   UNL     1      11.166   5.203   3.779  0.00  0.00    -0.310 NA
ATOM     32  H   UNL     1      12.161   4.983   3.825  0.00  0.00    +0.122 HD
BRANCH   7  19
ATOM     19  C   UNL     1      10.545   4.438   2.706  0.00  0.00    +0.116 C 
BRANCH  19  22
ATOM      1 CL   UNL     1      15.429   3.478   1.163  0.00  0.00    -0.084 Cl
ATOM     22  C   UNL     1      11.511   4.159   1.586  0.00  0.00    -0.032 A 
ATOM     26  C   UNL     1      12.864   3.969   1.862  0.00  0.00    +0.025 A 
ATOM     27  C   UNL     1      11.051   4.092   0.270  0.00  0.00    +0.005 A 
ATOM     28  C   UNL     1      13.759   3.712   0.823  0.00  0.00    +0.041 A 
ATOM     29  C   UNL     1      11.945   3.834  -0.769  0.00  0.00    +0.002 A 
ATOM     30  C   UNL     1      13.300   3.644  -0.492  0.00  0.00    +0.020 A 
ENDBRANCH  19  22
ENDBRANCH   7  19
ENDBRANCH  14   7
ENDBRANCH   9  14
BRANCH  11  17
ATOM     17  C   UNL     1       9.106   5.280   9.098  0.00  0.00    +0.190 C 
BRANCH  17   4
ATOM      4  O   UNL     1       9.496   3.978   8.694  0.00  0.00    -0.392 OA
ATOM     33  H   UNL     1       9.421   3.945   7.724  0.00  0.00    +0.210 HD
ENDBRANCH  17   4
ENDBRANCH  11  17
TORSDOF 9
ENDMDL
MODEL 7
REMARK VINA RESULT:      -6.2      5.284     10.075
REMARK  Name = 28961418
REMARK  9 active torsions:
REMARK  status: ('A' for Active; 'I' for Inactive)
REMARK    1  A    between atoms: O_3  and  C_10
REMARK    2  A    between atoms: O_4  and  C_17
REMARK    3  A    between atoms: N_5  and  C_8
REMARK    4  A    between atoms: N_6  and  C_18
REMARK    5  A    between atoms: N_7  and  C_14
REMARK    6  A    between atoms: N_7  and  C_19
REMARK    7  A    between atoms: C_9  and  C_14
REMARK    8  A    between atoms: C_11  and  C_17
REMARK    9  A    between atoms: C_19  and  C_22
REMARK                            x       y       z     vdW  Elec       q    Type
REMARK                         _______ _______ _______ _____ _____    ______ ____
ROOT
ATOM      2  O   UNL     1     -16.630   5.224  22.643  0.00  0.00    -0.366 OA
ATOM      8  C   UNL     1     -14.796   6.530  21.869  0.00  0.00    +0.118 C 
ATOM      9  C   UNL     1     -16.232   6.089  21.556  0.00  0.00    +0.152 C 
ATOM     10  C   UNL     1     -14.270   5.395  22.735  0.00  0.00    +0.165 C 
ATOM     11  C   UNL     1     -15.518   5.057  23.543  0.00  0.00    +0.174 C 
ENDROOT
BRANCH   8   5
ATOM      5  N   UNL     1     -13.966   6.872  20.727  0.00  0.00    -0.292 NA
ATOM      6  N   UNL     1     -12.279   8.542  19.139  0.00  0.00    -0.327 N 
ATOM     12  C   UNL     1     -14.525   8.028  20.014  0.00  0.00    +0.104 C 
ATOM     13  C   UNL     1     -12.594   7.168  21.158  0.00  0.00    +0.104 C 
ATOM     15  C   UNL     1     -13.690   8.365  18.776  0.00  0.00    +0.120 C 
ATOM     16  C   UNL     1     -11.695   7.477  19.958  0.00  0.00    +0.120 C 
BRANCH   6  18
ATOM     18  C   UNL     1     -11.463   9.274  18.268  0.00  0.00    +0.030 A 
ATOM     20  C   UNL     1     -10.856  10.452  18.705  0.00  0.00    +0.023 A 
ATOM     21  C   UNL     1     -11.255   8.825  16.964  0.00  0.00    +0.023 A 
ATOM     23  C   UNL     1     -10.041  11.179  17.837  0.00  0.00    +0.002 A 
ATOM     24  C   UNL     1     -10.440   9.552  16.098  0.00  0.00    +0.002 A 
ATOM     25  C   UNL     1      -9.832  10.729  16.534  0.00  0.00    +0.000 A 
ENDBRANCH   6  18
ENDBRANCH   8   5
BRANCH  10   3
ATOM      3  O   UNL     1     -13.874   4.280  21.948  0.00  0.00    -0.388 OA
ATOM     31  H   UNL     1     -13.117   4.556  21.404  0.00  0.00    +0.210 HD
ENDBRANCH  10   3
BRANCH   9  14
ATOM     14  C   UNL     1     -16.442   5.314  20.260  0.00  0.00    +0.114 C 
BRANCH  14   7
ATOM      7  N   UNL     1     -17.772   5.555  19.719  0.00  0.00    -0.310 NA
ATOM     32  H   UNL     1     -18.431   5.682  20.487  0.00  0.00    +0.122 HD
BRANCH   7  19
ATOM     19  C   UNL     1     -17.781   6.738  18.867  0.00  0.00    +0.116 C 
BRANCH  19  22
ATOM      1 CL   UNL     1     -15.116   8.105  14.603  0.00  0.00    -0.084 Cl
ATOM     22  C   UNL     1     -17.348   6.419  17.461  0.00  0.00    -0.032 A 
ATOM     26  C   UNL     1     -16.529   7.306  16.765  0.00  0.00    +0.025 A 
ATOM     27  C   UNL     1     -17.770   5.235  16.854  0.00  0.00    +0.005 A 
ATOM     28  C   UNL     1     -16.129   7.010  15.462  0.00  0.00    +0.041 A 
ATOM     29  C   UNL     1     -17.370   4.939  15.552  0.00  0.00    +0.002 A 
ATOM     30  C   UNL     1     -16.549   5.827  14.855  0.00  0.00    +0.020 A 
ENDBRANCH  19  22
ENDBRANCH   7  19
ENDBRANCH  14   7
ENDBRANCH   9  14
BRANCH  11  17
ATOM     17  C   UNL     1     -15.556   3.659  24.133  0.00  0.00    +0.190 C 
BRANCH  17   4
ATOM      4  O   UNL     1     -16.007   2.754  23.139  0.00  0.00    -0.392 OA
ATOM     33  H   UNL     1     -15.218   2.343  22.746  0.00  0.00    +0.210 HD
ENDBRANCH  17   4
ENDBRANCH  11  17
TORSDOF 9
ENDMDL
MODEL 8
REMARK VINA RESULT:      -6.2     13.432     16.564
REMARK  Name = 28961418
REMARK  9 active torsions:
REMARK  status: ('A' for Active; 'I' for Inactive)
REMARK    1  A    between atoms: O_3  and  C_10
REMARK    2  A    between atoms: O_4  and  C_17
REMARK    3  A    between atoms: N_5  and  C_8
REMARK    4  A    between atoms: N_6  and  C_18
REMARK    5  A    between atoms: N_7  and  C_14
REMARK    6  A    between atoms: N_7  and  C_19
REMARK    7  A    between atoms: C_9  and  C_14
REMARK    8  A    between atoms: C_11  and  C_17
REMARK    9  A    between atoms: C_19  and  C_22
REMARK                            x       y       z     vdW  Elec       q    Type
REMARK                         _______ _______ _______ _____ _____    ______ ____
ROOT
ATOM      2  O   UNL     1      -4.252  13.701  33.584  0.00  0.00    -0.366 OA
ATOM      8  C   UNL     1      -6.429  12.780  33.861  0.00  0.00    +0.118 C 
ATOM      9  C   UNL     1      -5.019  12.849  34.462  0.00  0.00    +0.152 C 
ATOM     10  C   UNL     1      -6.185  13.048  32.383  0.00  0.00    +0.165 C 
ATOM     11  C   UNL     1      -5.075  14.089  32.467  0.00  0.00    +0.174 C 
ENDROOT
BRANCH   8   5
ATOM      5  N   UNL     1      -7.194  11.580  34.154  0.00  0.00    -0.292 NA
ATOM      6  N   UNL     1      -9.439  10.085  35.092  0.00  0.00    -0.327 N 
ATOM     12  C   UNL     1      -7.476  11.488  35.592  0.00  0.00    +0.104 C 
ATOM     13  C   UNL     1      -8.453  11.574  33.398  0.00  0.00    +0.104 C 
ATOM     15  C   UNL     1      -8.234  10.200  35.922  0.00  0.00    +0.120 C 
ATOM     16  C   UNL     1      -9.243  10.289  33.654  0.00  0.00    +0.120 C 
BRANCH   6  18
ATOM     18  C   UNL     1     -10.468   9.248  35.540  0.00  0.00    +0.030 A 
ATOM     20  C   UNL     1     -11.648   9.138  34.804  0.00  0.00    +0.023 A 
ATOM     21  C   UNL     1     -10.313   8.523  36.721  0.00  0.00    +0.023 A 
ATOM     23  C   UNL     1     -12.672   8.301  35.250  0.00  0.00    +0.002 A 
ATOM     24  C   UNL     1     -11.336   7.686  37.165  0.00  0.00    +0.002 A 
ATOM     25  C   UNL     1     -12.516   7.576  36.430  0.00  0.00    +0.000 A 
ENDBRANCH   6  18
ENDBRANCH   8   5
BRANCH  10   3
ATOM      3  O   UNL     1      -5.722  11.884  31.712  0.00  0.00    -0.388 OA
ATOM     31  H   UNL     1      -6.195  11.825  30.865  0.00  0.00    +0.210 HD
ENDBRANCH  10   3
BRANCH   9  14
ATOM     14  C   UNL     1      -4.264  11.530  34.586  0.00  0.00    +0.114 C 
BRANCH  14   7
ATOM      7  N   UNL     1      -3.870  11.283  35.966  0.00  0.00    -0.310 NA
ATOM     32  H   UNL     1      -4.406  11.892  36.584  0.00  0.00    +0.122 HD
BRANCH   7  19
ATOM     19  C   UNL     1      -4.098   9.892  36.333  0.00  0.00    +0.116 C 
BRANCH  19  22
ATOM      1 CL   UNL     1      -1.912   6.182  39.269  0.00  0.00    -0.084 Cl
ATOM     22  C   UNL     1      -2.851   9.243  36.871  0.00  0.00    -0.032 A 
ATOM     26  C   UNL     1      -2.949   8.142  37.721  0.00  0.00    +0.025 A 
ATOM     27  C   UNL     1      -1.598   9.745  36.521  0.00  0.00    +0.005 A 
ATOM     28  C   UNL     1      -1.793   7.542  38.220  0.00  0.00    +0.041 A 
ATOM     29  C   UNL     1      -0.442   9.145  37.019  0.00  0.00    +0.002 A 
ATOM     30  C   UNL     1      -0.539   8.043  37.869  0.00  0.00    +0.020 A 
ENDBRANCH  19  22
ENDBRANCH   7  19
ENDBRANCH  14   7
ENDBRANCH   9  14
BRANCH  11  17
ATOM     17  C   UNL     1      -4.208  14.221  31.228  0.00  0.00    +0.190 C 
BRANCH  17   4
ATOM      4  O   UNL     1      -3.159  13.269  31.299  0.00  0.00    -0.392 OA
ATOM     33  H   UNL     1      -3.572  12.392  31.367  0.00  0.00    +0.210 HD
ENDBRANCH  17   4
ENDBRANCH  11  17
TORSDOF 9
ENDMDL
MODEL 9
REMARK VINA RESULT:      -6.2     17.973     20.001
REMARK  Name = 28961418
REMARK  9 active torsions:
REMARK  status: ('A' for Active; 'I' for Inactive)
REMARK    1  A    between atoms: O_3  and  C_10
REMARK    2  A    between atoms: O_4  and  C_17
REMARK    3  A    between atoms: N_5  and  C_8
REMARK    4  A    between atoms: N_6  and  C_18
REMARK    5  A    between atoms: N_7  and  C_14
REMARK    6  A    between atoms: N_7  and  C_19
REMARK    7  A    between atoms: C_9  and  C_14
REMARK    8  A    between atoms: C_11  and  C_17
REMARK    9  A    between atoms: C_19  and  C_22
REMARK                            x       y       z     vdW  Elec       q    Type
REMARK                         _______ _______ _______ _____ _____    ______ ____
ROOT
ATOM      2  O   UNL     1      -4.468 -12.563  17.012  0.00  0.00    -0.366 OA
ATOM      8  C   UNL     1      -6.619 -11.544  17.048  0.00  0.00    +0.118 C 
ATOM      9  C   UNL     1      -5.389 -11.829  16.176  0.00  0.00    +0.152 C 
ATOM     10  C   UNL     1      -6.049 -11.556  18.459  0.00  0.00    +0.165 C 
ATOM     11  C   UNL     1      -5.023 -12.677  18.336  0.00  0.00    +0.174 C 
ENDROOT
BRANCH   8   5
ATOM      5  N   UNL     1      -7.391 -10.363  16.704  0.00  0.00    -0.292 NA
ATOM      6  N   UNL     1      -9.766  -8.827  16.302  0.00  0.00    -0.327 N 
ATOM     12  C   UNL     1      -8.269 -10.638  15.558  0.00  0.00    +0.104 C 
ATOM     13  C   UNL     1      -8.193  -9.919  17.851  0.00  0.00    +0.104 C 
ATOM     15  C   UNL     1      -9.047  -9.385  15.150  0.00  0.00    +0.120 C 
ATOM     16  C   UNL     1      -8.970  -8.642  17.519  0.00  0.00    +0.120 C 
BRANCH   6  18
ATOM     18  C   UNL     1     -10.856  -7.985  16.052  0.00  0.00    +0.030 A 
ATOM     20  C   UNL     1     -12.154  -8.436  16.290  0.00  0.00    +0.023 A 
ATOM     21  C   UNL     1     -10.645  -6.696  15.566  0.00  0.00    +0.023 A 
ATOM     23  C   UNL     1     -13.241  -7.596  16.044  0.00  0.00    +0.002 A 
ATOM     24  C   UNL     1     -11.730  -5.856  15.320  0.00  0.00    +0.002 A 
ATOM     25  C   UNL     1     -13.029  -6.306  15.559  0.00  0.00    +0.000 A 
ENDBRANCH   6  18
ENDBRANCH   8   5
BRANCH  10   3
ATOM      3  O   UNL     1      -5.406 -10.328  18.772  0.00  0.00    -0.388 OA
ATOM     31  H   UNL     1      -4.765 -10.503  19.481  0.00  0.00    +0.210 HD
ENDBRANCH  10   3
BRANCH   9  14
ATOM     14  C   UNL     1      -4.640 -10.615  15.634  0.00  0.00    +0.114 C 
BRANCH  14   7
ATOM      7  N   UNL     1      -5.061 -10.308  14.274  0.00  0.00    -0.310 NA
ATOM     32  H   UNL     1      -5.176  -9.300  14.177  0.00  0.00    +0.122 HD
BRANCH   7  19
ATOM     19  C   UNL     1      -4.082 -10.784  13.306  0.00  0.00    +0.116 C 
BRANCH  19  22
ATOM      1 CL   UNL     1      -7.177  -8.504   9.787  0.00  0.00    -0.084 Cl
ATOM     22  C   UNL     1      -4.232 -10.097  11.974  0.00  0.00    -0.032 A 
ATOM     26  C   UNL     1      -5.488  -9.669  11.548  0.00  0.00    +0.025 A 
ATOM     27  C   UNL     1      -3.113  -9.892  11.167  0.00  0.00    +0.005 A 
ATOM     28  C   UNL     1      -5.627  -9.034  10.314  0.00  0.00    +0.041 A 
ATOM     29  C   UNL     1      -3.251  -9.256   9.933  0.00  0.00    +0.002 A 
ATOM     30  C   UNL     1      -4.508  -8.827   9.506  0.00  0.00    +0.020 A 
ENDBRANCH  19  22
ENDBRANCH   7  19
ENDBRANCH  14   7
ENDBRANCH   9  14
BRANCH  11  17
ATOM     17  C   UNL     1      -3.898 -12.646  19.354  0.00  0.00    +0.190 C 
BRANCH  17   4
ATOM      4  O   UNL     1      -2.829 -11.871  18.836  0.00  0.00    -0.392 OA
ATOM     33  H   UNL     1      -2.041 -12.079  19.366  0.00  0.00    +0.210 HD
ENDBRANCH  17   4
ENDBRANCH  11  17
TORSDOF 9
ENDMDL
MODEL 10
REMARK VINA RESULT:      -6.2     17.653     20.179
REMARK  Name = 28961418
REMARK  9 active torsions:
REMARK  status: ('A' for Active; 'I' for Inactive)
REMARK    1  A    between atoms: O_3  and  C_10
REMARK    2  A    between atoms: O_4  and  C_17
REMARK    3  A    between atoms: N_5  and  C_8
REMARK    4  A    between atoms: N_6  and  C_18
REMARK    5  A    between atoms: N_7  and  C_14
REMARK    6  A    between atoms: N_7  and  C_19
REMARK    7  A    between atoms: C_9  and  C_14
REMARK    8  A    between atoms: C_11  and  C_17
REMARK    9  A    between atoms: C_19  and  C_22
REMARK                            x       y       z     vdW  Elec       q    Type
REMARK                         _______ _______ _______ _____ _____    ______ ____
ROOT
ATOM      2  O   UNL     1      -8.260 -11.197  19.791  0.00  0.00    -0.366 OA
ATOM      8  C   UNL     1      -6.613 -11.592  18.119  0.00  0.00    +0.118 C 
ATOM      9  C   UNL     1      -7.587 -10.552  18.688  0.00  0.00    +0.152 C 
ATOM     10  C   UNL     1      -7.259 -12.915  18.505  0.00  0.00    +0.165 C 
ATOM     11  C   UNL     1      -7.814 -12.564  19.880  0.00  0.00    +0.174 C 
ENDROOT
BRANCH   8   5
ATOM      5  N   UNL     1      -6.276 -11.456  16.713  0.00  0.00    -0.292 NA
ATOM      6  N   UNL     1      -4.609 -10.824  14.481  0.00  0.00    -0.327 N 
ATOM     12  C   UNL     1      -5.962 -10.057  16.392  0.00  0.00    +0.104 C 
ATOM     13  C   UNL     1      -5.135 -12.314  16.370  0.00  0.00    +0.104 C 
ATOM     15  C   UNL     1      -5.660  -9.890  14.901  0.00  0.00    +0.120 C 
ATOM     16  C   UNL     1      -4.804 -12.221  14.879  0.00  0.00    +0.120 C 
BRANCH   6  18
ATOM     18  C   UNL     1      -3.895 -10.529  13.314  0.00  0.00    +0.030 A 
ATOM     20  C   UNL     1      -2.500 -10.565  13.321  0.00  0.00    +0.023 A 
ATOM     21  C   UNL     1      -4.577 -10.200  12.143  0.00  0.00    +0.023 A 
ATOM     23  C   UNL     1      -1.789 -10.273  12.157  0.00  0.00    +0.002 A 
ATOM     24  C   UNL     1      -3.866  -9.908  10.980  0.00  0.00    +0.002 A 
ATOM     25  C   UNL     1      -2.471  -9.945  10.987  0.00  0.00    +0.000 A 
ENDBRANCH   6  18
ENDBRANCH   8   5
BRANCH  10   3
ATOM      3  O   UNL     1      -8.315 -13.257  17.617  0.00  0.00    -0.388 OA
ATOM     31  H   UNL     1      -9.086 -13.501  18.157  0.00  0.00    +0.210 HD
ENDBRANCH  10   3
BRANCH   9  14
ATOM     14  C   UNL     1      -8.664 -10.035  17.740  0.00  0.00    +0.114 C 
BRANCH  14   7
ATOM      7  N   UNL     1      -9.728  -9.367  18.476  0.00  0.00    -0.310 NA
ATOM     32  H   UNL     1      -9.553  -8.362  18.484  0.00  0.00    +0.122 HD
BRANCH   7  19
ATOM     19  C   UNL     1     -11.027  -9.631  17.871  0.00  0.00    +0.116 C 
BRANCH  19  22
ATOM      1 CL   UNL     1     -15.011  -7.257  15.494  0.00  0.00    -0.084 Cl
ATOM     22  C   UNL     1     -11.559  -8.427  17.140  0.00  0.00    -0.032 A 
ATOM     26  C   UNL     1     -12.884  -8.403  16.707  0.00  0.00    +0.025 A 
ATOM     27  C   UNL     1     -10.724  -7.336  16.896  0.00  0.00    +0.005 A 
ATOM     28  C   UNL     1     -13.376  -7.288  16.029  0.00  0.00    +0.041 A 
ATOM     29  C   UNL     1     -11.217  -6.220  16.219  0.00  0.00    +0.002 A 
ATOM     30  C   UNL     1     -12.543  -6.196  15.786  0.00  0.00    +0.020 A 
ENDBRANCH  19  22
ENDBRANCH   7  19
ENDBRANCH  14   7
ENDBRANCH   9  14
BRANCH  11  17
ATOM     17  C   UNL     1      -8.961 -13.434  20.363  0.00  0.00    +0.190 C 
BRANCH  17   4
ATOM      4  O   UNL     1      -8.638 -14.793  20.123  0.00  0.00    -0.392 OA
ATOM     33  H   UNL     1      -7.881 -14.805  19.512  0.00  0.00    +0.210 HD
ENDBRANCH  17   4
ENDBRANCH  11  17
TORSDOF 9
ENDMDL
