MODEL 1
REMARK VINA RESULT:      -6.1      0.000      0.000
REMARK  Name = 7144135
REMARK  4 active torsions:
REMARK  status: ('A' for Active; 'I' for Inactive)
REMARK    1  A    between atoms: S_2  and  C_20
REMARK    2  A    between atoms: S_2  and  C_26
REMARK    3  A    between atoms: C_14  and  C_19
REMARK    4  A    between atoms: C_16  and  C_20
REMARK                            x       y       z     vdW  Elec       q    Type
REMARK                         _______ _______ _______ _____ _____    ______ ____
ROOT
ATOM      3  O   UNL     1       7.131   9.551   4.753  0.00  0.00    -0.268 OA
ATOM      4  O   UNL     1      11.680   9.778   7.399  0.00  0.00    -0.275 OA
ATOM      5  N   UNL     1      11.318   7.611   6.647  0.00  0.00    -0.300 N 
ATOM      6  N   UNL     1       8.636   7.766   4.941  0.00  0.00    -0.311 N 
ATOM      7  C   UNL     1       9.095   6.631   7.194  0.00  0.00    +0.027 C 
ATOM      8  C   UNL     1      10.287   5.886   5.177  0.00  0.00    +0.054 C 
ATOM      9  C   UNL     1       9.427   5.412   6.347  0.00  0.00    +0.018 C 
ATOM     10  C   UNL     1      10.377   7.294   7.721  0.00  0.00    +0.113 C 
ATOM     11  C   UNL     1       8.258   7.594   6.350  0.00  0.00    +0.130 C 
ATOM     12  C   UNL     1      11.593   6.506   5.720  0.00  0.00    +0.117 C 
ATOM     13  C   UNL     1       9.544   6.899   4.302  0.00  0.00    +0.034 A 
ATOM     14  C   UNL     1       9.749   7.000   2.964  0.00  0.00    +0.002 A 
ATOM     15  C   UNL     1       7.943   8.776   4.248  0.00  0.00    +0.252 A 
ATOM     16  C   UNL     1      11.927   8.865   6.607  0.00  0.00    +0.225 C 
ATOM     17  C   UNL     1       9.055   8.032   2.217  0.00  0.00    +0.015 A 
ATOM     18  C   UNL     1       8.213   8.887   2.797  0.00  0.00    +0.071 A 
ENDROOT
BRANCH  14  19
ATOM      1 CL   UNL     1      13.505   3.357   0.061  0.00  0.00    -0.084 Cl
ATOM     19  C   UNL     1      10.677   6.100   2.246  0.00  0.00    -0.016 A 
ATOM     21  C   UNL     1      12.008   6.470   2.080  0.00  0.00    +0.010 A 
ATOM     22  C   UNL     1      10.214   4.888   1.742  0.00  0.00    +0.010 A 
ATOM     23  C   UNL     1      12.885   5.620   1.403  0.00  0.00    +0.020 A 
ATOM     24  C   UNL     1      11.089   4.039   1.065  0.00  0.00    +0.020 A 
ATOM     25  C   UNL     1      12.425   4.406   0.896  0.00  0.00    +0.041 A 
ENDBRANCH  14  19
BRANCH  16  20
ATOM     20  C   UNL     1      12.939   9.091   5.514  0.00  0.00    +0.164 C 
BRANCH  20   2
ATOM      2  S   UNL     1      14.532   9.390   6.295  0.00  0.00    -0.155 S 
ATOM     26  C   UNL     1      15.174   7.698   6.276  0.00  0.00    +0.085 C 
ENDBRANCH  20   2
ENDBRANCH  16  20
TORSDOF 3
ENDMDL
MODEL 2
REMARK VINA RESULT:      -6.0      2.271      4.047
REMARK  Name = 7144135
REMARK  4 active torsions:
REMARK  status: ('A' for Active; 'I' for Inactive)
REMARK    1  A    between atoms: S_2  and  C_20
REMARK    2  A    between atoms: S_2  and  C_26
REMARK    3  A    between atoms: C_14  and  C_19
REMARK    4  A    between atoms: C_16  and  C_20
REMARK                            x       y       z     vdW  Elec       q    Type
REMARK                         _______ _______ _______ _____ _____    ______ ____
ROOT
ATOM      3  O   UNL     1      10.921   5.813   8.770  0.00  0.00    -0.268 OA
ATOM      4  O   UNL     1      10.964  10.762   6.968  0.00  0.00    -0.275 OA
ATOM      5  N   UNL     1      12.089   9.377   5.481  0.00  0.00    -0.300 N 
ATOM      6  N   UNL     1      11.770   6.447   6.681  0.00  0.00    -0.311 N 
ATOM      7  C   UNL     1      13.854   7.927   6.474  0.00  0.00    +0.027 C 
ATOM      8  C   UNL     1      12.668   7.185   4.452  0.00  0.00    +0.054 C 
ATOM      9  C   UNL     1      14.035   7.234   5.132  0.00  0.00    +0.018 C 
ATOM     10  C   UNL     1      13.313   9.353   6.283  0.00  0.00    +0.113 C 
ATOM     11  C   UNL     1      12.924   7.074   7.339  0.00  0.00    +0.130 C 
ATOM     12  C   UNL     1      12.159   8.625   4.222  0.00  0.00    +0.117 C 
ATOM     13  C   UNL     1      11.653   6.391   5.278  0.00  0.00    +0.034 A 
ATOM     14  C   UNL     1      10.651   5.671   4.711  0.00  0.00    +0.002 A 
ATOM     15  C   UNL     1      10.858   5.807   7.540  0.00  0.00    +0.252 A 
ATOM     16  C   UNL     1      10.999  10.137   5.905  0.00  0.00    +0.225 C 
ATOM     17  C   UNL     1       9.688   5.001   5.566  0.00  0.00    +0.015 A 
ATOM     18  C   UNL     1       9.755   5.060   6.895  0.00  0.00    +0.071 A 
ENDROOT
BRANCH  14  19
ATOM      1 CL   UNL     1      10.035   5.246  -1.226  0.00  0.00    -0.084 Cl
ATOM     19  C   UNL     1      10.498   5.566   3.244  0.00  0.00    -0.016 A 
ATOM     21  C   UNL     1      10.972   4.440   2.579  0.00  0.00    +0.010 A 
ATOM     22  C   UNL     1       9.882   6.595   2.537  0.00  0.00    +0.010 A 
ATOM     23  C   UNL     1      10.828   4.340   1.194  0.00  0.00    +0.020 A 
ATOM     24  C   UNL     1       9.739   6.496   1.154  0.00  0.00    +0.020 A 
ATOM     25  C   UNL     1      10.212   5.369   0.482  0.00  0.00    +0.041 A 
ENDBRANCH  14  19
BRANCH  16  20
ATOM     20  C   UNL     1       9.802  10.171   4.991  0.00  0.00    +0.164 C 
BRANCH  20   2
ATOM      2  S   UNL     1       8.654   8.901   5.543  0.00  0.00    -0.155 S 
ATOM     26  C   UNL     1       7.488   8.957   4.160  0.00  0.00    +0.085 C 
ENDBRANCH  20   2
ENDBRANCH  16  20
TORSDOF 3
ENDMDL
MODEL 3
REMARK VINA RESULT:      -5.9      4.399      7.338
REMARK  Name = 7144135
REMARK  4 active torsions:
REMARK  status: ('A' for Active; 'I' for Inactive)
REMARK    1  A    between atoms: S_2  and  C_20
REMARK    2  A    between atoms: S_2  and  C_26
REMARK    3  A    between atoms: C_14  and  C_19
REMARK    4  A    between atoms: C_16  and  C_20
REMARK                            x       y       z     vdW  Elec       q    Type
REMARK                         _______ _______ _______ _____ _____    ______ ____
ROOT
ATOM      3  O   UNL     1      13.550   7.061   6.384  0.00  0.00    -0.268 OA
ATOM      4  O   UNL     1       9.356   6.997   3.198  0.00  0.00    -0.275 OA
ATOM      5  N   UNL     1       8.674   7.397   5.382  0.00  0.00    -0.300 N 
ATOM      6  N   UNL     1      11.369   7.572   7.067  0.00  0.00    -0.311 N 
ATOM      7  C   UNL     1       9.520   5.795   7.091  0.00  0.00    +0.027 C 
ATOM      8  C   UNL     1       9.008   8.109   7.745  0.00  0.00    +0.054 C 
ATOM      9  C   UNL     1       8.912   6.651   8.191  0.00  0.00    +0.018 C 
ATOM     10  C   UNL     1       8.764   5.988   5.768  0.00  0.00    +0.113 C 
ATOM     11  C   UNL     1      11.002   6.153   6.961  0.00  0.00    +0.130 C 
ATOM     12  C   UNL     1       8.204   8.299   6.441  0.00  0.00    +0.117 C 
ATOM     13  C   UNL     1      10.462   8.542   7.538  0.00  0.00    +0.034 A 
ATOM     14  C   UNL     1      10.887   9.812   7.764  0.00  0.00    +0.002 A 
ATOM     15  C   UNL     1      12.713   7.872   6.783  0.00  0.00    +0.252 A 
ATOM     16  C   UNL     1       8.961   7.775   4.071  0.00  0.00    +0.225 C 
ATOM     17  C   UNL     1      12.266  10.159   7.479  0.00  0.00    +0.015 A 
ATOM     18  C   UNL     1      13.140   9.271   7.005  0.00  0.00    +0.071 A 
ENDROOT
BRANCH  14  19
ATOM      1 CL   UNL     1       7.205  14.051   9.834  0.00  0.00    -0.084 Cl
ATOM     19  C   UNL     1       9.977  10.860   8.276  0.00  0.00    -0.016 A 
ATOM     21  C   UNL     1       9.420  11.782   7.395  0.00  0.00    +0.010 A 
ATOM     22  C   UNL     1       9.683  10.916   9.635  0.00  0.00    +0.010 A 
ATOM     23  C   UNL     1       8.561  12.770   7.877  0.00  0.00    +0.020 A 
ATOM     24  C   UNL     1       8.825  11.905  10.117  0.00  0.00    +0.020 A 
ATOM     25  C   UNL     1       8.264  12.832   9.238  0.00  0.00    +0.041 A 
ENDBRANCH  14  19
BRANCH  16  20
ATOM     20  C   UNL     1       8.777   9.232   3.732  0.00  0.00    +0.164 C 
BRANCH  20   2
ATOM      2  S   UNL     1       7.427   9.352   2.548  0.00  0.00    -0.155 S 
ATOM     26  C   UNL     1       6.159  10.041   3.640  0.00  0.00    +0.085 C 
ENDBRANCH  20   2
ENDBRANCH  16  20
TORSDOF 3
ENDMDL
MODEL 4
REMARK VINA RESULT:      -5.8     23.924     25.916
REMARK  Name = 7144135
REMARK  4 active torsions:
REMARK  status: ('A' for Active; 'I' for Inactive)
REMARK    1  A    between atoms: S_2  and  C_20
REMARK    2  A    between atoms: S_2  and  C_26
REMARK    3  A    between atoms: C_14  and  C_19
REMARK    4  A    between atoms: C_16  and  C_20
REMARK                            x       y       z     vdW  Elec       q    Type
REMARK                         _______ _______ _______ _____ _____    ______ ____
ROOT
ATOM      3  O   UNL     1      -1.856 -10.663  16.625  0.00  0.00    -0.268 OA
ATOM      4  O   UNL     1      -5.085 -14.779  16.013  0.00  0.00    -0.275 OA
ATOM      5  N   UNL     1      -5.888 -12.967  14.802  0.00  0.00    -0.300 N 
ATOM      6  N   UNL     1      -3.696 -10.690  15.176  0.00  0.00    -0.311 N 
ATOM      7  C   UNL     1      -6.099 -10.830  16.062  0.00  0.00    +0.027 C 
ATOM      8  C   UNL     1      -5.684 -10.775  13.640  0.00  0.00    +0.054 C 
ATOM      9  C   UNL     1      -6.462 -10.108  14.773  0.00  0.00    +0.018 C 
ATOM     10  C   UNL     1      -6.469 -12.318  15.977  0.00  0.00    +0.113 C 
ATOM     11  C   UNL     1      -4.606 -10.626  16.328  0.00  0.00    +0.130 C 
ATOM     12  C   UNL     1      -6.102 -12.257  13.534  0.00  0.00    +0.117 C 
ATOM     13  C   UNL     1      -4.172 -10.665  13.850  0.00  0.00    +0.034 A 
ATOM     14  C   UNL     1      -3.294 -10.573  12.818  0.00  0.00    +0.002 A 
ATOM     15  C   UNL     1      -2.325 -10.657  15.486  0.00  0.00    +0.252 A 
ATOM     16  C   UNL     1      -5.253 -14.202  14.936  0.00  0.00    +0.225 C 
ATOM     17  C   UNL     1      -1.871 -10.540  13.099  0.00  0.00    +0.015 A 
ATOM     18  C   UNL     1      -1.389 -10.593  14.341  0.00  0.00    +0.071 A 
ENDROOT
BRANCH  14  19
ATOM      1 CL   UNL     1      -5.122 -10.373   7.124  0.00  0.00    -0.084 Cl
ATOM     19  C   UNL     1      -3.746 -10.524  11.411  0.00  0.00    -0.016 A 
ATOM     21  C   UNL     1      -4.094  -9.303  10.839  0.00  0.00    +0.010 A 
ATOM     22  C   UNL     1      -3.820 -11.698  10.667  0.00  0.00    +0.010 A 
ATOM     23  C   UNL     1      -4.520  -9.257   9.511  0.00  0.00    +0.020 A 
ATOM     24  C   UNL     1      -4.246 -11.651   9.340  0.00  0.00    +0.020 A 
ATOM     25  C   UNL     1      -4.596 -10.431   8.762  0.00  0.00    +0.041 A 
ENDBRANCH  14  19
BRANCH  16  20
ATOM     20  C   UNL     1      -4.744 -14.841  13.670  0.00  0.00    +0.164 C 
BRANCH  20   2
ATOM      2  S   UNL     1      -3.180 -15.645  14.052  0.00  0.00    -0.155 S 
ATOM     26  C   UNL     1      -2.079 -14.224  13.849  0.00  0.00    +0.085 C 
ENDBRANCH  20   2
ENDBRANCH  16  20
TORSDOF 3
ENDMDL
MODEL 5
REMARK VINA RESULT:      -5.8     25.259     27.982
REMARK  Name = 7144135
REMARK  4 active torsions:
REMARK  status: ('A' for Active; 'I' for Inactive)
REMARK    1  A    between atoms: S_2  and  C_20
REMARK    2  A    between atoms: S_2  and  C_26
REMARK    3  A    between atoms: C_14  and  C_19
REMARK    4  A    between atoms: C_16  and  C_20
REMARK                            x       y       z     vdW  Elec       q    Type
REMARK                         _______ _______ _______ _____ _____    ______ ____
ROOT
ATOM      3  O   UNL     1     -10.588  12.964  17.838  0.00  0.00    -0.268 OA
ATOM      4  O   UNL     1     -14.298  11.040  14.632  0.00  0.00    -0.275 OA
ATOM      5  N   UNL     1     -13.151   9.291  15.642  0.00  0.00    -0.300 N 
ATOM      6  N   UNL     1     -11.113  10.690  17.647  0.00  0.00    -0.311 N 
ATOM      7  C   UNL     1     -10.667   9.389  15.482  0.00  0.00    +0.027 C 
ATOM      8  C   UNL     1     -11.717   8.262  17.398  0.00  0.00    +0.054 C 
ATOM      9  C   UNL     1     -10.563   8.181  16.401  0.00  0.00    +0.018 C 
ATOM     10  C   UNL     1     -12.009   9.390  14.733  0.00  0.00    +0.113 C 
ATOM     11  C   UNL     1     -10.480  10.654  16.321  0.00  0.00    +0.130 C 
ATOM     12  C   UNL     1     -13.058   8.213  16.635  0.00  0.00    +0.117 C 
ATOM     13  C   UNL     1     -11.640   9.532  18.251  0.00  0.00    +0.034 A 
ATOM     14  C   UNL     1     -12.077   9.578  19.536  0.00  0.00    +0.002 A 
ATOM     15  C   UNL     1     -11.050  11.926  18.314  0.00  0.00    +0.252 A 
ATOM     16  C   UNL     1     -14.244  10.141  15.476  0.00  0.00    +0.225 C 
ATOM     17  C   UNL     1     -12.031  10.838  20.255  0.00  0.00    +0.015 A 
ATOM     18  C   UNL     1     -11.567  11.957  19.700  0.00  0.00    +0.071 A 
ENDROOT
BRANCH  14  19
ATOM      1 CL   UNL     1     -14.273   4.748  22.301  0.00  0.00    -0.084 Cl
ATOM     19  C   UNL     1     -12.620   8.384  20.220  0.00  0.00    -0.016 A 
ATOM     21  C   UNL     1     -13.991   8.270  20.425  0.00  0.00    +0.010 A 
ATOM     22  C   UNL     1     -11.755   7.383  20.652  0.00  0.00    +0.010 A 
ATOM     23  C   UNL     1     -14.504   7.143  21.070  0.00  0.00    +0.020 A 
ATOM     24  C   UNL     1     -12.268   6.257  21.297  0.00  0.00    +0.020 A 
ATOM     25  C   UNL     1     -13.642   6.137  21.506  0.00  0.00    +0.041 A 
ENDBRANCH  14  19
BRANCH  16  20
ATOM     20  C   UNL     1     -15.412   9.930  16.404  0.00  0.00    +0.164 C 
BRANCH  20   2
ATOM      2  S   UNL     1     -15.231  11.073  17.781  0.00  0.00    -0.155 S 
ATOM     26  C   UNL     1     -16.575  10.464  18.828  0.00  0.00    +0.085 C 
ENDBRANCH  20   2
ENDBRANCH  16  20
TORSDOF 3
ENDMDL
MODEL 6
REMARK VINA RESULT:      -5.7     25.146     27.220
REMARK  Name = 7144135
REMARK  4 active torsions:
REMARK  status: ('A' for Active; 'I' for Inactive)
REMARK    1  A    between atoms: S_2  and  C_20
REMARK    2  A    between atoms: S_2  and  C_26
REMARK    3  A    between atoms: C_14  and  C_19
REMARK    4  A    between atoms: C_16  and  C_20
REMARK                            x       y       z     vdW  Elec       q    Type
REMARK                         _______ _______ _______ _____ _____    ______ ____
ROOT
ATOM      3  O   UNL     1      -6.036 -15.272  17.064  0.00  0.00    -0.268 OA
ATOM      4  O   UNL     1      -8.356 -10.659  18.103  0.00  0.00    -0.275 OA
ATOM      5  N   UNL     1      -6.209 -10.291  17.296  0.00  0.00    -0.300 N 
ATOM      6  N   UNL     1      -5.094 -13.184  16.574  0.00  0.00    -0.311 N 
ATOM      7  C   UNL     1      -4.393 -11.561  18.432  0.00  0.00    +0.027 C 
ATOM      8  C   UNL     1      -4.132 -10.916  16.074  0.00  0.00    +0.054 C 
ATOM      9  C   UNL     1      -3.395 -11.047  17.406  0.00  0.00    +0.018 C 
ATOM     10  C   UNL     1      -5.574 -10.589  18.579  0.00  0.00    +0.113 C 
ATOM     11  C   UNL     1      -4.851 -12.957  18.005  0.00  0.00    +0.130 C 
ATOM     12  C   UNL     1      -5.285  -9.901  16.224  0.00  0.00    +0.117 C 
ATOM     13  C   UNL     1      -4.674 -12.265  15.593  0.00  0.00    +0.034 A 
ATOM     14  C   UNL     1      -4.782 -12.584  14.277  0.00  0.00    +0.002 A 
ATOM     15  C   UNL     1      -5.665 -14.427  16.248  0.00  0.00    +0.252 A 
ATOM     16  C   UNL     1      -7.599 -10.327  17.186  0.00  0.00    +0.225 C 
ATOM     17  C   UNL     1      -5.369 -13.856  13.902  0.00  0.00    +0.015 A 
ATOM     18  C   UNL     1      -5.804 -14.733  14.806  0.00  0.00    +0.071 A 
ENDROOT
BRANCH  14  19
ATOM      1 CL   UNL     1      -2.977  -8.848   9.965  0.00  0.00    -0.084 Cl
ATOM     19  C   UNL     1      -4.336 -11.660  13.211  0.00  0.00    -0.016 A 
ATOM     21  C   UNL     1      -3.005 -11.665  12.806  0.00  0.00    +0.010 A 
ATOM     22  C   UNL     1      -5.251 -10.793  12.621  0.00  0.00    +0.010 A 
ATOM     23  C   UNL     1      -2.584 -10.794  11.800  0.00  0.00    +0.020 A 
ATOM     24  C   UNL     1      -4.830  -9.922  11.616  0.00  0.00    +0.020 A 
ATOM     25  C   UNL     1      -3.496  -9.923  11.206  0.00  0.00    +0.041 A 
ENDBRANCH  14  19
BRANCH  16  20
ATOM     20  C   UNL     1      -8.183  -9.938  15.853  0.00  0.00    +0.164 C 
BRANCH  20   2
ATOM      2  S   UNL     1      -9.911  -9.510  16.114  0.00  0.00    -0.155 S 
ATOM     26  C   UNL     1      -9.708  -7.755  16.509  0.00  0.00    +0.085 C 
ENDBRANCH  20   2
ENDBRANCH  16  20
TORSDOF 3
ENDMDL
MODEL 7
REMARK VINA RESULT:      -5.4     25.783     28.156
REMARK  Name = 7144135
REMARK  4 active torsions:
REMARK  status: ('A' for Active; 'I' for Inactive)
REMARK    1  A    between atoms: S_2  and  C_20
REMARK    2  A    between atoms: S_2  and  C_26
REMARK    3  A    between atoms: C_14  and  C_19
REMARK    4  A    between atoms: C_16  and  C_20
REMARK                            x       y       z     vdW  Elec       q    Type
REMARK                         _______ _______ _______ _____ _____    ______ ____
ROOT
ATOM      3  O   UNL     1      -1.440 -11.802  14.457  0.00  0.00    -0.268 OA
ATOM      4  O   UNL     1      -5.549 -12.456  11.227  0.00  0.00    -0.275 OA
ATOM      5  N   UNL     1      -6.020 -13.402  13.295  0.00  0.00    -0.300 N 
ATOM      6  N   UNL     1      -3.492 -12.723  15.107  0.00  0.00    -0.311 N 
ATOM      7  C   UNL     1      -4.304 -14.974  14.183  0.00  0.00    +0.027 C 
ATOM      8  C   UNL     1      -5.716 -13.707  15.747  0.00  0.00    +0.054 C 
ATOM      9  C   UNL     1      -5.073 -15.069  15.492  0.00  0.00    +0.018 C 
ATOM     10  C   UNL     1      -5.245 -14.613  13.023  0.00  0.00    +0.113 C 
ATOM     11  C   UNL     1      -3.184 -13.946  14.352  0.00  0.00    +0.130 C 
ATOM     12  C   UNL     1      -6.694 -13.379  14.599  0.00  0.00    +0.117 C 
ATOM     13  C   UNL     1      -4.665 -12.601  15.878  0.00  0.00    +0.034 A 
ATOM     14  C   UNL     1      -4.837 -11.518  16.679  0.00  0.00    +0.002 A 
ATOM     15  C   UNL     1      -2.488 -11.740  15.101  0.00  0.00    +0.252 A 
ATOM     16  C   UNL     1      -6.126 -12.414  12.316  0.00  0.00    +0.225 C 
ATOM     17  C   UNL     1      -3.824 -10.481  16.696  0.00  0.00    +0.015 A 
ATOM     18  C   UNL     1      -2.719 -10.553  15.955  0.00  0.00    +0.071 A 
ENDROOT
BRANCH  14  19
ATOM      1 CL   UNL     1      -9.710 -10.858  20.089  0.00  0.00    -0.084 Cl
ATOM     19  C   UNL     1      -6.042 -11.355  17.522  0.00  0.00    -0.016 A 
ATOM     21  C   UNL     1      -7.104 -10.580  17.066  0.00  0.00    +0.010 A 
ATOM     22  C   UNL     1      -6.105 -11.978  18.766  0.00  0.00    +0.010 A 
ATOM     23  C   UNL     1      -8.241 -10.427  17.861  0.00  0.00    +0.020 A 
ATOM     24  C   UNL     1      -7.241 -11.823  19.560  0.00  0.00    +0.020 A 
ATOM     25  C   UNL     1      -8.308 -11.048  19.108  0.00  0.00    +0.041 A 
ENDBRANCH  14  19
BRANCH  16  20
ATOM     20  C   UNL     1      -6.999 -11.230  12.643  0.00  0.00    +0.164 C 
BRANCH  20   2
ATOM      2  S   UNL     1      -5.938  -9.922  13.274  0.00  0.00    -0.155 S 
ATOM     26  C   UNL     1      -5.970  -8.820  11.839  0.00  0.00    +0.085 C 
ENDBRANCH  20   2
ENDBRANCH  16  20
TORSDOF 3
ENDMDL
MODEL 8
REMARK VINA RESULT:      -5.3     26.678     28.919
REMARK  Name = 7144135
REMARK  4 active torsions:
REMARK  status: ('A' for Active; 'I' for Inactive)
REMARK    1  A    between atoms: S_2  and  C_20
REMARK    2  A    between atoms: S_2  and  C_26
REMARK    3  A    between atoms: C_14  and  C_19
REMARK    4  A    between atoms: C_16  and  C_20
REMARK                            x       y       z     vdW  Elec       q    Type
REMARK                         _______ _______ _______ _____ _____    ______ ____
ROOT
ATOM      3  O   UNL     1      -3.558 -10.668  14.202  0.00  0.00    -0.268 OA
ATOM      4  O   UNL     1      -5.057 -15.121  16.583  0.00  0.00    -0.275 OA
ATOM      5  N   UNL     1      -5.900 -13.292  17.740  0.00  0.00    -0.300 N 
ATOM      6  N   UNL     1      -5.027 -10.757  16.025  0.00  0.00    -0.311 N 
ATOM      7  C   UNL     1      -4.243 -11.533  18.341  0.00  0.00    +0.027 C 
ATOM      8  C   UNL     1      -6.595 -10.914  17.983  0.00  0.00    +0.054 C 
ATOM      9  C   UNL     1      -5.370 -10.651  18.857  0.00  0.00    +0.018 C 
ATOM     10  C   UNL     1      -4.633 -13.017  18.417  0.00  0.00    +0.113 C 
ATOM     11  C   UNL     1      -3.907 -11.103  16.911  0.00  0.00    +0.130 C 
ATOM     12  C   UNL     1      -7.005 -12.397  18.108  0.00  0.00    +0.117 C 
ATOM     13  C   UNL     1      -6.332 -10.559  16.517  0.00  0.00    +0.034 A 
ATOM     14  C   UNL     1      -7.303 -10.094  15.690  0.00  0.00    +0.002 A 
ATOM     15  C   UNL     1      -4.684 -10.524  14.681  0.00  0.00    +0.252 A 
ATOM     16  C   UNL     1      -6.001 -14.383  16.876  0.00  0.00    +0.225 C 
ATOM     17  C   UNL     1      -6.988  -9.846  14.296  0.00  0.00    +0.015 A 
ATOM     18  C   UNL     1      -5.771 -10.052  13.794  0.00  0.00    +0.071 A 
ENDROOT
BRANCH  14  19
ATOM      1 CL   UNL     1     -12.884  -9.115  17.613  0.00  0.00    -0.084 Cl
ATOM     19  C   UNL     1      -8.683  -9.852  16.165  0.00  0.00    -0.016 A 
ATOM     21  C   UNL     1      -9.661 -10.822  15.969  0.00  0.00    +0.010 A 
ATOM     22  C   UNL     1      -8.993  -8.656  16.806  0.00  0.00    +0.010 A 
ATOM     23  C   UNL     1     -10.963 -10.594  16.418  0.00  0.00    +0.020 A 
ATOM     24  C   UNL     1     -10.294  -8.428  17.253  0.00  0.00    +0.020 A 
ATOM     25  C   UNL     1     -11.279  -9.397  17.059  0.00  0.00    +0.041 A 
ENDBRANCH  14  19
BRANCH  16  20
ATOM     20  C   UNL     1      -7.356 -14.645  16.273  0.00  0.00    +0.164 C 
BRANCH  20   2
ATOM      2  S   UNL     1      -7.403 -13.847  14.662  0.00  0.00    -0.155 S 
ATOM     26  C   UNL     1      -7.901 -15.270  13.660  0.00  0.00    +0.085 C 
ENDBRANCH  20   2
ENDBRANCH  16  20
TORSDOF 3
ENDMDL
MODEL 9
REMARK VINA RESULT:      -5.2     36.483     39.422
REMARK  Name = 7144135
REMARK  4 active torsions:
REMARK  status: ('A' for Active; 'I' for Inactive)
REMARK    1  A    between atoms: S_2  and  C_20
REMARK    2  A    between atoms: S_2  and  C_26
REMARK    3  A    between atoms: C_14  and  C_19
REMARK    4  A    between atoms: C_16  and  C_20
REMARK                            x       y       z     vdW  Elec       q    Type
REMARK                         _______ _______ _______ _____ _____    ______ ____
ROOT
ATOM      3  O   UNL     1       1.527   7.719  42.873  0.00  0.00    -0.268 OA
ATOM      4  O   UNL     1      -0.332   9.393  38.238  0.00  0.00    -0.275 OA
ATOM      5  N   UNL     1      -1.422   7.438  38.859  0.00  0.00    -0.300 N 
ATOM      6  N   UNL     1      -0.272   6.734  41.742  0.00  0.00    -0.311 N 
ATOM      7  C   UNL     1       0.050   5.534  39.499  0.00  0.00    +0.027 C 
ATOM      8  C   UNL     1      -2.196   5.717  40.483  0.00  0.00    +0.054 C 
ATOM      9  C   UNL     1      -1.173   4.733  39.917  0.00  0.00    +0.018 C 
ATOM     10  C   UNL     1      -0.320   6.576  38.432  0.00  0.00    +0.113 C 
ATOM     11  C   UNL     1       0.655   6.182  40.745  0.00  0.00    +0.130 C 
ATOM     12  C   UNL     1      -2.594   6.728  39.386  0.00  0.00    +0.117 C 
ATOM     13  C   UNL     1      -1.652   6.454  41.710  0.00  0.00    +0.034 A 
ATOM     14  C   UNL     1      -2.449   6.859  42.733  0.00  0.00    +0.002 A 
ATOM     15  C   UNL     1       0.326   7.458  42.789  0.00  0.00    +0.252 A 
ATOM     16  C   UNL     1      -1.329   8.819  38.684  0.00  0.00    +0.225 C 
ATOM     17  C   UNL     1      -1.867   7.611  43.828  0.00  0.00    +0.015 A 
ATOM     18  C   UNL     1      -0.571   7.918  43.872  0.00  0.00    +0.071 A 
ENDROOT
BRANCH  14  19
ATOM      1 CL   UNL     1      -8.317   5.693  42.818  0.00  0.00    -0.084 Cl
ATOM     19  C   UNL     1      -3.900   6.571  42.754  0.00  0.00    -0.016 A 
ATOM     21  C   UNL     1      -4.356   5.363  43.272  0.00  0.00    +0.010 A 
ATOM     22  C   UNL     1      -4.798   7.510  42.255  0.00  0.00    +0.010 A 
ATOM     23  C   UNL     1      -5.725   5.091  43.292  0.00  0.00    +0.020 A 
ATOM     24  C   UNL     1      -6.166   7.237  42.275  0.00  0.00    +0.020 A 
ATOM     25  C   UNL     1      -6.629   6.028  42.793  0.00  0.00    +0.041 A 
ENDBRANCH  14  19
BRANCH  16  20
ATOM     20  C   UNL     1      -2.533   9.634  39.080  0.00  0.00    +0.164 C 
BRANCH  20   2
ATOM      2  S   UNL     1      -2.993  10.654  37.672  0.00  0.00    -0.155 S 
ATOM     26  C   UNL     1      -3.587   9.351  36.565  0.00  0.00    +0.085 C 
ENDBRANCH  20   2
ENDBRANCH  16  20
TORSDOF 3
ENDMDL
MODEL 10
REMARK VINA RESULT:      -5.2      3.820      6.362
REMARK  Name = 7144135
REMARK  4 active torsions:
REMARK  status: ('A' for Active; 'I' for Inactive)
REMARK    1  A    between atoms: S_2  and  C_20
REMARK    2  A    between atoms: S_2  and  C_26
REMARK    3  A    between atoms: C_14  and  C_19
REMARK    4  A    between atoms: C_16  and  C_20
REMARK                            x       y       z     vdW  Elec       q    Type
REMARK                         _______ _______ _______ _____ _____    ______ ____
ROOT
ATOM      3  O   UNL     1      13.959   6.599   7.228  0.00  0.00    -0.268 OA
ATOM      4  O   UNL     1      10.552   4.451   3.834  0.00  0.00    -0.275 OA
ATOM      5  N   UNL     1       9.414   5.826   5.321  0.00  0.00    -0.300 N 
ATOM      6  N   UNL     1      11.682   7.137   7.130  0.00  0.00    -0.311 N 
ATOM      7  C   UNL     1       9.872   5.424   7.735  0.00  0.00    +0.027 C 
ATOM      8  C   UNL     1       9.230   7.673   6.980  0.00  0.00    +0.054 C 
ATOM      9  C   UNL     1       9.040   6.646   8.094  0.00  0.00    +0.018 C 
ATOM     10  C   UNL     1       9.419   4.830   6.392  0.00  0.00    +0.113 C 
ATOM     11  C   UNL     1      11.347   5.830   7.712  0.00  0.00    +0.130 C 
ATOM     12  C   UNL     1       8.726   7.082   5.646  0.00  0.00    +0.117 C 
ATOM     13  C   UNL     1      10.695   8.102   6.849  0.00  0.00    +0.034 A 
ATOM     14  C   UNL     1      11.060   9.348   6.454  0.00  0.00    +0.002 A 
ATOM     15  C   UNL     1      13.056   7.399   6.984  0.00  0.00    +0.252 A 
ATOM     16  C   UNL     1       9.978   5.514   4.084  0.00  0.00    +0.225 C 
ATOM     17  C   UNL     1      12.469   9.655   6.290  0.00  0.00    +0.015 A 
ATOM     18  C   UNL     1      13.424   8.755   6.518  0.00  0.00    +0.071 A 
ENDROOT
BRANCH  14  19
ATOM      1 CL   UNL     1       7.018  13.605   5.292  0.00  0.00    -0.084 Cl
ATOM     19  C   UNL     1      10.061  10.401   6.167  0.00  0.00    -0.016 A 
ATOM     21  C   UNL     1       9.580  10.561   4.871  0.00  0.00    +0.010 A 
ATOM     22  C   UNL     1       9.609  11.224   7.195  0.00  0.00    +0.010 A 
ATOM     23  C   UNL     1       8.637  11.553   4.600  0.00  0.00    +0.020 A 
ATOM     24  C   UNL     1       8.667  12.216   6.923  0.00  0.00    +0.020 A 
ATOM     25  C   UNL     1       8.181  12.380   5.626  0.00  0.00    +0.041 A 
ENDBRANCH  14  19
BRANCH  16  20
ATOM     20  C   UNL     1       9.871   6.564   3.008  0.00  0.00    +0.164 C 
BRANCH  20   2
ATOM      2  S   UNL     1      10.169   5.760   1.426  0.00  0.00    -0.155 S 
ATOM     26  C   UNL     1      10.220   7.229   0.371  0.00  0.00    +0.085 C 
ENDBRANCH  20   2
ENDBRANCH  16  20
TORSDOF 3
ENDMDL
