MODEL 1
REMARK VINA RESULT:      -7.1      0.000      0.000
REMARK  Name = 7134268
REMARK  9 active torsions:
REMARK  status: ('A' for Active; 'I' for Inactive)
REMARK    1  A    between atoms: N_9  and  C_14
REMARK    2  A    between atoms: N_10  and  C_21
REMARK    3  A    between atoms: C_15  and  C_19
REMARK    4  A    between atoms: C_20  and  C_23
REMARK    5  A    between atoms: C_21  and  C_24
REMARK    6  A    between atoms: C_21  and  C_26
REMARK    7  A    between atoms: C_22  and  C_25
REMARK    8  A    between atoms: C_24  and  C_28
REMARK    9  A    between atoms: C_29  and  C_33
REMARK                            x       y       z     vdW  Elec       q    Type
REMARK                         _______ _______ _______ _____ _____    ______ ____
ROOT
ATOM      4  O   UNL     1      14.539   6.585  18.833  0.00  0.00    -0.267 OA
ATOM      8  N   UNL     1      15.060   8.303  20.303  0.00  0.00    -0.283 N 
ATOM     14  C   UNL     1      14.437  10.338  22.313  0.00  0.00    +0.077 C 
ATOM     15  C   UNL     1      13.656   8.618  20.593  0.00  0.00    +0.164 C 
ATOM     16  C   UNL     1      13.433   9.232  21.975  0.00  0.00    +0.054 C 
ATOM     17  C   UNL     1      15.861   9.829  22.100  0.00  0.00    +0.041 C 
ATOM     18  C   UNL     1      16.060   9.320  20.677  0.00  0.00    +0.111 C 
ATOM     20  C   UNL     1      15.357   7.125  19.580  0.00  0.00    +0.283 C 
ENDROOT
BRANCH  20  23
ATOM      5  O   UNL     1      17.157   5.769  18.741  0.00  0.00    -0.458 OA
ATOM     23  C   UNL     1      16.688   6.550  19.743  0.00  0.00    +0.189 A 
ATOM     27  C   UNL     1      17.596   6.652  20.761  0.00  0.00    +0.054 A 
ATOM     30  C   UNL     1      18.710   5.878  20.362  0.00  0.00    +0.042 A 
ATOM     31  C   UNL     1      18.395   5.360  19.127  0.00  0.00    +0.196 A 
ENDBRANCH  20  23
BRANCH  15  19
ATOM      3  O   UNL     1      12.942  10.708  19.682  0.00  0.00    -0.274 OA
ATOM     10  N   UNL     1      13.051   8.848  18.286  0.00  0.00    -0.302 N 
ATOM     19  C   UNL     1      13.186   9.520  19.488  0.00  0.00    +0.234 C 
ATOM     37  H   UNL     1      13.292   7.863  18.230  0.00  0.00    +0.150 HD
BRANCH  10  21
ATOM     21  C   UNL     1      12.591   9.484  17.072  0.00  0.00    +0.163 C 
BRANCH  21  26
ATOM      7  O   UNL     1      10.964   7.679  17.103  0.00  0.00    -0.274 OA
ATOM     11  N   UNL     1      10.601   9.462  15.700  0.00  0.00    -0.328 N 
ATOM     26  C   UNL     1      11.327   8.757  16.638  0.00  0.00    +0.231 C 
ATOM     38  H   UNL     1      10.907  10.357  15.332  0.00  0.00    +0.145 HD
ATOM     39  H   UNL     1       9.729   9.095  15.336  0.00  0.00    +0.145 HD
ENDBRANCH  21  26
BRANCH  21  24
ATOM     24  C   UNL     1      13.644   9.439  15.957  0.00  0.00    +0.074 C 
BRANCH  24  28
ATOM      2  S   UNL     1      15.555  10.892  14.598  0.00  0.00    -0.102 S 
ATOM     28  C   UNL     1      14.421  10.730  15.850  0.00  0.00    -0.008 A 
ATOM     32  C   UNL     1      14.327  11.820  16.656  0.00  0.00    +0.011 A 
ATOM     34  C   UNL     1      15.224  12.845  16.235  0.00  0.00    +0.008 A 
ATOM     35  C   UNL     1      15.953  12.471  15.127  0.00  0.00    +0.045 A 
ENDBRANCH  24  28
ENDBRANCH  21  24
ENDBRANCH  10  21
ENDBRANCH  15  19
BRANCH  14   9
ATOM      6  O   UNL     1      15.145  12.915  23.362  0.00  0.00    -0.270 OA
ATOM      9  N   UNL     1      14.255  10.796  23.670  0.00  0.00    -0.308 N 
ATOM     22  C   UNL     1      14.631  12.066  24.084  0.00  0.00    +0.254 C 
ATOM     36  H   UNL     1      13.799  10.174  24.331  0.00  0.00    +0.149 HD
BRANCH  22  25
ATOM      1  S   UNL     1      15.333  11.604  26.689  0.00  0.00    +0.041 S 
ATOM     12  N   UNL     1      13.603  13.239  27.471  0.00  0.00    -0.146 NA
ATOM     13  N   UNL     1      14.536  12.416  27.919  0.00  0.00    -0.110 NA
ATOM     25  C   UNL     1      14.400  12.375  25.519  0.00  0.00    +0.117 A 
ATOM     29  C   UNL     1      13.525  13.214  26.088  0.00  0.00    +0.081 A 
ATOM     33  C   UNL     1      12.527  14.082  25.429  0.00  0.00    +0.069 C 
ENDBRANCH  22  25
ENDBRANCH  14   9
TORSDOF 8
ENDMDL
MODEL 2
REMARK VINA RESULT:      -6.6     28.835     30.908
REMARK  Name = 7134268
REMARK  9 active torsions:
REMARK  status: ('A' for Active; 'I' for Inactive)
REMARK    1  A    between atoms: N_9  and  C_14
REMARK    2  A    between atoms: N_10  and  C_21
REMARK    3  A    between atoms: C_15  and  C_19
REMARK    4  A    between atoms: C_20  and  C_23
REMARK    5  A    between atoms: C_21  and  C_24
REMARK    6  A    between atoms: C_21  and  C_26
REMARK    7  A    between atoms: C_22  and  C_25
REMARK    8  A    between atoms: C_24  and  C_28
REMARK    9  A    between atoms: C_29  and  C_33
REMARK                            x       y       z     vdW  Elec       q    Type
REMARK                         _______ _______ _______ _____ _____    ______ ____
ROOT
ATOM      4  O   UNL     1      -4.372 -10.504  15.511  0.00  0.00    -0.267 OA
ATOM      8  N   UNL     1      -5.340 -10.825  13.426  0.00  0.00    -0.283 N 
ATOM     14  C   UNL     1      -6.949 -10.034  11.113  0.00  0.00    +0.077 C 
ATOM     15  C   UNL     1      -6.145  -9.600  13.498  0.00  0.00    +0.164 C 
ATOM     16  C   UNL     1      -6.475  -8.996  12.133  0.00  0.00    +0.054 C 
ATOM     17  C   UNL     1      -5.949 -11.185  11.039  0.00  0.00    +0.041 C 
ATOM     18  C   UNL     1      -5.731 -11.817  12.408  0.00  0.00    +0.111 C 
ATOM     20  C   UNL     1      -4.338 -11.038  14.400  0.00  0.00    +0.283 C 
ENDROOT
BRANCH  20  23
ATOM      5  O   UNL     1      -3.270 -13.187  14.545  0.00  0.00    -0.458 OA
ATOM     23  C   UNL     1      -3.235 -11.927  14.052  0.00  0.00    +0.189 A 
ATOM     27  C   UNL     1      -2.119 -11.723  13.287  0.00  0.00    +0.054 A 
ATOM     30  C   UNL     1      -1.409 -12.946  13.306  0.00  0.00    +0.042 A 
ATOM     31  C   UNL     1      -2.149 -13.805  14.085  0.00  0.00    +0.196 A 
ENDBRANCH  20  23
BRANCH  15  19
ATOM      3  O   UNL     1      -8.303 -10.584  13.779  0.00  0.00    -0.274 OA
ATOM     10  N   UNL     1      -7.339  -9.451  15.570  0.00  0.00    -0.302 N 
ATOM     19  C   UNL     1      -7.380  -9.947  14.278  0.00  0.00    +0.234 C 
ATOM     37  H   UNL     1      -6.519  -8.946  15.890  0.00  0.00    +0.150 HD
BRANCH  10  21
ATOM     21  C   UNL     1      -8.415  -9.629  16.519  0.00  0.00    +0.163 C 
BRANCH  21  26
ATOM      7  O   UNL     1      -9.934  -8.133  15.353  0.00  0.00    -0.274 OA
ATOM     11  N   UNL     1      -9.462  -7.716  17.561  0.00  0.00    -0.328 N 
ATOM     26  C   UNL     1      -9.333  -8.423  16.384  0.00  0.00    +0.231 C 
ATOM     38  H   UNL     1      -8.968  -7.972  18.410  0.00  0.00    +0.145 HD
ATOM     39  H   UNL     1     -10.057  -6.896  17.613  0.00  0.00    +0.145 HD
ENDBRANCH  21  26
BRANCH  21  24
ATOM     24  C   UNL     1      -7.905  -9.754  17.960  0.00  0.00    +0.074 C 
BRANCH  24  28
ATOM      2  S   UNL     1      -7.071 -12.323  17.394  0.00  0.00    -0.102 S 
ATOM     28  C   UNL     1      -6.822 -10.798  18.097  0.00  0.00    -0.008 A 
ATOM     32  C   UNL     1      -5.629 -10.671  18.734  0.00  0.00    +0.011 A 
ATOM     34  C   UNL     1      -4.873 -11.876  18.648  0.00  0.00    +0.008 A 
ATOM     35  C   UNL     1      -5.540 -12.856  17.946  0.00  0.00    +0.045 A 
ENDBRANCH  24  28
ENDBRANCH  21  24
ENDBRANCH  10  21
ENDBRANCH  15  19
BRANCH  14   9
ATOM      6  O   UNL     1      -9.353  -8.834  10.101  0.00  0.00    -0.270 OA
ATOM      9  N   UNL     1      -7.131  -9.429   9.815  0.00  0.00    -0.308 N 
ATOM     22  C   UNL     1      -8.337  -8.872   9.414  0.00  0.00    +0.254 C 
ATOM     36  H   UNL     1      -6.331  -9.378   9.191  0.00  0.00    +0.149 HD
BRANCH  22  25
ATOM      1  S   UNL     1      -8.006  -9.312   6.733  0.00  0.00    +0.041 S 
ATOM     12  N   UNL     1      -8.580  -6.922   6.245  0.00  0.00    -0.146 NA
ATOM     13  N   UNL     1      -8.240  -8.055   5.651  0.00  0.00    -0.110 NA
ATOM     25  C   UNL     1      -8.368  -8.313   8.038  0.00  0.00    +0.117 A 
ATOM     29  C   UNL     1      -8.653  -7.073   7.621  0.00  0.00    +0.081 A 
ATOM     33  C   UNL     1      -9.023  -5.895   8.432  0.00  0.00    +0.069 C 
ENDBRANCH  22  25
ENDBRANCH  14   9
TORSDOF 8
ENDMDL
MODEL 3
REMARK VINA RESULT:      -6.4     17.063     21.069
REMARK  Name = 7134268
REMARK  9 active torsions:
REMARK  status: ('A' for Active; 'I' for Inactive)
REMARK    1  A    between atoms: N_9  and  C_14
REMARK    2  A    between atoms: N_10  and  C_21
REMARK    3  A    between atoms: C_15  and  C_19
REMARK    4  A    between atoms: C_20  and  C_23
REMARK    5  A    between atoms: C_21  and  C_24
REMARK    6  A    between atoms: C_21  and  C_26
REMARK    7  A    between atoms: C_22  and  C_25
REMARK    8  A    between atoms: C_24  and  C_28
REMARK    9  A    between atoms: C_29  and  C_33
REMARK                            x       y       z     vdW  Elec       q    Type
REMARK                         _______ _______ _______ _____ _____    ______ ____
ROOT
ATOM      4  O   UNL     1      13.152   3.166  -2.247  0.00  0.00    -0.267 OA
ATOM      8  N   UNL     1      12.949   4.541  -0.388  0.00  0.00    -0.283 N 
ATOM     14  C   UNL     1      11.850   5.323   2.209  0.00  0.00    +0.077 C 
ATOM     15  C   UNL     1      11.786   3.821   0.144  0.00  0.00    +0.164 C 
ATOM     16  C   UNL     1      11.648   3.906   1.664  0.00  0.00    +0.054 C 
ATOM     17  C   UNL     1      13.164   5.899   1.688  0.00  0.00    +0.041 C 
ATOM     18  C   UNL     1      13.209   5.882   0.164  0.00  0.00    +0.111 C 
ATOM     20  C   UNL     1      13.663   3.974  -1.469  0.00  0.00    +0.283 C 
ENDROOT
BRANCH  20  23
ATOM      5  O   UNL     1      15.366   5.065  -2.770  0.00  0.00    -0.458 OA
ATOM     23  C   UNL     1      15.053   4.377  -1.646  0.00  0.00    +0.189 A 
ATOM     27  C   UNL     1      16.155   4.186  -0.858  0.00  0.00    +0.054 A 
ATOM     30  C   UNL     1      17.230   4.799  -1.542  0.00  0.00    +0.042 A 
ATOM     31  C   UNL     1      16.699   5.320  -2.700  0.00  0.00    +0.196 A 
ENDBRANCH  20  23
BRANCH  15  19
ATOM      3  O   UNL     1       9.742   5.051   0.016  0.00  0.00    -0.274 OA
ATOM     10  N   UNL     1      10.548   4.002  -1.900  0.00  0.00    -0.302 N 
ATOM     19  C   UNL     1      10.583   4.371  -0.566  0.00  0.00    +0.234 C 
ATOM     37  H   UNL     1      11.304   3.445  -2.288  0.00  0.00    +0.150 HD
BRANCH  10  21
ATOM     21  C   UNL     1       9.482   4.383  -2.798  0.00  0.00    +0.163 C 
BRANCH  21  26
ATOM      7  O   UNL     1       9.985   3.729  -5.083  0.00  0.00    -0.274 OA
ATOM     11  N   UNL     1       9.060   2.170  -3.672  0.00  0.00    -0.328 N 
ATOM     26  C   UNL     1       9.531   3.429  -3.981  0.00  0.00    +0.231 C 
ATOM     38  H   UNL     1       8.697   1.932  -2.754  0.00  0.00    +0.145 HD
ATOM     39  H   UNL     1       9.050   1.433  -4.369  0.00  0.00    +0.145 HD
ENDBRANCH  21  26
BRANCH  21  24
ATOM     24  C   UNL     1       9.615   5.835  -3.276  0.00  0.00    +0.074 C 
BRANCH  24  28
ATOM      2  S   UNL     1       8.410   7.962  -1.996  0.00  0.00    -0.102 S 
ATOM     28  C   UNL     1       8.352   6.632  -3.050  0.00  0.00    -0.008 A 
ATOM     32  C   UNL     1       7.129   6.414  -3.599  0.00  0.00    +0.011 A 
ATOM     34  C   UNL     1       6.185   7.379  -3.142  0.00  0.00    +0.008 A 
ATOM     35  C   UNL     1       6.749   8.280  -2.265  0.00  0.00    +0.045 A 
ENDBRANCH  24  28
ENDBRANCH  21  24
ENDBRANCH  10  21
ENDBRANCH  15  19
BRANCH  14   9
ATOM      6  O   UNL     1      10.056   6.797   3.898  0.00  0.00    -0.270 OA
ATOM      9  N   UNL     1      11.828   5.322   3.653  0.00  0.00    -0.308 N 
ATOM     22  C   UNL     1      10.919   6.072   4.385  0.00  0.00    +0.254 C 
ATOM     36  H   UNL     1      12.481   4.719   4.144  0.00  0.00    +0.149 HD
BRANCH  22  25
ATOM      1  S   UNL     1       9.869   5.161   6.743  0.00  0.00    +0.041 S 
ATOM     12  N   UNL     1      11.770   6.184   8.013  0.00  0.00    -0.146 NA
ATOM     13  N   UNL     1      10.660   5.485   8.183  0.00  0.00    -0.110 NA
ATOM     25  C   UNL     1      11.044   5.983   5.863  0.00  0.00    +0.117 A 
ATOM     29  C   UNL     1      11.990   6.471   6.675  0.00  0.00    +0.081 A 
ATOM     33  C   UNL     1      13.194   7.249   6.318  0.00  0.00    +0.069 C 
ENDBRANCH  22  25
ENDBRANCH  14   9
TORSDOF 8
ENDMDL
MODEL 4
REMARK VINA RESULT:      -6.3     28.883     32.073
REMARK  Name = 7134268
REMARK  9 active torsions:
REMARK  status: ('A' for Active; 'I' for Inactive)
REMARK    1  A    between atoms: N_9  and  C_14
REMARK    2  A    between atoms: N_10  and  C_21
REMARK    3  A    between atoms: C_15  and  C_19
REMARK    4  A    between atoms: C_20  and  C_23
REMARK    5  A    between atoms: C_21  and  C_24
REMARK    6  A    between atoms: C_21  and  C_26
REMARK    7  A    between atoms: C_22  and  C_25
REMARK    8  A    between atoms: C_24  and  C_28
REMARK    9  A    between atoms: C_29  and  C_33
REMARK                            x       y       z     vdW  Elec       q    Type
REMARK                         _______ _______ _______ _____ _____    ______ ____
ROOT
ATOM      4  O   UNL     1      -7.086  -7.892   4.715  0.00  0.00    -0.267 OA
ATOM      8  N   UNL     1      -8.916  -7.575   6.107  0.00  0.00    -0.283 N 
ATOM     14  C   UNL     1     -10.248  -6.674   8.553  0.00  0.00    +0.077 C 
ATOM     15  C   UNL     1      -8.101  -7.141   7.249  0.00  0.00    +0.164 C 
ATOM     16  C   UNL     1      -8.833  -6.202   8.208  0.00  0.00    +0.054 C 
ATOM     17  C   UNL     1     -11.028  -6.957   7.271  0.00  0.00    +0.041 C 
ATOM     18  C   UNL     1     -10.305  -7.974   6.396  0.00  0.00    +0.111 C 
ATOM     20  C   UNL     1      -8.298  -7.707   4.843  0.00  0.00    +0.283 C 
ENDROOT
BRANCH  20  23
ATOM      5  O   UNL     1      -9.478  -8.773   3.039  0.00  0.00    -0.458 OA
ATOM     23  C   UNL     1      -9.149  -7.616   3.661  0.00  0.00    +0.189 A 
ATOM     27  C   UNL     1      -9.706  -6.537   3.032  0.00  0.00    +0.054 A 
ATOM     30  C   UNL     1     -10.433  -7.062   1.938  0.00  0.00    +0.042 A 
ATOM     31  C   UNL     1     -10.264  -8.426   1.985  0.00  0.00    +0.196 A 
ENDBRANCH  20  23
BRANCH  15  19
ATOM      3  O   UNL     1      -8.211  -9.462   7.803  0.00  0.00    -0.274 OA
ATOM     10  N   UNL     1      -6.499  -8.167   8.704  0.00  0.00    -0.302 N 
ATOM     19  C   UNL     1      -7.625  -8.390   7.931  0.00  0.00    +0.234 C 
ATOM     37  H   UNL     1      -6.082  -7.241   8.732  0.00  0.00    +0.150 HD
BRANCH  10  21
ATOM     21  C   UNL     1      -5.856  -9.203   9.481  0.00  0.00    +0.163 C 
BRANCH  21  26
ATOM      7  O   UNL     1      -5.986  -8.412  11.775  0.00  0.00    -0.274 OA
ATOM     11  N   UNL     1      -7.552  -9.924  11.044  0.00  0.00    -0.328 N 
ATOM     26  C   UNL     1      -6.434  -9.132  10.886  0.00  0.00    +0.231 C 
ATOM     38  H   UNL     1      -7.920 -10.507  10.298  0.00  0.00    +0.145 HD
ATOM     39  H   UNL     1      -8.044  -9.959  11.930  0.00  0.00    +0.145 HD
ENDBRANCH  21  26
BRANCH  21  24
ATOM     24  C   UNL     1      -4.331  -9.038   9.522  0.00  0.00    +0.074 C 
BRANCH  24  28
ATOM      2  S   UNL     1      -4.102 -11.726  10.099  0.00  0.00    -0.102 S 
ATOM     28  C   UNL     1      -3.661 -10.107  10.352  0.00  0.00    -0.008 A 
ATOM     32  C   UNL     1      -2.715  -9.935  11.312  0.00  0.00    +0.011 A 
ATOM     34  C   UNL     1      -2.325 -11.185  11.875  0.00  0.00    +0.008 A 
ATOM     35  C   UNL     1      -3.002 -12.242  11.306  0.00  0.00    +0.045 A 
ENDBRANCH  24  28
ENDBRANCH  21  24
ENDBRANCH  10  21
ENDBRANCH  15  19
BRANCH  14   9
ATOM      6  O   UNL     1     -12.179  -7.194  10.612  0.00  0.00    -0.270 OA
ATOM      9  N   UNL     1     -10.931  -5.693   9.362  0.00  0.00    -0.308 N 
ATOM     22  C   UNL     1     -11.853  -6.043  10.338  0.00  0.00    +0.254 C 
ATOM     36  H   UNL     1     -10.694  -4.713   9.233  0.00  0.00    +0.149 HD
BRANCH  22  25
ATOM      1  S   UNL     1     -12.324  -4.814  12.738  0.00  0.00    +0.041 S 
ATOM     12  N   UNL     1     -13.644  -3.022  11.589  0.00  0.00    -0.146 NA
ATOM     13  N   UNL     1     -13.232  -3.408  12.786  0.00  0.00    -0.110 NA
ATOM     25  C   UNL     1     -12.488  -4.914  11.066  0.00  0.00    +0.117 A 
ATOM     29  C   UNL     1     -13.215  -3.891  10.599  0.00  0.00    +0.081 A 
ATOM     33  C   UNL     1     -13.594  -3.598   9.202  0.00  0.00    +0.069 C 
ENDBRANCH  22  25
ENDBRANCH  14   9
TORSDOF 8
ENDMDL
MODEL 5
REMARK VINA RESULT:      -6.2     28.541     31.648
REMARK  Name = 7134268
REMARK  9 active torsions:
REMARK  status: ('A' for Active; 'I' for Inactive)
REMARK    1  A    between atoms: N_9  and  C_14
REMARK    2  A    between atoms: N_10  and  C_21
REMARK    3  A    between atoms: C_15  and  C_19
REMARK    4  A    between atoms: C_20  and  C_23
REMARK    5  A    between atoms: C_21  and  C_24
REMARK    6  A    between atoms: C_21  and  C_26
REMARK    7  A    between atoms: C_22  and  C_25
REMARK    8  A    between atoms: C_24  and  C_28
REMARK    9  A    between atoms: C_29  and  C_33
REMARK                            x       y       z     vdW  Elec       q    Type
REMARK                         _______ _______ _______ _____ _____    ______ ____
ROOT
ATOM      4  O   UNL     1      -6.538  -9.191  16.465  0.00  0.00    -0.267 OA
ATOM      8  N   UNL     1      -7.787 -10.826  17.538  0.00  0.00    -0.283 N 
ATOM     14  C   UNL     1      -8.220 -12.955  19.501  0.00  0.00    +0.077 C 
ATOM     15  C   UNL     1      -6.640 -11.356  18.286  0.00  0.00    +0.164 C 
ATOM     16  C   UNL     1      -7.018 -12.013  19.614  0.00  0.00    +0.054 C 
ATOM     17  C   UNL     1      -9.385 -12.232  18.831  0.00  0.00    +0.041 C 
ATOM     18  C   UNL     1      -8.985 -11.682  17.467  0.00  0.00    +0.111 C 
ATOM     20  C   UNL     1      -7.637  -9.608  16.837  0.00  0.00    +0.283 C 
ENDROOT
BRANCH  20  23
ATOM      5  O   UNL     1      -9.316  -8.860  15.286  0.00  0.00    -0.458 OA
ATOM     23  C   UNL     1      -8.843  -8.837  16.555  0.00  0.00    +0.189 A 
ATOM     27  C   UNL     1      -9.625  -8.059  17.363  0.00  0.00    +0.054 A 
ATOM     30  C   UNL     1     -10.659  -7.562  16.537  0.00  0.00    +0.042 A 
ATOM     31  C   UNL     1     -10.427  -8.077  15.282  0.00  0.00    +0.196 A 
ENDBRANCH  20  23
BRANCH  15  19
ATOM      3  O   UNL     1      -6.213 -13.502  17.327  0.00  0.00    -0.274 OA
ATOM     10  N   UNL     1      -4.955 -11.677  16.613  0.00  0.00    -0.302 N 
ATOM     19  C   UNL     1      -5.934 -12.306  17.363  0.00  0.00    +0.234 C 
ATOM     37  H   UNL     1      -4.813 -10.676  16.709  0.00  0.00    +0.150 HD
BRANCH  10  21
ATOM     21  C   UNL     1      -4.116 -12.374  15.665  0.00  0.00    +0.163 C 
BRANCH  21  26
ATOM      7  O   UNL     1      -2.064 -11.728  14.535  0.00  0.00    -0.274 OA
ATOM     11  N   UNL     1      -2.980 -10.279  16.063  0.00  0.00    -0.328 N 
ATOM     26  C   UNL     1      -2.937 -11.463  15.357  0.00  0.00    +0.231 C 
ATOM     38  H   UNL     1      -3.713 -10.066  16.732  0.00  0.00    +0.145 HD
ATOM     39  H   UNL     1      -2.259  -9.575  15.941  0.00  0.00    +0.145 HD
ENDBRANCH  21  26
BRANCH  21  24
ATOM     24  C   UNL     1      -4.866 -12.731  14.375  0.00  0.00    +0.074 C 
BRANCH  24  28
ATOM      2  S   UNL     1      -7.307 -11.589  13.782  0.00  0.00    -0.102 S 
ATOM     28  C   UNL     1      -5.610 -11.549  13.799  0.00  0.00    -0.008 A 
ATOM     32  C   UNL     1      -5.079 -10.416  13.272  0.00  0.00    +0.011 A 
ATOM     34  C   UNL     1      -6.103  -9.529  12.829  0.00  0.00    +0.008 A 
ATOM     35  C   UNL     1      -7.362 -10.044  13.046  0.00  0.00    +0.045 A 
ENDBRANCH  24  28
ENDBRANCH  21  24
ENDBRANCH  10  21
ENDBRANCH  15  19
BRANCH  14   9
ATOM      6  O   UNL     1      -9.378 -15.516  20.084  0.00  0.00    -0.270 OA
ATOM      9  N   UNL     1      -8.604 -13.451  20.801  0.00  0.00    -0.308 N 
ATOM     22  C   UNL     1      -9.159 -14.710  20.984  0.00  0.00    +0.254 C 
ATOM     36  H   UNL     1      -8.423 -12.867  21.612  0.00  0.00    +0.149 HD
BRANCH  22  25
ATOM      1  S   UNL     1      -8.429 -15.914  23.330  0.00  0.00    +0.041 S 
ATOM     12  N   UNL     1     -10.624 -15.290  24.363  0.00  0.00    -0.146 NA
ATOM     13  N   UNL     1      -9.486 -15.911  24.629  0.00  0.00    -0.110 NA
ATOM     25  C   UNL     1      -9.524 -15.061  22.380  0.00  0.00    +0.117 A 
ATOM     29  C   UNL     1     -10.644 -14.801  23.066  0.00  0.00    +0.081 A 
ATOM     33  C   UNL     1     -11.851 -14.078  22.613  0.00  0.00    +0.069 C 
ENDBRANCH  22  25
ENDBRANCH  14   9
TORSDOF 8
ENDMDL
MODEL 6
REMARK VINA RESULT:      -6.2     14.594     18.253
REMARK  Name = 7134268
REMARK  9 active torsions:
REMARK  status: ('A' for Active; 'I' for Inactive)
REMARK    1  A    between atoms: N_9  and  C_14
REMARK    2  A    between atoms: N_10  and  C_21
REMARK    3  A    between atoms: C_15  and  C_19
REMARK    4  A    between atoms: C_20  and  C_23
REMARK    5  A    between atoms: C_21  and  C_24
REMARK    6  A    between atoms: C_21  and  C_26
REMARK    7  A    between atoms: C_22  and  C_25
REMARK    8  A    between atoms: C_24  and  C_28
REMARK    9  A    between atoms: C_29  and  C_33
REMARK                            x       y       z     vdW  Elec       q    Type
REMARK                         _______ _______ _______ _____ _____    ______ ____
ROOT
ATOM      4  O   UNL     1      14.988   9.982   6.542  0.00  0.00    -0.267 OA
ATOM      8  N   UNL     1      14.669   8.210   5.078  0.00  0.00    -0.283 N 
ATOM     14  C   UNL     1      13.077   6.482   3.332  0.00  0.00    +0.077 C 
ATOM     15  C   UNL     1      13.205   8.328   5.093  0.00  0.00    +0.164 C 
ATOM     16  C   UNL     1      12.532   7.829   3.814  0.00  0.00    +0.054 C 
ATOM     17  C   UNL     1      14.599   6.544   3.229  0.00  0.00    +0.041 C 
ATOM     18  C   UNL     1      15.227   6.949   4.557  0.00  0.00    +0.111 C 
ATOM     20  C   UNL     1      15.439   9.236   5.670  0.00  0.00    +0.283 C 
ENDROOT
BRANCH  20  23
ATOM      5  O   UNL     1      17.010   9.939   3.990  0.00  0.00    -0.458 OA
ATOM     23  C   UNL     1      16.816   9.396   5.215  0.00  0.00    +0.189 A 
ATOM     27  C   UNL     1      18.006   9.088   5.817  0.00  0.00    +0.054 A 
ATOM     30  C   UNL     1      19.012   9.467   4.898  0.00  0.00    +0.042 A 
ATOM     31  C   UNL     1      18.356   9.979   3.802  0.00  0.00    +0.196 A 
ENDBRANCH  20  23
BRANCH  15  19
ATOM      3  O   UNL     1      13.516   7.074   7.102  0.00  0.00    -0.274 OA
ATOM     10  N   UNL     1      11.350   7.552   6.396  0.00  0.00    -0.302 N 
ATOM     19  C   UNL     1      12.731   7.589   6.310  0.00  0.00    +0.234 C 
ATOM     37  H   UNL     1      10.789   8.023   5.692  0.00  0.00    +0.150 HD
BRANCH  10  21
ATOM     21  C   UNL     1      10.642   6.882   7.462  0.00  0.00    +0.163 C 
BRANCH  21  26
ATOM      7  O   UNL     1      10.243   5.097   5.862  0.00  0.00    -0.274 OA
ATOM     11  N   UNL     1      10.551   4.544   8.070  0.00  0.00    -0.328 N 
ATOM     26  C   UNL     1      10.439   5.438   7.026  0.00  0.00    +0.231 C 
ATOM     38  H   UNL     1      10.724   4.838   9.026  0.00  0.00    +0.145 HD
ATOM     39  H   UNL     1      10.451   3.547   7.913  0.00  0.00    +0.145 HD
ENDBRANCH  21  26
BRANCH  21  24
ATOM     24  C   UNL     1       9.292   7.542   7.769  0.00  0.00    +0.074 C 
BRANCH  24  28
ATOM      2  S   UNL     1       9.043  10.005   6.551  0.00  0.00    -0.102 S 
ATOM     28  C   UNL     1       8.760   8.332   6.597  0.00  0.00    -0.008 A 
ATOM     32  C   UNL     1       8.057   7.861   5.534  0.00  0.00    +0.011 A 
ATOM     34  C   UNL     1       7.729   8.914   4.631  0.00  0.00    +0.008 A 
ATOM     35  C   UNL     1       8.205  10.133   5.063  0.00  0.00    +0.045 A 
ENDBRANCH  24  28
ENDBRANCH  21  24
ENDBRANCH  10  21
ENDBRANCH  15  19
BRANCH  14   9
ATOM      6  O   UNL     1      11.534   4.128   2.765  0.00  0.00    -0.270 OA
ATOM      9  N   UNL     1      12.492   6.119   2.063  0.00  0.00    -0.308 N 
ATOM     22  C   UNL     1      11.759   4.954   1.886  0.00  0.00    +0.254 C 
ATOM     36  H   UNL     1      12.592   6.764   1.284  0.00  0.00    +0.149 HD
BRANCH  22  25
ATOM      1  S   UNL     1       9.795   5.420   0.037  0.00  0.00    +0.041 S 
ATOM     12  N   UNL     1      10.997   3.995  -1.636  0.00  0.00    -0.146 NA
ATOM     13  N   UNL     1       9.908   4.731  -1.485  0.00  0.00    -0.110 NA
ATOM     25  C   UNL     1      11.246   4.713   0.512  0.00  0.00    +0.117 A 
ATOM     29  C   UNL     1      11.767   3.985  -0.484  0.00  0.00    +0.081 A 
ATOM     33  C   UNL     1      13.022   3.206  -0.490  0.00  0.00    +0.069 C 
ENDBRANCH  22  25
ENDBRANCH  14   9
TORSDOF 8
ENDMDL
MODEL 7
REMARK VINA RESULT:      -6.2      1.687      1.997
REMARK  Name = 7134268
REMARK  9 active torsions:
REMARK  status: ('A' for Active; 'I' for Inactive)
REMARK    1  A    between atoms: N_9  and  C_14
REMARK    2  A    between atoms: N_10  and  C_21
REMARK    3  A    between atoms: C_15  and  C_19
REMARK    4  A    between atoms: C_20  and  C_23
REMARK    5  A    between atoms: C_21  and  C_24
REMARK    6  A    between atoms: C_21  and  C_26
REMARK    7  A    between atoms: C_22  and  C_25
REMARK    8  A    between atoms: C_24  and  C_28
REMARK    9  A    between atoms: C_29  and  C_33
REMARK                            x       y       z     vdW  Elec       q    Type
REMARK                         _______ _______ _______ _____ _____    ______ ____
ROOT
ATOM      4  O   UNL     1      14.386   6.457  20.075  0.00  0.00    -0.267 OA
ATOM      8  N   UNL     1      15.326   8.446  20.812  0.00  0.00    -0.283 N 
ATOM     14  C   UNL     1      15.378  10.924  22.369  0.00  0.00    +0.077 C 
ATOM     15  C   UNL     1      14.106   8.887  21.498  0.00  0.00    +0.164 C 
ATOM     16  C   UNL     1      14.364   9.820  22.682  0.00  0.00    +0.054 C 
ATOM     17  C   UNL     1      16.651  10.313  21.791  0.00  0.00    +0.041 C 
ATOM     18  C   UNL     1      16.351   9.474  20.554  0.00  0.00    +0.111 C 
ATOM     20  C   UNL     1      15.393   7.118  20.332  0.00  0.00    +0.283 C 
ENDROOT
BRANCH  20  23
ATOM      5  O   UNL     1      16.951   5.883  18.979  0.00  0.00    -0.458 OA
ATOM     23  C   UNL     1      16.717   6.535  20.143  0.00  0.00    +0.189 A 
ATOM     27  C   UNL     1      17.819   6.518  20.953  0.00  0.00    +0.054 A 
ATOM     30  C   UNL     1      18.811   5.804  20.240  0.00  0.00    +0.042 A 
ATOM     31  C   UNL     1      18.234   5.438  19.046  0.00  0.00    +0.196 A 
ENDBRANCH  20  23
BRANCH  15  19
ATOM      3  O   UNL     1      12.453  10.430  20.727  0.00  0.00    -0.274 OA
ATOM     10  N   UNL     1      13.418   8.957  19.204  0.00  0.00    -0.302 N 
ATOM     19  C   UNL     1      13.236   9.524  20.453  0.00  0.00    +0.234 C 
ATOM     37  H   UNL     1      14.104   8.218  19.082  0.00  0.00    +0.150 HD
BRANCH  10  21
ATOM     21  C   UNL     1      12.684   9.375  18.031  0.00  0.00    +0.163 C 
BRANCH  21  26
ATOM      7  O   UNL     1      10.606   8.481  17.143  0.00  0.00    -0.274 OA
ATOM     11  N   UNL     1      12.096   7.033  18.124  0.00  0.00    -0.328 N 
ATOM     26  C   UNL     1      11.670   8.283  17.725  0.00  0.00    +0.231 C 
ATOM     38  H   UNL     1      12.982   6.881  18.595  0.00  0.00    +0.145 HD
ATOM     39  H   UNL     1      11.519   6.213  17.967  0.00  0.00    +0.145 HD
ENDBRANCH  21  26
BRANCH  21  24
ATOM     24  C   UNL     1      13.600   9.608  16.823  0.00  0.00    +0.074 C 
BRANCH  24  28
ATOM      2  S   UNL     1      14.212  11.655  15.077  0.00  0.00    -0.102 S 
ATOM     28  C   UNL     1      13.961  11.064  16.649  0.00  0.00    -0.008 A 
ATOM     32  C   UNL     1      14.118  11.999  17.622  0.00  0.00    +0.011 A 
ATOM     34  C   UNL     1      14.460  13.265  17.065  0.00  0.00    +0.008 A 
ATOM     35  C   UNL     1      14.545  13.219  15.690  0.00  0.00    +0.045 A 
ENDBRANCH  24  28
ENDBRANCH  21  24
ENDBRANCH  10  21
ENDBRANCH  15  19
BRANCH  14   9
ATOM      6  O   UNL     1      15.827  13.757  22.498  0.00  0.00    -0.270 OA
ATOM      9  N   UNL     1      15.672  11.698  23.552  0.00  0.00    -0.308 N 
ATOM     22  C   UNL     1      15.875  13.070  23.514  0.00  0.00    +0.254 C 
ATOM     36  H   UNL     1      15.691  11.219  24.448  0.00  0.00    +0.149 HD
BRANCH  22  25
ATOM      1  S   UNL     1      14.944  14.320  25.764  0.00  0.00    +0.041 S 
ATOM     12  N   UNL     1      17.283  14.555  26.631  0.00  0.00    -0.146 NA
ATOM     13  N   UNL     1      16.025  14.830  26.937  0.00  0.00    -0.110 NA
ATOM     25  C   UNL     1      16.194  13.715  24.814  0.00  0.00    +0.117 A 
ATOM     29  C   UNL     1      17.378  13.913  25.406  0.00  0.00    +0.081 A 
ATOM     33  C   UNL     1      18.722  13.537  24.919  0.00  0.00    +0.069 C 
ENDBRANCH  22  25
ENDBRANCH  14   9
TORSDOF 8
ENDMDL
MODEL 8
REMARK VINA RESULT:      -6.2     27.695     31.620
REMARK  Name = 7134268
REMARK  9 active torsions:
REMARK  status: ('A' for Active; 'I' for Inactive)
REMARK    1  A    between atoms: N_9  and  C_14
REMARK    2  A    between atoms: N_10  and  C_21
REMARK    3  A    between atoms: C_15  and  C_19
REMARK    4  A    between atoms: C_20  and  C_23
REMARK    5  A    between atoms: C_21  and  C_24
REMARK    6  A    between atoms: C_21  and  C_26
REMARK    7  A    between atoms: C_22  and  C_25
REMARK    8  A    between atoms: C_24  and  C_28
REMARK    9  A    between atoms: C_29  and  C_33
REMARK                            x       y       z     vdW  Elec       q    Type
REMARK                         _______ _______ _______ _____ _____    ______ ____
ROOT
ATOM      4  O   UNL     1      -7.658  -7.713   5.707  0.00  0.00    -0.267 OA
ATOM      8  N   UNL     1      -7.391  -8.720   7.781  0.00  0.00    -0.283 N 
ATOM     14  C   UNL     1      -5.859 -10.037   9.898  0.00  0.00    +0.077 C 
ATOM     15  C   UNL     1      -6.018  -9.159   7.505  0.00  0.00    +0.164 C 
ATOM     16  C   UNL     1      -5.152  -9.302   8.756  0.00  0.00    +0.054 C 
ATOM     17  C   UNL     1      -7.214  -9.391  10.172  0.00  0.00    +0.041 C 
ATOM     18  C   UNL     1      -8.078  -9.362   8.916  0.00  0.00    +0.111 C 
ATOM     20  C   UNL     1      -8.010  -7.821   6.883  0.00  0.00    +0.283 C 
ENDROOT
BRANCH  20  23
ATOM      5  O   UNL     1     -10.362  -7.338   7.021  0.00  0.00    -0.458 OA
ATOM     23  C   UNL     1      -9.104  -7.002   7.394  0.00  0.00    +0.189 A 
ATOM     27  C   UNL     1      -9.104  -5.908   8.216  0.00  0.00    +0.054 A 
ATOM     30  C   UNL     1     -10.461  -5.538   8.365  0.00  0.00    +0.042 A 
ATOM     31  C   UNL     1     -11.187  -6.437   7.619  0.00  0.00    +0.196 A 
ENDBRANCH  20  23
BRANCH  15  19
ATOM      3  O   UNL     1      -7.211 -10.883   6.361  0.00  0.00    -0.274 OA
ATOM     10  N   UNL     1      -4.897 -11.050   6.553  0.00  0.00    -0.302 N 
ATOM     19  C   UNL     1      -6.128 -10.446   6.740  0.00  0.00    +0.234 C 
ATOM     37  H   UNL     1      -4.055 -10.597   6.897  0.00  0.00    +0.150 HD
BRANCH  10  21
ATOM     21  C   UNL     1      -4.731 -12.311   5.866  0.00  0.00    +0.163 C 
BRANCH  21  26
ATOM      7  O   UNL     1      -5.577 -14.338   6.907  0.00  0.00    -0.274 OA
ATOM     11  N   UNL     1      -3.790 -13.269   7.876  0.00  0.00    -0.328 N 
ATOM     26  C   UNL     1      -4.778 -13.405   6.923  0.00  0.00    +0.231 C 
ATOM     38  H   UNL     1      -3.128 -12.499   7.872  0.00  0.00    +0.145 HD
ATOM     39  H   UNL     1      -3.700 -13.940   8.631  0.00  0.00    +0.145 HD
ENDBRANCH  21  26
BRANCH  21  24
ATOM     24  C   UNL     1      -3.414 -12.380   5.084  0.00  0.00    +0.074 C 
BRANCH  24  28
ATOM      2  S   UNL     1      -5.223 -12.858   3.055  0.00  0.00    -0.102 S 
ATOM     28  C   UNL     1      -3.631 -12.687   3.620  0.00  0.00    -0.008 A 
ATOM     32  C   UNL     1      -2.683 -12.853   2.662  0.00  0.00    +0.011 A 
ATOM     34  C   UNL     1      -3.279 -13.133   1.398  0.00  0.00    +0.008 A 
ATOM     35  C   UNL     1      -4.654 -13.165   1.469  0.00  0.00    +0.045 A 
ENDBRANCH  24  28
ENDBRANCH  21  24
ENDBRANCH  10  21
ENDBRANCH  15  19
BRANCH  14   9
ATOM      6  O   UNL     1      -3.981 -12.060  10.688  0.00  0.00    -0.270 OA
ATOM      9  N   UNL     1      -5.042 -10.038  11.089  0.00  0.00    -0.308 N 
ATOM     22  C   UNL     1      -4.159 -11.067  11.386  0.00  0.00    +0.254 C 
ATOM     36  H   UNL     1      -5.092  -9.234  11.708  0.00  0.00    +0.149 HD
BRANCH  22  25
ATOM      1  S   UNL     1      -4.095 -11.511  14.086  0.00  0.00    +0.041 S 
ATOM     12  N   UNL     1      -1.831 -10.449  14.232  0.00  0.00    -0.146 NA
ATOM     13  N   UNL     1      -2.762 -11.025  14.975  0.00  0.00    -0.110 NA
ATOM     25  C   UNL     1      -3.411 -10.931  12.662  0.00  0.00    +0.117 A 
ATOM     29  C   UNL     1      -2.207 -10.394  12.899  0.00  0.00    +0.081 A 
ATOM     33  C   UNL     1      -1.273  -9.777  11.936  0.00  0.00    +0.069 C 
ENDBRANCH  22  25
ENDBRANCH  14   9
TORSDOF 8
ENDMDL
MODEL 9
REMARK VINA RESULT:      -6.1     29.020     31.853
REMARK  Name = 7134268
REMARK  9 active torsions:
REMARK  status: ('A' for Active; 'I' for Inactive)
REMARK    1  A    between atoms: N_9  and  C_14
REMARK    2  A    between atoms: N_10  and  C_21
REMARK    3  A    between atoms: C_15  and  C_19
REMARK    4  A    between atoms: C_20  and  C_23
REMARK    5  A    between atoms: C_21  and  C_24
REMARK    6  A    between atoms: C_21  and  C_26
REMARK    7  A    between atoms: C_22  and  C_25
REMARK    8  A    between atoms: C_24  and  C_28
REMARK    9  A    between atoms: C_29  and  C_33
REMARK                            x       y       z     vdW  Elec       q    Type
REMARK                         _______ _______ _______ _____ _____    ______ ____
ROOT
ATOM      4  O   UNL     1      -8.628 -12.961  17.127  0.00  0.00    -0.267 OA
ATOM      8  N   UNL     1      -9.689 -10.899  17.038  0.00  0.00    -0.283 N 
ATOM     14  C   UNL     1     -10.676  -8.494  15.694  0.00  0.00    +0.077 C 
ATOM     15  C   UNL     1      -9.289 -10.638  15.650  0.00  0.00    +0.164 C 
ATOM     16  C   UNL     1     -10.252  -9.726  14.890  0.00  0.00    +0.054 C 
ATOM     17  C   UNL     1     -11.201  -8.921  17.062  0.00  0.00    +0.041 C 
ATOM     18  C   UNL     1     -10.166  -9.743  17.820  0.00  0.00    +0.111 C 
ATOM     20  C   UNL     1      -9.478 -12.189  17.575  0.00  0.00    +0.283 C 
ENDROOT
BRANCH  20  23
ATOM      5  O   UNL     1      -9.753 -12.566  19.934  0.00  0.00    -0.458 OA
ATOM     23  C   UNL     1     -10.312 -12.597  18.701  0.00  0.00    +0.189 A 
ATOM     27  C   UNL     1     -11.610 -13.026  18.753  0.00  0.00    +0.054 A 
ATOM     30  C   UNL     1     -11.877 -13.279  20.119  0.00  0.00    +0.042 A 
ATOM     31  C   UNL     1     -10.717 -12.985  20.797  0.00  0.00    +0.196 A 
ENDBRANCH  20  23
BRANCH  15  19
ATOM      3  O   UNL     1      -7.561  -9.270  16.570  0.00  0.00    -0.274 OA
ATOM     10  N   UNL     1      -7.099 -10.552  14.683  0.00  0.00    -0.302 N 
ATOM     19  C   UNL     1      -7.899 -10.075  15.707  0.00  0.00    +0.234 C 
ATOM     37  H   UNL     1      -7.473 -11.229  14.025  0.00  0.00    +0.150 HD
BRANCH  10  21
ATOM     21  C   UNL     1      -5.723 -10.147  14.501  0.00  0.00    +0.163 C 
BRANCH  21  26
ATOM      7  O   UNL     1      -4.684 -10.116  12.304  0.00  0.00    -0.274 OA
ATOM     11  N   UNL     1      -6.577  -8.859  12.642  0.00  0.00    -0.328 N 
ATOM     26  C   UNL     1      -5.574  -9.714  13.050  0.00  0.00    +0.231 C 
ATOM     38  H   UNL     1      -7.313  -8.542  13.265  0.00  0.00    +0.145 HD
ATOM     39  H   UNL     1      -6.603  -8.505  11.691  0.00  0.00    +0.145 HD
ENDBRANCH  21  26
BRANCH  21  24
ATOM     24  C   UNL     1      -4.736 -11.275  14.826  0.00  0.00    +0.074 C 
BRANCH  24  28
ATOM      2  S   UNL     1      -5.087 -13.196  16.776  0.00  0.00    -0.102 S 
ATOM     28  C   UNL     1      -4.713 -11.610  16.299  0.00  0.00    -0.008 A 
ATOM     32  C   UNL     1      -4.423 -10.776  17.331  0.00  0.00    +0.011 A 
ATOM     34  C   UNL     1      -4.507 -11.459  18.579  0.00  0.00    +0.008 A 
ATOM     35  C   UNL     1      -4.859 -12.782  18.422  0.00  0.00    +0.045 A 
ENDBRANCH  24  28
ENDBRANCH  21  24
ENDBRANCH  10  21
ENDBRANCH  15  19
BRANCH  14   9
ATOM      6  O   UNL     1     -11.219  -5.688  15.966  0.00  0.00    -0.270 OA
ATOM      9  N   UNL     1     -11.674  -7.735  14.977  0.00  0.00    -0.308 N 
ATOM     22  C   UNL     1     -11.862  -6.375  15.178  0.00  0.00    +0.254 C 
ATOM     36  H   UNL     1     -12.228  -8.212  14.273  0.00  0.00    +0.149 HD
BRANCH  22  25
ATOM      1  S   UNL     1     -12.551  -4.630  13.185  0.00  0.00    +0.041 S 
ATOM     12  N   UNL     1     -14.977  -5.152  13.533  0.00  0.00    -0.146 NA
ATOM     13  N   UNL     1     -14.165  -4.413  12.794  0.00  0.00    -0.110 NA
ATOM     25  C   UNL     1     -12.947  -5.745  14.382  0.00  0.00    +0.117 A 
ATOM     29  C   UNL     1     -14.273  -5.919  14.448  0.00  0.00    +0.081 A 
ATOM     33  C   UNL     1     -15.038  -6.803  15.351  0.00  0.00    +0.069 C 
ENDBRANCH  22  25
ENDBRANCH  14   9
TORSDOF 8
ENDMDL
MODEL 10
REMARK VINA RESULT:      -6.1     28.275     30.760
REMARK  Name = 7134268
REMARK  9 active torsions:
REMARK  status: ('A' for Active; 'I' for Inactive)
REMARK    1  A    between atoms: N_9  and  C_14
REMARK    2  A    between atoms: N_10  and  C_21
REMARK    3  A    between atoms: C_15  and  C_19
REMARK    4  A    between atoms: C_20  and  C_23
REMARK    5  A    between atoms: C_21  and  C_24
REMARK    6  A    between atoms: C_21  and  C_26
REMARK    7  A    between atoms: C_22  and  C_25
REMARK    8  A    between atoms: C_24  and  C_28
REMARK    9  A    between atoms: C_29  and  C_33
REMARK                            x       y       z     vdW  Elec       q    Type
REMARK                         _______ _______ _______ _____ _____    ______ ____
ROOT
ATOM      4  O   UNL     1      -3.230 -10.037  10.326  0.00  0.00    -0.267 OA
ATOM      8  N   UNL     1      -5.393 -10.487  11.038  0.00  0.00    -0.283 N 
ATOM     14  C   UNL     1      -7.677 -10.253  12.854  0.00  0.00    +0.077 C 
ATOM     15  C   UNL     1      -5.211  -9.827  12.337  0.00  0.00    +0.164 C 
ATOM     16  C   UNL     1      -6.504  -9.271  12.933  0.00  0.00    +0.054 C 
ATOM     17  C   UNL     1      -7.838 -10.754  11.421  0.00  0.00    +0.041 C 
ATOM     18  C   UNL     1      -6.551 -11.389  10.908  0.00  0.00    +0.111 C 
ATOM     20  C   UNL     1      -4.396 -10.325  10.049  0.00  0.00    +0.283 C 
ENDROOT
BRANCH  20  23
ATOM      5  O   UNL     1      -5.564  -9.554   8.093  0.00  0.00    -0.458 OA
ATOM     23  C   UNL     1      -4.790 -10.511   8.656  0.00  0.00    +0.189 A 
ATOM     27  C   UNL     1      -4.513 -11.514   7.768  0.00  0.00    +0.054 A 
ATOM     30  C   UNL     1      -5.164 -11.154   6.565  0.00  0.00    +0.042 A 
ATOM     31  C   UNL     1      -5.790  -9.954   6.813  0.00  0.00    +0.196 A 
ENDBRANCH  20  23
BRANCH  15  19
ATOM      3  O   UNL     1      -4.360 -11.992  12.880  0.00  0.00    -0.274 OA
ATOM     10  N   UNL     1      -4.245 -10.302  14.477  0.00  0.00    -0.302 N 
ATOM     19  C   UNL     1      -4.557 -10.834  13.238  0.00  0.00    +0.234 C 
ATOM     37  H   UNL     1      -4.439  -9.324  14.669  0.00  0.00    +0.150 HD
BRANCH  10  21
ATOM     21  C   UNL     1      -3.628 -11.071  15.534  0.00  0.00    +0.163 C 
BRANCH  21  26
ATOM      7  O   UNL     1      -1.316 -10.798  14.838  0.00  0.00    -0.274 OA
ATOM     11  N   UNL     1      -2.228 -12.906  14.815  0.00  0.00    -0.328 N 
ATOM     26  C   UNL     1      -2.277 -11.542  15.015  0.00  0.00    +0.231 C 
ATOM     38  H   UNL     1      -3.027 -13.512  14.976  0.00  0.00    +0.145 HD
ATOM     39  H   UNL     1      -1.380 -13.352  14.482  0.00  0.00    +0.145 HD
ENDBRANCH  21  26
BRANCH  21  24
ATOM     24  C   UNL     1      -4.485 -12.271  15.957  0.00  0.00    +0.074 C 
BRANCH  24  28
ATOM      2  S   UNL     1      -6.581 -12.906  17.637  0.00  0.00    -0.102 S 
ATOM     28  C   UNL     1      -5.151 -12.057  17.297  0.00  0.00    -0.008 A 
ATOM     32  C   UNL     1      -4.740 -11.241  18.302  0.00  0.00    +0.011 A 
ATOM     34  C   UNL     1      -5.632 -11.308  19.411  0.00  0.00    +0.008 A 
ATOM     35  C   UNL     1      -6.677 -12.175  19.183  0.00  0.00    +0.045 A 
ENDBRANCH  24  28
ENDBRANCH  21  24
ENDBRANCH  10  21
ENDBRANCH  15  19
BRANCH  14   9
ATOM      6  O   UNL     1      -8.772 -10.406  15.503  0.00  0.00    -0.270 OA
ATOM      9  N   UNL     1      -8.894  -9.634  13.320  0.00  0.00    -0.308 N 
ATOM     22  C   UNL     1      -9.345  -9.766  14.626  0.00  0.00    +0.254 C 
ATOM     36  H   UNL     1      -9.416  -9.050  12.674  0.00  0.00    +0.149 HD
BRANCH  22  25
ATOM      1  S   UNL     1     -11.964  -9.349  13.950  0.00  0.00    +0.041 S 
ATOM     12  N   UNL     1     -12.253  -7.819  15.912  0.00  0.00    -0.146 NA
ATOM     13  N   UNL     1     -12.912  -8.336  14.887  0.00  0.00    -0.110 NA
ATOM     25  C   UNL     1     -10.629  -9.090  14.941  0.00  0.00    +0.117 A 
ATOM     29  C   UNL     1     -10.937  -8.254  15.941  0.00  0.00    +0.081 A 
ATOM     33  C   UNL     1     -10.066  -7.766  17.030  0.00  0.00    +0.069 C 
ENDBRANCH  22  25
ENDBRANCH  14   9
TORSDOF 8
ENDMDL
