MODEL 1
REMARK VINA RESULT:      -6.6      0.000      0.000
REMARK  Name = 45360758
REMARK  12 active torsions:
REMARK  status: ('A' for Active; 'I' for Inactive)
REMARK    1  A    between atoms: O_3  and  C_28
REMARK    2  A    between atoms: O_3  and  C_29
REMARK    3  A    between atoms: N_6  and  C_9
REMARK    4  A    between atoms: N_6  and  C_17
REMARK    5  A    between atoms: N_7  and  C_22
REMARK    6  A    between atoms: N_7  and  C_23
REMARK    7  A    between atoms: C_10  and  C_15
REMARK    8  A    between atoms: C_15  and  C_16
REMARK    9  A    between atoms: C_16  and  C_18
REMARK   10  A    between atoms: C_17  and  C_19
REMARK   11  A    between atoms: C_22  and  C_26
REMARK   12  A    between atoms: C_23  and  C_27
REMARK                            x       y       z     vdW  Elec       q    Type
REMARK                         _______ _______ _______ _____ _____    ______ ____
ROOT
ATOM      1  O   UNL     1      10.924   6.152  21.224  0.00  0.00    -0.274 OA
ATOM      4  N   UNL     1      11.722   9.603  20.340  0.00  0.00    -0.286 NA
ATOM      5  N   UNL     1      11.147   7.981  22.558  0.00  0.00    -0.313 N 
ATOM      8  C   UNL     1      11.237   8.241  20.083  0.00  0.00    +0.145 C 
ATOM      9  C   UNL     1      13.305   8.747  18.918  0.00  0.00    +0.070 C 
ATOM     10  C   UNL     1      11.176  10.216  21.548  0.00  0.00    +0.075 C 
ATOM     11  C   UNL     1      12.262   7.646  19.103  0.00  0.00    +0.048 C 
ATOM     12  C   UNL     1      13.174   9.581  20.185  0.00  0.00    +0.104 C 
ATOM     13  C   UNL     1      11.486   9.369  22.771  0.00  0.00    +0.123 C 
ATOM     14  C   UNL     1      11.114   7.367  21.329  0.00  0.00    +0.230 C 
ATOM     30  H   UNL     1      11.043   7.392  23.378  0.00  0.00    +0.149 HD
ENDROOT
BRANCH   9   6
ATOM      6  N   UNL     1      14.647   8.230  18.700  0.00  0.00    -0.308 NA
ATOM     31  H   UNL     1      14.734   7.928  17.730  0.00  0.00    +0.123 HD
BRANCH   6  17
ATOM     17  C   UNL     1      14.919   7.097  19.575  0.00  0.00    +0.116 C 
BRANCH  17  19
ATOM     19  C   UNL     1      16.342   7.098  20.070  0.00  0.00    -0.033 A 
ATOM     20  C   UNL     1      17.256   6.173  19.567  0.00  0.00    +0.008 A 
ATOM     21  C   UNL     1      16.745   8.026  21.030  0.00  0.00    +0.008 A 
ATOM     24  C   UNL     1      18.574   6.175  20.025  0.00  0.00    +0.046 A 
ATOM     25  C   UNL     1      18.062   8.029  21.488  0.00  0.00    +0.046 A 
ATOM     28  C   UNL     1      18.977   7.103  20.986  0.00  0.00    +0.120 A 
BRANCH  28   3
ATOM      3  O   UNL     1      20.262   7.106  21.432  0.00  0.00    -0.495 OA
ATOM     29  C   UNL     1      20.586   6.200  22.485  0.00  0.00    +0.277 C 
ENDBRANCH  28   3
ENDBRANCH  17  19
ENDBRANCH   6  17
ENDBRANCH   9   6
BRANCH  10  15
ATOM     15  C   UNL     1      11.647  11.658  21.744  0.00  0.00    +0.029 C 
BRANCH  15  16
ATOM     16  C   UNL     1      12.110  11.898  23.177  0.00  0.00    +0.097 C 
BRANCH  16  18
ATOM      2  O   UNL     1      10.196  12.180  24.593  0.00  0.00    -0.276 OA
ATOM      7  N   UNL     1      11.308  14.114  23.954  0.00  0.00    -0.302 N 
ATOM     18  C   UNL     1      11.113  12.728  23.975  0.00  0.00    +0.216 C 
BRANCH   7  22
ATOM     22  C   UNL     1      12.377  14.806  23.239  0.00  0.00    +0.104 C 
ATOM     26  C   UNL     1      13.429  15.337  24.191  0.00  0.00    +0.024 C 
ENDBRANCH   7  22
BRANCH   7  23
ATOM     23  C   UNL     1      10.389  14.978  24.685  0.00  0.00    +0.104 C 
ATOM     27  C   UNL     1       9.344  15.578  23.767  0.00  0.00    +0.024 C 
ENDBRANCH   7  23
ENDBRANCH  16  18
ENDBRANCH  15  16
ENDBRANCH  10  15
TORSDOF 9
ENDMDL
MODEL 2
REMARK VINA RESULT:      -6.3      1.387      2.154
REMARK  Name = 45360758
REMARK  12 active torsions:
REMARK  status: ('A' for Active; 'I' for Inactive)
REMARK    1  A    between atoms: O_3  and  C_28
REMARK    2  A    between atoms: O_3  and  C_29
REMARK    3  A    between atoms: N_6  and  C_9
REMARK    4  A    between atoms: N_6  and  C_17
REMARK    5  A    between atoms: N_7  and  C_22
REMARK    6  A    between atoms: N_7  and  C_23
REMARK    7  A    between atoms: C_10  and  C_15
REMARK    8  A    between atoms: C_15  and  C_16
REMARK    9  A    between atoms: C_16  and  C_18
REMARK   10  A    between atoms: C_17  and  C_19
REMARK   11  A    between atoms: C_22  and  C_26
REMARK   12  A    between atoms: C_23  and  C_27
REMARK                            x       y       z     vdW  Elec       q    Type
REMARK                         _______ _______ _______ _____ _____    ______ ____
ROOT
ATOM      1  O   UNL     1      11.090   6.407  21.581  0.00  0.00    -0.274 OA
ATOM      4  N   UNL     1      12.124   9.592  20.128  0.00  0.00    -0.286 NA
ATOM      5  N   UNL     1      11.544   8.392  22.597  0.00  0.00    -0.313 N 
ATOM      8  C   UNL     1      11.512   8.258  20.111  0.00  0.00    +0.145 C 
ATOM      9  C   UNL     1      13.544   8.386  18.789  0.00  0.00    +0.070 C 
ATOM     10  C   UNL     1      11.703  10.432  21.245  0.00  0.00    +0.075 C 
ATOM     11  C   UNL     1      12.423   7.428  19.193  0.00  0.00    +0.048 C 
ATOM     12  C   UNL     1      13.557   9.412  19.913  0.00  0.00    +0.104 C 
ATOM     13  C   UNL     1      12.011   9.758  22.573  0.00  0.00    +0.123 C 
ATOM     14  C   UNL     1      11.387   7.602  21.483  0.00  0.00    +0.230 C 
ATOM     30  H   UNL     1      11.439   7.948  23.504  0.00  0.00    +0.149 HD
ENDROOT
BRANCH   9   6
ATOM      6  N   UNL     1      14.822   7.719  18.597  0.00  0.00    -0.308 NA
ATOM     31  H   UNL     1      14.825   7.261  17.686  0.00  0.00    +0.123 HD
BRANCH   6  17
ATOM     17  C   UNL     1      15.050   6.718  19.632  0.00  0.00    +0.116 C 
BRANCH  17  19
ATOM     19  C   UNL     1      16.499   6.651  20.037  0.00  0.00    -0.033 A 
ATOM     20  C   UNL     1      16.953   7.391  21.130  0.00  0.00    +0.008 A 
ATOM     21  C   UNL     1      17.388   5.850  19.321  0.00  0.00    +0.008 A 
ATOM     24  C   UNL     1      18.295   7.329  21.505  0.00  0.00    +0.046 A 
ATOM     25  C   UNL     1      18.730   5.787  19.696  0.00  0.00    +0.046 A 
ATOM     28  C   UNL     1      19.183   6.527  20.788  0.00  0.00    +0.120 A 
BRANCH  28   3
ATOM      3  O   UNL     1      20.492   6.465  21.155  0.00  0.00    -0.495 OA
ATOM     29  C   UNL     1      20.809   6.836  22.495  0.00  0.00    +0.277 C 
ENDBRANCH  28   3
ENDBRANCH  17  19
ENDBRANCH   6  17
ENDBRANCH   9   6
BRANCH  10  15
ATOM     15  C   UNL     1      12.305  11.837  21.190  0.00  0.00    +0.029 C 
BRANCH  15  16
ATOM     16  C   UNL     1      11.791  12.703  22.335  0.00  0.00    +0.097 C 
BRANCH  16  18
ATOM      2  O   UNL     1      13.995  13.527  22.794  0.00  0.00    -0.276 OA
ATOM      7  N   UNL     1      12.630  13.140  24.629  0.00  0.00    -0.302 N 
ATOM     18  C   UNL     1      12.912  13.163  23.259  0.00  0.00    +0.216 C 
BRANCH   7  22
ATOM     22  C   UNL     1      11.364  12.718  25.225  0.00  0.00    +0.104 C 
ATOM     26  C   UNL     1      10.556  13.904  25.710  0.00  0.00    +0.024 C 
ENDBRANCH   7  22
BRANCH   7  23
ATOM     23  C   UNL     1      13.654  13.555  25.579  0.00  0.00    +0.104 C 
ATOM     27  C   UNL     1      14.366  12.362  26.183  0.00  0.00    +0.024 C 
ENDBRANCH   7  23
ENDBRANCH  16  18
ENDBRANCH  15  16
ENDBRANCH  10  15
TORSDOF 9
ENDMDL
MODEL 3
REMARK VINA RESULT:      -6.3     27.066     29.488
REMARK  Name = 45360758
REMARK  12 active torsions:
REMARK  status: ('A' for Active; 'I' for Inactive)
REMARK    1  A    between atoms: O_3  and  C_28
REMARK    2  A    between atoms: O_3  and  C_29
REMARK    3  A    between atoms: N_6  and  C_9
REMARK    4  A    between atoms: N_6  and  C_17
REMARK    5  A    between atoms: N_7  and  C_22
REMARK    6  A    between atoms: N_7  and  C_23
REMARK    7  A    between atoms: C_10  and  C_15
REMARK    8  A    between atoms: C_15  and  C_16
REMARK    9  A    between atoms: C_16  and  C_18
REMARK   10  A    between atoms: C_17  and  C_19
REMARK   11  A    between atoms: C_22  and  C_26
REMARK   12  A    between atoms: C_23  and  C_27
REMARK                            x       y       z     vdW  Elec       q    Type
REMARK                         _______ _______ _______ _____ _____    ______ ____
ROOT
ATOM      1  O   UNL     1      -2.367 -14.677  14.417  0.00  0.00    -0.274 OA
ATOM      4  N   UNL     1      -2.227 -11.530  12.573  0.00  0.00    -0.286 NA
ATOM      5  N   UNL     1      -3.646 -13.949  12.681  0.00  0.00    -0.313 N 
ATOM      8  C   UNL     1      -1.690 -12.598  13.425  0.00  0.00    +0.145 C 
ATOM      9  C   UNL     1      -1.955 -10.491  14.600  0.00  0.00    +0.070 C 
ATOM     10  C   UNL     1      -2.916 -12.004  11.376  0.00  0.00    +0.075 C 
ATOM     11  C   UNL     1      -1.465 -11.926  14.789  0.00  0.00    +0.048 C 
ATOM     12  C   UNL     1      -2.940 -10.600  13.444  0.00  0.00    +0.104 C 
ATOM     13  C   UNL     1      -4.063 -12.931  11.745  0.00  0.00    +0.123 C 
ATOM     14  C   UNL     1      -2.604 -13.813  13.567  0.00  0.00    +0.230 C 
ATOM     30  H   UNL     1      -4.233 -14.771  12.773  0.00  0.00    +0.149 HD
ENDROOT
BRANCH   9   6
ATOM      6  N   UNL     1      -2.538  -9.924  15.807  0.00  0.00    -0.308 NA
ATOM     31  H   UNL     1      -1.797  -9.497  16.364  0.00  0.00    +0.123 HD
BRANCH   6  17
ATOM     17  C   UNL     1      -3.196 -10.953  16.603  0.00  0.00    +0.116 C 
BRANCH  17  19
ATOM     19  C   UNL     1      -4.613 -10.575  16.945  0.00  0.00    -0.033 A 
ATOM     20  C   UNL     1      -5.098 -10.781  18.236  0.00  0.00    +0.008 A 
ATOM     21  C   UNL     1      -5.441 -10.019  15.969  0.00  0.00    +0.008 A 
ATOM     24  C   UNL     1      -6.411 -10.431  18.552  0.00  0.00    +0.046 A 
ATOM     25  C   UNL     1      -6.753  -9.668  16.285  0.00  0.00    +0.046 A 
ATOM     28  C   UNL     1      -7.239  -9.875  17.577  0.00  0.00    +0.120 A 
BRANCH  28   3
ATOM      3  O   UNL     1      -8.519  -9.532  17.885  0.00  0.00    -0.495 OA
ATOM     29  C   UNL     1      -9.102  -8.462  17.143  0.00  0.00    +0.277 C 
ENDBRANCH  28   3
ENDBRANCH  17  19
ENDBRANCH   6  17
ENDBRANCH   9   6
BRANCH  10  15
ATOM     15  C   UNL     1      -3.397 -10.864  10.478  0.00  0.00    +0.029 C 
BRANCH  15  16
ATOM     16  C   UNL     1      -4.714 -11.217   9.796  0.00  0.00    +0.097 C 
BRANCH  16  18
ATOM      2  O   UNL     1      -4.927  -9.623   8.018  0.00  0.00    -0.276 OA
ATOM      7  N   UNL     1      -6.413  -9.408   9.786  0.00  0.00    -0.302 N 
ATOM     18  C   UNL     1      -5.349 -10.015   9.109  0.00  0.00    +0.216 C 
BRANCH   7  22
ATOM     22  C   UNL     1      -6.948  -9.836  11.076  0.00  0.00    +0.104 C 
ATOM     26  C   UNL     1      -6.367  -9.024  12.215  0.00  0.00    +0.024 C 
ENDBRANCH   7  22
BRANCH   7  23
ATOM     23  C   UNL     1      -7.067  -8.246   9.199  0.00  0.00    +0.104 C 
ATOM     27  C   UNL     1      -8.576  -8.377   9.242  0.00  0.00    +0.024 C 
ENDBRANCH   7  23
ENDBRANCH  16  18
ENDBRANCH  15  16
ENDBRANCH  10  15
TORSDOF 9
ENDMDL
MODEL 4
REMARK VINA RESULT:      -6.2     27.136     29.540
REMARK  Name = 45360758
REMARK  12 active torsions:
REMARK  status: ('A' for Active; 'I' for Inactive)
REMARK    1  A    between atoms: O_3  and  C_28
REMARK    2  A    between atoms: O_3  and  C_29
REMARK    3  A    between atoms: N_6  and  C_9
REMARK    4  A    between atoms: N_6  and  C_17
REMARK    5  A    between atoms: N_7  and  C_22
REMARK    6  A    between atoms: N_7  and  C_23
REMARK    7  A    between atoms: C_10  and  C_15
REMARK    8  A    between atoms: C_15  and  C_16
REMARK    9  A    between atoms: C_16  and  C_18
REMARK   10  A    between atoms: C_17  and  C_19
REMARK   11  A    between atoms: C_22  and  C_26
REMARK   12  A    between atoms: C_23  and  C_27
REMARK                            x       y       z     vdW  Elec       q    Type
REMARK                         _______ _______ _______ _____ _____    ______ ____
ROOT
ATOM      1  O   UNL     1      -2.939 -14.509  13.517  0.00  0.00    -0.274 OA
ATOM      4  N   UNL     1      -2.300 -11.096  12.390  0.00  0.00    -0.286 NA
ATOM      5  N   UNL     1      -3.952 -13.305  11.874  0.00  0.00    -0.313 N 
ATOM      8  C   UNL     1      -1.962 -12.368  13.041  0.00  0.00    +0.145 C 
ATOM      9  C   UNL     1      -2.142 -10.520  14.606  0.00  0.00    +0.070 C 
ATOM     10  C   UNL     1      -2.903 -11.239  11.069  0.00  0.00    +0.075 C 
ATOM     11  C   UNL     1      -1.816 -12.012  14.529  0.00  0.00    +0.048 C 
ATOM     12  C   UNL     1      -3.006 -10.281  13.375  0.00  0.00    +0.104 C 
ATOM     13  C   UNL     1      -4.167 -12.080  11.140  0.00  0.00    +0.123 C 
ATOM     14  C   UNL     1      -3.000 -13.471  12.851  0.00  0.00    +0.230 C 
ATOM     30  H   UNL     1      -4.623 -14.055  11.743  0.00  0.00    +0.149 HD
ENDROOT
BRANCH   9   6
ATOM      6  N   UNL     1      -2.789 -10.140  15.852  0.00  0.00    -0.308 NA
ATOM     31  H   UNL     1      -2.193  -9.475  16.346  0.00  0.00    +0.123 HD
BRANCH   6  17
ATOM     17  C   UNL     1      -3.007 -11.303  16.703  0.00  0.00    +0.116 C 
BRANCH  17  19
ATOM     19  C   UNL     1      -4.235 -11.146  17.561  0.00  0.00    -0.033 A 
ATOM     20  C   UNL     1      -5.305 -10.370  17.114  0.00  0.00    +0.008 A 
ATOM     21  C   UNL     1      -4.302 -11.777  18.803  0.00  0.00    +0.008 A 
ATOM     24  C   UNL     1      -6.441 -10.225  17.910  0.00  0.00    +0.046 A 
ATOM     25  C   UNL     1      -5.439 -11.632  19.599  0.00  0.00    +0.046 A 
ATOM     28  C   UNL     1      -6.508 -10.856  19.152  0.00  0.00    +0.120 A 
BRANCH  28   3
ATOM      3  O   UNL     1      -7.617 -10.715  19.928  0.00  0.00    -0.495 OA
ATOM     29  C   UNL     1      -8.800 -11.387  19.498  0.00  0.00    +0.277 C 
ENDBRANCH  28   3
ENDBRANCH  17  19
ENDBRANCH   6  17
ENDBRANCH   9   6
BRANCH  10  15
ATOM     15  C   UNL     1      -3.174  -9.895  10.392  0.00  0.00    +0.029 C 
BRANCH  15  16
ATOM     16  C   UNL     1      -4.209 -10.034   9.281  0.00  0.00    +0.097 C 
BRANCH  16  18
ATOM      2  O   UNL     1      -5.097  -7.947  10.055  0.00  0.00    -0.276 OA
ATOM      7  N   UNL     1      -6.366  -9.096   8.489  0.00  0.00    -0.302 N 
ATOM     18  C   UNL     1      -5.253  -8.926   9.321  0.00  0.00    +0.216 C 
BRANCH   7  22
ATOM     22  C   UNL     1      -6.593 -10.236   7.604  0.00  0.00    +0.104 C 
ATOM     26  C   UNL     1      -6.277  -9.890   6.163  0.00  0.00    +0.024 C 
ENDBRANCH   7  22
BRANCH   7  23
ATOM     23  C   UNL     1      -7.414  -8.084   8.479  0.00  0.00    +0.104 C 
ATOM     27  C   UNL     1      -8.539  -8.441   9.428  0.00  0.00    +0.024 C 
ENDBRANCH   7  23
ENDBRANCH  16  18
ENDBRANCH  15  16
ENDBRANCH  10  15
TORSDOF 9
ENDMDL
MODEL 5
REMARK VINA RESULT:      -6.1     27.834     29.867
REMARK  Name = 45360758
REMARK  12 active torsions:
REMARK  status: ('A' for Active; 'I' for Inactive)
REMARK    1  A    between atoms: O_3  and  C_28
REMARK    2  A    between atoms: O_3  and  C_29
REMARK    3  A    between atoms: N_6  and  C_9
REMARK    4  A    between atoms: N_6  and  C_17
REMARK    5  A    between atoms: N_7  and  C_22
REMARK    6  A    between atoms: N_7  and  C_23
REMARK    7  A    between atoms: C_10  and  C_15
REMARK    8  A    between atoms: C_15  and  C_16
REMARK    9  A    between atoms: C_16  and  C_18
REMARK   10  A    between atoms: C_17  and  C_19
REMARK   11  A    between atoms: C_22  and  C_26
REMARK   12  A    between atoms: C_23  and  C_27
REMARK                            x       y       z     vdW  Elec       q    Type
REMARK                         _______ _______ _______ _____ _____    ______ ____
ROOT
ATOM      1  O   UNL     1      -7.712 -11.575  14.337  0.00  0.00    -0.274 OA
ATOM      4  N   UNL     1      -4.581 -11.313  12.479  0.00  0.00    -0.286 NA
ATOM      5  N   UNL     1      -6.916  -9.868  13.060  0.00  0.00    -0.313 N 
ATOM      8  C   UNL     1      -5.676 -12.026  13.147  0.00  0.00    +0.145 C 
ATOM      9  C   UNL     1      -3.555 -12.244  14.307  0.00  0.00    +0.070 C 
ATOM     10  C   UNL     1      -5.019 -10.268  11.558  0.00  0.00    +0.075 C 
ATOM     11  C   UNL     1      -5.016 -12.692  14.365  0.00  0.00    +0.048 C 
ATOM     12  C   UNL     1      -3.611 -10.950  13.508  0.00  0.00    +0.104 C 
ATOM     13  C   UNL     1      -5.879  -9.240  12.276  0.00  0.00    +0.123 C 
ATOM     14  C   UNL     1      -6.837 -11.136  13.584  0.00  0.00    +0.230 C 
ATOM     30  H   UNL     1      -7.704  -9.294  13.342  0.00  0.00    +0.149 HD
ENDROOT
BRANCH   9   6
ATOM      6  N   UNL     1      -2.954 -12.088  15.623  0.00  0.00    -0.308 NA
ATOM     31  H   UNL     1      -3.338 -12.796  16.249  0.00  0.00    +0.123 HD
BRANCH   6  17
ATOM     17  C   UNL     1      -3.233 -10.767  16.172  0.00  0.00    +0.116 C 
BRANCH  17  19
ATOM     19  C   UNL     1      -4.354 -10.804  17.177  0.00  0.00    -0.033 A 
ATOM     20  C   UNL     1      -5.536 -10.104  16.931  0.00  0.00    +0.008 A 
ATOM     21  C   UNL     1      -4.211 -11.537  18.355  0.00  0.00    +0.008 A 
ATOM     24  C   UNL     1      -6.574 -10.138  17.862  0.00  0.00    +0.046 A 
ATOM     25  C   UNL     1      -5.248 -11.572  19.286  0.00  0.00    +0.046 A 
ATOM     28  C   UNL     1      -6.430 -10.873  19.040  0.00  0.00    +0.120 A 
BRANCH  28   3
ATOM      3  O   UNL     1      -7.442 -10.907  19.948  0.00  0.00    -0.495 OA
ATOM     29  C   UNL     1      -8.742 -11.236  19.460  0.00  0.00    +0.277 C 
ENDBRANCH  28   3
ENDBRANCH  17  19
ENDBRANCH   6  17
ENDBRANCH   9   6
BRANCH  10  15
ATOM     15  C   UNL     1      -3.855  -9.597  10.827  0.00  0.00    +0.029 C 
BRANCH  15  16
ATOM     16  C   UNL     1      -4.352  -8.735   9.671  0.00  0.00    +0.097 C 
BRANCH  16  18
ATOM      2  O   UNL     1      -4.424 -10.516   8.069  0.00  0.00    -0.276 OA
ATOM      7  N   UNL     1      -6.308  -9.170   8.207  0.00  0.00    -0.302 N 
ATOM     18  C   UNL     1      -5.016  -9.562   8.578  0.00  0.00    +0.216 C 
BRANCH   7  22
ATOM     22  C   UNL     1      -7.049  -8.049   8.781  0.00  0.00    +0.104 C 
ATOM     26  C   UNL     1      -8.247  -8.526   9.577  0.00  0.00    +0.024 C 
ENDBRANCH   7  22
BRANCH   7  23
ATOM     23  C   UNL     1      -7.007  -9.905   7.161  0.00  0.00    +0.104 C 
ATOM     27  C   UNL     1      -6.966  -9.163   5.841  0.00  0.00    +0.024 C 
ENDBRANCH   7  23
ENDBRANCH  16  18
ENDBRANCH  15  16
ENDBRANCH  10  15
TORSDOF 9
ENDMDL
MODEL 6
REMARK VINA RESULT:      -5.8     27.255     30.177
REMARK  Name = 45360758
REMARK  12 active torsions:
REMARK  status: ('A' for Active; 'I' for Inactive)
REMARK    1  A    between atoms: O_3  and  C_28
REMARK    2  A    between atoms: O_3  and  C_29
REMARK    3  A    between atoms: N_6  and  C_9
REMARK    4  A    between atoms: N_6  and  C_17
REMARK    5  A    between atoms: N_7  and  C_22
REMARK    6  A    between atoms: N_7  and  C_23
REMARK    7  A    between atoms: C_10  and  C_15
REMARK    8  A    between atoms: C_15  and  C_16
REMARK    9  A    between atoms: C_16  and  C_18
REMARK   10  A    between atoms: C_17  and  C_19
REMARK   11  A    between atoms: C_22  and  C_26
REMARK   12  A    between atoms: C_23  and  C_27
REMARK                            x       y       z     vdW  Elec       q    Type
REMARK                         _______ _______ _______ _____ _____    ______ ____
ROOT
ATOM      1  O   UNL     1      -5.564 -13.951  17.159  0.00  0.00    -0.274 OA
ATOM      4  N   UNL     1      -3.837 -10.939  16.031  0.00  0.00    -0.286 NA
ATOM      5  N   UNL     1      -4.288 -13.612  15.306  0.00  0.00    -0.313 N 
ATOM      8  C   UNL     1      -4.472 -11.817  17.022  0.00  0.00    +0.145 C 
ATOM      9  C   UNL     1      -5.727  -9.778  16.621  0.00  0.00    +0.070 C 
ATOM     10  C   UNL     1      -2.878 -11.611  15.160  0.00  0.00    +0.075 C 
ATOM     11  C   UNL     1      -5.730 -11.053  17.464  0.00  0.00    +0.048 C 
ATOM     12  C   UNL     1      -4.900 -10.161  15.401  0.00  0.00    +0.104 C 
ATOM     13  C   UNL     1      -3.537 -12.759  14.414  0.00  0.00    +0.123 C 
ATOM     14  C   UNL     1      -4.840 -13.202  16.496  0.00  0.00    +0.230 C 
ATOM     30  H   UNL     1      -4.524 -14.543  14.977  0.00  0.00    +0.149 HD
ENDROOT
BRANCH   9   6
ATOM      6  N   UNL     1      -7.063  -9.309  16.291  0.00  0.00    -0.308 NA
ATOM     31  H   UNL     1      -7.003  -8.353  15.940  0.00  0.00    +0.123 HD
BRANCH   6  17
ATOM     17  C   UNL     1      -7.928  -9.328  17.465  0.00  0.00    +0.116 C 
BRANCH  17  19
ATOM     19  C   UNL     1      -9.317  -8.842  17.145  0.00  0.00    -0.033 A 
ATOM     20  C   UNL     1      -9.519  -7.949  16.092  0.00  0.00    +0.008 A 
ATOM     21  C   UNL     1     -10.402  -9.284  17.902  0.00  0.00    +0.008 A 
ATOM     24  C   UNL     1     -10.806  -7.499  15.797  0.00  0.00    +0.046 A 
ATOM     25  C   UNL     1     -11.689  -8.834  17.607  0.00  0.00    +0.046 A 
ATOM     28  C   UNL     1     -11.890  -7.942  16.554  0.00  0.00    +0.120 A 
BRANCH  28   3
ATOM      3  O   UNL     1     -13.146  -7.503  16.265  0.00  0.00    -0.495 OA
ATOM     29  C   UNL     1     -14.191  -8.473  16.276  0.00  0.00    +0.277 C 
ENDBRANCH  28   3
ENDBRANCH  17  19
ENDBRANCH   6  17
ENDBRANCH   9   6
BRANCH  10  15
ATOM     15  C   UNL     1      -2.185 -10.652  14.191  0.00  0.00    +0.029 C 
BRANCH  15  16
ATOM     16  C   UNL     1      -2.025 -11.281  12.811  0.00  0.00    +0.097 C 
BRANCH  16  18
ATOM      2  O   UNL     1      -1.187  -9.450  11.511  0.00  0.00    -0.276 OA
ATOM      7  N   UNL     1      -3.270 -10.278  10.914  0.00  0.00    -0.302 N 
ATOM     18  C   UNL     1      -2.108 -10.250  11.693  0.00  0.00    +0.216 C 
BRANCH   7  22
ATOM     22  C   UNL     1      -4.385 -11.206  11.091  0.00  0.00    +0.104 C 
ATOM     26  C   UNL     1      -4.351 -12.317  10.061  0.00  0.00    +0.024 C 
ENDBRANCH   7  22
BRANCH   7  23
ATOM     23  C   UNL     1      -3.430  -9.317   9.830  0.00  0.00    +0.104 C 
ATOM     27  C   UNL     1      -4.693  -8.498   9.997  0.00  0.00    +0.024 C 
ENDBRANCH   7  23
ENDBRANCH  16  18
ENDBRANCH  15  16
ENDBRANCH  10  15
TORSDOF 9
ENDMDL
MODEL 7
REMARK VINA RESULT:      -5.8     26.901     30.034
REMARK  Name = 45360758
REMARK  12 active torsions:
REMARK  status: ('A' for Active; 'I' for Inactive)
REMARK    1  A    between atoms: O_3  and  C_28
REMARK    2  A    between atoms: O_3  and  C_29
REMARK    3  A    between atoms: N_6  and  C_9
REMARK    4  A    between atoms: N_6  and  C_17
REMARK    5  A    between atoms: N_7  and  C_22
REMARK    6  A    between atoms: N_7  and  C_23
REMARK    7  A    between atoms: C_10  and  C_15
REMARK    8  A    between atoms: C_15  and  C_16
REMARK    9  A    between atoms: C_16  and  C_18
REMARK   10  A    between atoms: C_17  and  C_19
REMARK   11  A    between atoms: C_22  and  C_26
REMARK   12  A    between atoms: C_23  and  C_27
REMARK                            x       y       z     vdW  Elec       q    Type
REMARK                         _______ _______ _______ _____ _____    ______ ____
ROOT
ATOM      1  O   UNL     1     -19.252   3.806  22.811  0.00  0.00    -0.274 OA
ATOM      4  N   UNL     1     -15.611   3.991  22.991  0.00  0.00    -0.286 NA
ATOM      5  N   UNL     1     -17.835   5.406  22.030  0.00  0.00    -0.313 N 
ATOM      8  C   UNL     1     -16.911   3.310  23.005  0.00  0.00    +0.145 C 
ATOM      9  C   UNL     1     -15.800   3.275  25.163  0.00  0.00    +0.070 C 
ATOM     10  C   UNL     1     -15.435   4.926  21.884  0.00  0.00    +0.075 C 
ATOM     11  C   UNL     1     -17.057   2.787  24.443  0.00  0.00    +0.048 C 
ATOM     12  C   UNL     1     -15.368   4.484  24.344  0.00  0.00    +0.104 C 
ATOM     13  C   UNL     1     -16.521   5.990  21.898  0.00  0.00    +0.123 C 
ATOM     14  C   UNL     1     -18.095   4.198  22.632  0.00  0.00    +0.230 C 
ATOM     30  H   UNL     1     -18.632   5.979  21.768  0.00  0.00    +0.149 HD
ENDROOT
BRANCH   9   6
ATOM      6  N   UNL     1     -16.028   3.578  26.567  0.00  0.00    -0.308 NA
ATOM     31  H   UNL     1     -15.155   3.902  26.983  0.00  0.00    +0.123 HD
BRANCH   6  17
ATOM     17  C   UNL     1     -16.488   2.397  27.288  0.00  0.00    +0.116 C 
BRANCH  17  19
ATOM     19  C   UNL     1     -15.808   2.258  28.625  0.00  0.00    -0.033 A 
ATOM     20  C   UNL     1     -15.185   3.360  29.210  0.00  0.00    +0.008 A 
ATOM     21  C   UNL     1     -15.802   1.026  29.279  0.00  0.00    +0.008 A 
ATOM     24  C   UNL     1     -14.556   3.231  30.448  0.00  0.00    +0.046 A 
ATOM     25  C   UNL     1     -15.173   0.896  30.517  0.00  0.00    +0.046 A 
ATOM     28  C   UNL     1     -14.550   1.999  31.102  0.00  0.00    +0.120 A 
BRANCH  28   3
ATOM      3  O   UNL     1     -13.937   1.872  32.310  0.00  0.00    -0.495 OA
ATOM     29  C   UNL     1     -14.778   1.773  33.457  0.00  0.00    +0.277 C 
ENDBRANCH  28   3
ENDBRANCH  17  19
ENDBRANCH   6  17
ENDBRANCH   9   6
BRANCH  10  15
ATOM     15  C   UNL     1     -14.044   5.562  21.862  0.00  0.00    +0.029 C 
BRANCH  15  16
ATOM     16  C   UNL     1     -14.030   6.832  21.018  0.00  0.00    +0.097 C 
BRANCH  16  18
ATOM      2  O   UNL     1     -11.640   6.653  21.047  0.00  0.00    -0.276 OA
ATOM      7  N   UNL     1     -12.548   8.176  19.551  0.00  0.00    -0.302 N 
ATOM     18  C   UNL     1     -12.628   7.201  20.551  0.00  0.00    +0.216 C 
BRANCH   7  22
ATOM     22  C   UNL     1     -13.687   8.850  18.934  0.00  0.00    +0.104 C 
ATOM     26  C   UNL     1     -13.910  10.224  19.532  0.00  0.00    +0.024 C 
ENDBRANCH   7  22
BRANCH   7  23
ATOM     23  C   UNL     1     -11.240   8.591  19.058  0.00  0.00    +0.104 C 
ATOM     27  C   UNL     1     -10.976   8.052  17.666  0.00  0.00    +0.024 C 
ENDBRANCH   7  23
ENDBRANCH  16  18
ENDBRANCH  15  16
ENDBRANCH  10  15
TORSDOF 9
ENDMDL
MODEL 8
REMARK VINA RESULT:      -5.8     27.323     30.505
REMARK  Name = 45360758
REMARK  12 active torsions:
REMARK  status: ('A' for Active; 'I' for Inactive)
REMARK    1  A    between atoms: O_3  and  C_28
REMARK    2  A    between atoms: O_3  and  C_29
REMARK    3  A    between atoms: N_6  and  C_9
REMARK    4  A    between atoms: N_6  and  C_17
REMARK    5  A    between atoms: N_7  and  C_22
REMARK    6  A    between atoms: N_7  and  C_23
REMARK    7  A    between atoms: C_10  and  C_15
REMARK    8  A    between atoms: C_15  and  C_16
REMARK    9  A    between atoms: C_16  and  C_18
REMARK   10  A    between atoms: C_17  and  C_19
REMARK   11  A    between atoms: C_22  and  C_26
REMARK   12  A    between atoms: C_23  and  C_27
REMARK                            x       y       z     vdW  Elec       q    Type
REMARK                         _______ _______ _______ _____ _____    ______ ____
ROOT
ATOM      1  O   UNL     1      -7.877 -12.009  20.104  0.00  0.00    -0.274 OA
ATOM      4  N   UNL     1      -5.776 -10.930  17.320  0.00  0.00    -0.286 NA
ATOM      5  N   UNL     1      -6.775 -13.248  18.546  0.00  0.00    -0.313 N 
ATOM      8  C   UNL     1      -6.443 -10.782  18.619  0.00  0.00    +0.145 C 
ATOM      9  C   UNL     1      -7.350  -9.311  16.915  0.00  0.00    +0.070 C 
ATOM     10  C   UNL     1      -5.055 -12.189  17.155  0.00  0.00    +0.075 C 
ATOM     11  C   UNL     1      -7.487  -9.677  18.392  0.00  0.00    +0.048 C 
ATOM     12  C   UNL     1      -6.746 -10.562  16.293  0.00  0.00    +0.104 C 
ATOM     13  C   UNL     1      -5.988 -13.374  17.342  0.00  0.00    +0.123 C 
ATOM     14  C   UNL     1      -7.109 -12.054  19.138  0.00  0.00    +0.230 C 
ATOM     30  H   UNL     1      -7.209 -14.089  18.913  0.00  0.00    +0.149 HD
ENDROOT
BRANCH   9   6
ATOM      6  N   UNL     1      -8.609  -8.911  16.307  0.00  0.00    -0.308 NA
ATOM     31  H   UNL     1      -8.417  -8.274  15.533  0.00  0.00    +0.123 HD
BRANCH   6  17
ATOM     17  C   UNL     1      -9.466  -8.237  17.274  0.00  0.00    +0.116 C 
BRANCH  17  19
ATOM     19  C   UNL     1     -10.698  -7.661  16.627  0.00  0.00    -0.033 A 
ATOM     20  C   UNL     1     -11.920  -8.323  16.741  0.00  0.00    +0.008 A 
ATOM     21  C   UNL     1     -10.616  -6.466  15.913  0.00  0.00    +0.008 A 
ATOM     24  C   UNL     1     -13.061  -7.790  16.141  0.00  0.00    +0.046 A 
ATOM     25  C   UNL     1     -11.756  -5.932  15.313  0.00  0.00    +0.046 A 
ATOM     28  C   UNL     1     -12.979  -6.594  15.427  0.00  0.00    +0.120 A 
BRANCH  28   3
ATOM      3  O   UNL     1     -14.092  -6.073  14.842  0.00  0.00    -0.495 OA
ATOM     29  C   UNL     1     -13.961  -5.601  13.502  0.00  0.00    +0.277 C 
ENDBRANCH  28   3
ENDBRANCH  17  19
ENDBRANCH   6  17
ENDBRANCH   9   6
BRANCH  10  15
ATOM     15  C   UNL     1      -4.314 -12.277  15.821  0.00  0.00    +0.029 C 
BRANCH  15  16
ATOM     16  C   UNL     1      -3.400 -11.073  15.616  0.00  0.00    +0.097 C 
BRANCH  16  18
ATOM      2  O   UNL     1      -1.295 -11.741  14.682  0.00  0.00    -0.276 OA
ATOM      7  N   UNL     1      -2.876 -10.922  13.195  0.00  0.00    -0.302 N 
ATOM     18  C   UNL     1      -2.420 -11.281  14.469  0.00  0.00    +0.216 C 
BRANCH   7  22
ATOM     22  C   UNL     1      -4.197 -10.375  12.893  0.00  0.00    +0.104 C 
ATOM     26  C   UNL     1      -5.032 -11.351  12.091  0.00  0.00    +0.024 C 
ENDBRANCH   7  22
BRANCH   7  23
ATOM     23  C   UNL     1      -1.994 -11.081  12.046  0.00  0.00    +0.104 C 
ATOM     27  C   UNL     1      -1.724  -9.754  11.366  0.00  0.00    +0.024 C 
ENDBRANCH   7  23
ENDBRANCH  16  18
ENDBRANCH  15  16
ENDBRANCH  10  15
TORSDOF 9
ENDMDL
MODEL 9
REMARK VINA RESULT:      -5.7     27.382     30.659
REMARK  Name = 45360758
REMARK  12 active torsions:
REMARK  status: ('A' for Active; 'I' for Inactive)
REMARK    1  A    between atoms: O_3  and  C_28
REMARK    2  A    between atoms: O_3  and  C_29
REMARK    3  A    between atoms: N_6  and  C_9
REMARK    4  A    between atoms: N_6  and  C_17
REMARK    5  A    between atoms: N_7  and  C_22
REMARK    6  A    between atoms: N_7  and  C_23
REMARK    7  A    between atoms: C_10  and  C_15
REMARK    8  A    between atoms: C_15  and  C_16
REMARK    9  A    between atoms: C_16  and  C_18
REMARK   10  A    between atoms: C_17  and  C_19
REMARK   11  A    between atoms: C_22  and  C_26
REMARK   12  A    between atoms: C_23  and  C_27
REMARK                            x       y       z     vdW  Elec       q    Type
REMARK                         _______ _______ _______ _____ _____    ______ ____
ROOT
ATOM      1  O   UNL     1      -9.151 -11.316  13.912  0.00  0.00    -0.274 OA
ATOM      4  N   UNL     1      -6.817 -10.759  16.663  0.00  0.00    -0.286 NA
ATOM      5  N   UNL     1      -7.025 -10.507  13.876  0.00  0.00    -0.313 N 
ATOM      8  C   UNL     1      -7.980 -11.369  16.007  0.00  0.00    +0.145 C 
ATOM      9  C   UNL     1      -8.589  -9.891  17.834  0.00  0.00    +0.070 C 
ATOM     10  C   UNL     1      -5.601 -10.765  15.856  0.00  0.00    +0.075 C 
ATOM     11  C   UNL     1      -9.189 -10.833  16.790  0.00  0.00    +0.048 C 
ATOM     12  C   UNL     1      -7.257  -9.483  17.221  0.00  0.00    +0.104 C 
ATOM     13  C   UNL     1      -5.825 -10.047  14.535  0.00  0.00    +0.123 C 
ATOM     14  C   UNL     1      -8.113 -11.043  14.522  0.00  0.00    +0.230 C 
ATOM     30  H   UNL     1      -7.119 -10.314  12.884  0.00  0.00    +0.149 HD
ENDROOT
BRANCH   9   6
ATOM      6  N   UNL     1      -9.452  -8.764  18.149  0.00  0.00    -0.308 NA
ATOM     31  H   UNL     1      -9.370  -8.550  19.143  0.00  0.00    +0.123 HD
BRANCH   6  17
ATOM     17  C   UNL     1     -10.844  -9.070  17.844  0.00  0.00    +0.116 C 
BRANCH  17  19
ATOM     19  C   UNL     1     -11.452  -8.052  16.916  0.00  0.00    -0.033 A 
ATOM     20  C   UNL     1     -12.708  -8.281  16.353  0.00  0.00    +0.008 A 
ATOM     21  C   UNL     1     -10.759  -6.878  16.619  0.00  0.00    +0.008 A 
ATOM     24  C   UNL     1     -13.270  -7.337  15.494  0.00  0.00    +0.046 A 
ATOM     25  C   UNL     1     -11.321  -5.934  15.760  0.00  0.00    +0.046 A 
ATOM     28  C   UNL     1     -12.576  -6.164  15.197  0.00  0.00    +0.120 A 
BRANCH  28   3
ATOM      3  O   UNL     1     -13.125  -5.242  14.360  0.00  0.00    -0.495 OA
ATOM     29  C   UNL     1     -12.322  -4.797  13.268  0.00  0.00    +0.277 C 
ENDBRANCH  28   3
ENDBRANCH  17  19
ENDBRANCH   6  17
ENDBRANCH   9   6
BRANCH  10  15
ATOM     15  C   UNL     1      -4.395 -10.188  16.598  0.00  0.00    +0.029 C 
BRANCH  15  16
ATOM     16  C   UNL     1      -3.229 -11.171  16.607  0.00  0.00    +0.097 C 
BRANCH  16  18
ATOM      2  O   UNL     1      -1.648 -10.115  15.147  0.00  0.00    -0.276 OA
ATOM      7  N   UNL     1      -2.516 -12.146  14.440  0.00  0.00    -0.302 N 
ATOM     18  C   UNL     1      -2.388 -11.082  15.340  0.00  0.00    +0.216 C 
BRANCH   7  22
ATOM     22  C   UNL     1      -3.378 -13.311  14.624  0.00  0.00    +0.104 C 
ATOM     26  C   UNL     1      -2.666 -14.594  14.245  0.00  0.00    +0.024 C 
ENDBRANCH   7  22
BRANCH   7  23
ATOM     23  C   UNL     1      -1.752 -12.131  13.199  0.00  0.00    +0.104 C 
ATOM     27  C   UNL     1      -2.538 -11.492  12.072  0.00  0.00    +0.024 C 
ENDBRANCH   7  23
ENDBRANCH  16  18
ENDBRANCH  15  16
ENDBRANCH  10  15
TORSDOF 9
ENDMDL
MODEL 10
REMARK VINA RESULT:      -5.7     17.343     21.290
REMARK  Name = 45360758
REMARK  12 active torsions:
REMARK  status: ('A' for Active; 'I' for Inactive)
REMARK    1  A    between atoms: O_3  and  C_28
REMARK    2  A    between atoms: O_3  and  C_29
REMARK    3  A    between atoms: N_6  and  C_9
REMARK    4  A    between atoms: N_6  and  C_17
REMARK    5  A    between atoms: N_7  and  C_22
REMARK    6  A    between atoms: N_7  and  C_23
REMARK    7  A    between atoms: C_10  and  C_15
REMARK    8  A    between atoms: C_15  and  C_16
REMARK    9  A    between atoms: C_16  and  C_18
REMARK   10  A    between atoms: C_17  and  C_19
REMARK   11  A    between atoms: C_22  and  C_26
REMARK   12  A    between atoms: C_23  and  C_27
REMARK                            x       y       z     vdW  Elec       q    Type
REMARK                         _______ _______ _______ _____ _____    ______ ____
ROOT
ATOM      1  O   UNL     1       9.328   6.183   8.391  0.00  0.00    -0.274 OA
ATOM      4  N   UNL     1      10.288   7.131   4.999  0.00  0.00    -0.286 NA
ATOM      5  N   UNL     1       9.880   4.873   6.614  0.00  0.00    -0.313 N 
ATOM      8  C   UNL     1      10.104   7.347   6.439  0.00  0.00    +0.145 C 
ATOM      9  C   UNL     1       8.599   8.682   5.081  0.00  0.00    +0.070 C 
ATOM     10  C   UNL     1      10.964   5.883   4.659  0.00  0.00    +0.075 C 
ATOM     11  C   UNL     1       8.997   8.409   6.531  0.00  0.00    +0.048 C 
ATOM     12  C   UNL     1       9.007   7.408   4.354  0.00  0.00    +0.104 C 
ATOM     13  C   UNL     1      10.207   4.689   5.220  0.00  0.00    +0.123 C 
ATOM     14  C   UNL     1       9.716   6.095   7.222  0.00  0.00    +0.230 C 
ATOM     30  H   UNL     1       9.638   4.047   7.152  0.00  0.00    +0.149 HD
ENDROOT
BRANCH   9   6
ATOM      6  N   UNL     1       7.190   9.011   4.928  0.00  0.00    -0.308 NA
ATOM     31  H   UNL     1       6.723   8.250   4.434  0.00  0.00    +0.123 HD
BRANCH   6  17
ATOM     17  C   UNL     1       7.021  10.244   4.169  0.00  0.00    +0.116 C 
BRANCH  17  19
ATOM     19  C   UNL     1       6.264  10.013   2.888  0.00  0.00    -0.033 A 
ATOM     20  C   UNL     1       4.878  10.167   2.858  0.00  0.00    +0.008 A 
ATOM     21  C   UNL     1       6.950   9.646   1.730  0.00  0.00    +0.008 A 
ATOM     24  C   UNL     1       4.178   9.953   1.670  0.00  0.00    +0.046 A 
ATOM     25  C   UNL     1       6.250   9.432   0.543  0.00  0.00    +0.046 A 
ATOM     28  C   UNL     1       4.864   9.586   0.513  0.00  0.00    +0.120 A 
BRANCH  28   3
ATOM      3  O   UNL     1       4.182   9.378  -0.646  0.00  0.00    -0.495 OA
ATOM     29  C   UNL     1       4.822   8.586  -1.644  0.00  0.00    +0.277 C 
ENDBRANCH  28   3
ENDBRANCH  17  19
ENDBRANCH   6  17
ENDBRANCH   9   6
BRANCH  10  15
ATOM     15  C   UNL     1      11.202   5.727   3.157  0.00  0.00    +0.029 C 
BRANCH  15  16
ATOM     16  C   UNL     1      10.731   4.363   2.662  0.00  0.00    +0.097 C 
BRANCH  16  18
ATOM      2  O   UNL     1       9.939   4.647   0.418  0.00  0.00    -0.276 OA
ATOM      7  N   UNL     1      12.002   3.616   0.665  0.00  0.00    -0.302 N 
ATOM     18  C   UNL     1      10.840   4.229   1.148  0.00  0.00    +0.216 C 
BRANCH   7  22
ATOM     22  C   UNL     1      13.095   3.107   1.490  0.00  0.00    +0.104 C 
ATOM     26  C   UNL     1      14.323   3.987   1.389  0.00  0.00    +0.024 C 
ENDBRANCH   7  22
BRANCH   7  23
ATOM     23  C   UNL     1      12.176   3.441  -0.771  0.00  0.00    +0.104 C 
ATOM     27  C   UNL     1      12.564   4.742  -1.445  0.00  0.00    +0.024 C 
ENDBRANCH   7  23
ENDBRANCH  16  18
ENDBRANCH  15  16
ENDBRANCH  10  15
TORSDOF 9
ENDMDL
