MODEL 1
REMARK VINA RESULT:      -6.6      0.000      0.000
REMARK  Name = 11865859
REMARK  13 active torsions:
REMARK  status: ('A' for Active; 'I' for Inactive)
REMARK    1  A    between atoms: N_6  and  C_12
REMARK    2  A    between atoms: N_7  and  C_19
REMARK    3  A    between atoms: N_8  and  C_29
REMARK    4  A    between atoms: C_11  and  C_16
REMARK    5  A    between atoms: C_15  and  C_17
REMARK    6  A    between atoms: C_17  and  C_18
REMARK    7  A    between atoms: C_18  and  C_20
REMARK    8  A    between atoms: C_18  and  C_21
REMARK    9  A    between atoms: C_18  and  C_22
REMARK   10  A    between atoms: C_19  and  C_24
REMARK   11  A    between atoms: C_19  and  C_26
REMARK   12  A    between atoms: C_24  and  C_25
REMARK   13  A    between atoms: C_29  and  C_33
REMARK                            x       y       z     vdW  Elec       q    Type
REMARK                         _______ _______ _______ _____ _____    ______ ____
ROOT
ATOM      1  O   UNL     1      15.573   7.023   3.209  0.00  0.00    -0.276 OA
ATOM      5  N   UNL     1      13.400   7.629   3.727  0.00  0.00    -0.288 N 
ATOM     11  C   UNL     1      12.796   6.327   3.461  0.00  0.00    +0.182 C 
ATOM     12  C   UNL     1      11.404   6.401   4.086  0.00  0.00    +0.105 C 
ATOM     13  C   UNL     1      11.067   7.894   4.031  0.00  0.00    +0.043 C 
ATOM     14  C   UNL     1      12.412   8.578   4.236  0.00  0.00    +0.110 C 
ATOM     15  C   UNL     1      14.766   7.846   3.646  0.00  0.00    +0.217 C 
ENDROOT
BRANCH  12   6
ATOM      3  O   UNL     1       9.279   5.016   5.462  0.00  0.00    -0.253 OA
ATOM      6  N   UNL     1      11.420   5.916   5.445  0.00  0.00    -0.294 N 
ATOM      8  N   UNL     1      10.626   4.896   7.347  0.00  0.00    -0.296 N 
ATOM     23  C   UNL     1      10.343   5.255   6.032  0.00  0.00    +0.300 C 
ATOM     37  H   UNL     1      12.226   6.126   6.025  0.00  0.00    +0.151 HD
ATOM     39  H   UNL     1      11.541   5.116   7.727  0.00  0.00    +0.151 HD
BRANCH   8  29
ATOM     29  C   UNL     1       9.683   4.198   8.189  0.00  0.00    +0.132 C 
BRANCH  29  33
ATOM     33  C   UNL     1       9.388   5.035   9.388  0.00  0.00    -0.016 C 
ATOM     36  C   UNL     1       8.745   4.586  10.472  0.00  0.00    +0.005 C 
ENDBRANCH  29  33
ENDBRANCH   8  29
ENDBRANCH  12   6
BRANCH  11  16
ATOM      2  O   UNL     1      11.911   6.821   1.299  0.00  0.00    -0.274 OA
ATOM      7  N   UNL     1      13.638   5.271   1.483  0.00  0.00    -0.302 N 
ATOM     16  C   UNL     1      12.722   6.187   1.970  0.00  0.00    +0.236 C 
ATOM     38  H   UNL     1      14.305   4.852   2.125  0.00  0.00    +0.150 HD
BRANCH   7  19
ATOM     19  C   UNL     1      13.755   4.937   0.082  0.00  0.00    +0.163 C 
BRANCH  19  26
ATOM      4  O   UNL     1      15.690   4.184  -1.180  0.00  0.00    -0.274 OA
ATOM     10  N   UNL     1      16.027   5.535   0.647  0.00  0.00    -0.328 N 
ATOM     26  C   UNL     1      15.240   4.815  -0.227  0.00  0.00    +0.231 C 
ATOM     41  H   UNL     1      17.036   5.551   0.545  0.00  0.00    +0.145 HD
ATOM     42  H   UNL     1      15.640   6.072   1.416  0.00  0.00    +0.145 HD
ENDBRANCH  19  26
BRANCH  19  24
ATOM     24  C   UNL     1      13.025   3.633  -0.267  0.00  0.00    +0.069 C 
BRANCH  24  25
ATOM      9  N   UNL     1       9.855   4.373  -1.973  0.00  0.00    -0.360 N 
ATOM     25  C   UNL     1      11.865   3.838  -1.197  0.00  0.00    -0.020 A 
ATOM     27  C   UNL     1      11.833   3.545  -2.590  0.00  0.00    +0.003 A 
ATOM     28  C   UNL     1      10.635   4.346  -0.848  0.00  0.00    +0.087 A 
ATOM     30  C   UNL     1      10.561   3.891  -3.052  0.00  0.00    +0.047 A 
ATOM     31  C   UNL     1      12.767   3.018  -3.504  0.00  0.00    +0.010 A 
ATOM     32  C   UNL     1      10.175   3.734  -4.388  0.00  0.00    +0.026 A 
ATOM     34  C   UNL     1      12.394   2.857  -4.844  0.00  0.00    +0.001 A 
ATOM     35  C   UNL     1      11.117   3.210  -5.277  0.00  0.00    +0.002 A 
ATOM     40  H   UNL     1       8.899   4.700  -2.007  0.00  0.00    +0.165 HD
ENDBRANCH  24  25
ENDBRANCH  19  24
ENDBRANCH   7  19
ENDBRANCH  11  16
BRANCH  15  17
ATOM     17  C   UNL     1      15.240   9.196   4.125  0.00  0.00    +0.102 C 
BRANCH  17  18
ATOM     18  C   UNL     1      15.911   9.137   5.509  0.00  0.00    -0.029 C 
ATOM     20  C   UNL     1      17.426   8.964   5.291  0.00  0.00    +0.011 C 
ATOM     21  C   UNL     1      15.675  10.436   6.297  0.00  0.00    +0.011 C 
ATOM     22  C   UNL     1      15.395   7.941   6.328  0.00  0.00    +0.011 C 
ENDBRANCH  17  18
ENDBRANCH  15  17
TORSDOF 10
ENDMDL
MODEL 2
REMARK VINA RESULT:      -6.5      2.694      8.460
REMARK  Name = 11865859
REMARK  13 active torsions:
REMARK  status: ('A' for Active; 'I' for Inactive)
REMARK    1  A    between atoms: N_6  and  C_12
REMARK    2  A    between atoms: N_7  and  C_19
REMARK    3  A    between atoms: N_8  and  C_29
REMARK    4  A    between atoms: C_11  and  C_16
REMARK    5  A    between atoms: C_15  and  C_17
REMARK    6  A    between atoms: C_17  and  C_18
REMARK    7  A    between atoms: C_18  and  C_20
REMARK    8  A    between atoms: C_18  and  C_21
REMARK    9  A    between atoms: C_18  and  C_22
REMARK   10  A    between atoms: C_19  and  C_24
REMARK   11  A    between atoms: C_19  and  C_26
REMARK   12  A    between atoms: C_24  and  C_25
REMARK   13  A    between atoms: C_29  and  C_33
REMARK                            x       y       z     vdW  Elec       q    Type
REMARK                         _______ _______ _______ _____ _____    ______ ____
ROOT
ATOM      1  O   UNL     1      11.291   3.603   3.208  0.00  0.00    -0.276 OA
ATOM      5  N   UNL     1      11.481   5.909   3.141  0.00  0.00    -0.288 N 
ATOM     11  C   UNL     1      11.673   6.102   4.575  0.00  0.00    +0.182 C 
ATOM     12  C   UNL     1      12.181   7.537   4.717  0.00  0.00    +0.105 C 
ATOM     13  C   UNL     1      11.587   8.247   3.498  0.00  0.00    +0.043 C 
ATOM     14  C   UNL     1      11.584   7.174   2.418  0.00  0.00    +0.110 C 
ATOM     15  C   UNL     1      11.377   4.652   2.567  0.00  0.00    +0.217 C 
ENDROOT
BRANCH  12   6
ATOM      3  O   UNL     1      13.880   9.414   6.101  0.00  0.00    -0.253 OA
ATOM      6  N   UNL     1      13.623   7.580   4.700  0.00  0.00    -0.294 N 
ATOM      8  N   UNL     1      15.733   8.339   5.209  0.00  0.00    -0.296 N 
ATOM     23  C   UNL     1      14.367   8.527   5.401  0.00  0.00    +0.300 C 
ATOM     37  H   UNL     1      14.120   6.934   4.094  0.00  0.00    +0.151 HD
ATOM     39  H   UNL     1      16.043   7.565   4.631  0.00  0.00    +0.151 HD
BRANCH   8  29
ATOM     29  C   UNL     1      16.733   9.182   5.822  0.00  0.00    +0.132 C 
BRANCH  29  33
ATOM     33  C   UNL     1      18.081   8.592   5.581  0.00  0.00    -0.016 C 
ATOM     36  C   UNL     1      19.103   8.690   6.440  0.00  0.00    +0.005 C 
ENDBRANCH  29  33
ENDBRANCH   8  29
ENDBRANCH  12   6
BRANCH  11  16
ATOM      2  O   UNL     1       9.315   5.728   4.548  0.00  0.00    -0.274 OA
ATOM      7  N   UNL     1      10.382   6.047   6.592  0.00  0.00    -0.302 N 
ATOM     16  C   UNL     1      10.328   5.930   5.214  0.00  0.00    +0.236 C 
ATOM     38  H   UNL     1      11.288   6.151   7.042  0.00  0.00    +0.150 HD
BRANCH   7  19
ATOM     19  C   UNL     1       9.218   5.943   7.441  0.00  0.00    +0.163 C 
BRANCH  19  26
ATOM      4  O   UNL     1       9.024   4.902   9.628  0.00  0.00    -0.274 OA
ATOM     10  N   UNL     1      10.420   3.944   8.075  0.00  0.00    -0.328 N 
ATOM     26  C   UNL     1       9.535   4.908   8.511  0.00  0.00    +0.231 C 
ATOM     41  H   UNL     1      10.706   3.187   8.685  0.00  0.00    +0.145 HD
ATOM     42  H   UNL     1      10.817   3.949   7.141  0.00  0.00    +0.145 HD
ENDBRANCH  19  26
BRANCH  19  24
ATOM     24  C   UNL     1       8.848   7.285   8.086  0.00  0.00    +0.069 C 
BRANCH  24  25
ATOM      9  N   UNL     1      10.900  10.103   6.921  0.00  0.00    -0.360 N 
ATOM     25  C   UNL     1       9.486   8.462   7.406  0.00  0.00    -0.020 A 
ATOM     27  C   UNL     1       8.998   9.144   6.256  0.00  0.00    +0.003 A 
ATOM     28  C   UNL     1      10.657   9.074   7.791  0.00  0.00    +0.087 A 
ATOM     30  C   UNL     1       9.904  10.169   5.973  0.00  0.00    +0.047 A 
ATOM     31  C   UNL     1       7.870   8.987   5.428  0.00  0.00    +0.010 A 
ATOM     32  C   UNL     1       9.736  11.049   4.898  0.00  0.00    +0.026 A 
ATOM     34  C   UNL     1       7.689   9.860   4.348  0.00  0.00    +0.001 A 
ATOM     35  C   UNL     1       8.609  10.874   4.089  0.00  0.00    +0.002 A 
ATOM     40  H   UNL     1      11.695  10.725   6.967  0.00  0.00    +0.165 HD
ENDBRANCH  24  25
ENDBRANCH  19  24
ENDBRANCH   7  19
ENDBRANCH  11  16
BRANCH  15  17
ATOM     17  C   UNL     1      11.363   4.626   1.059  0.00  0.00    +0.102 C 
BRANCH  17  18
ATOM     18  C   UNL     1      12.714   4.201   0.455  0.00  0.00    -0.029 C 
ATOM     20  C   UNL     1      13.401   5.464  -0.098  0.00  0.00    +0.011 C 
ATOM     21  C   UNL     1      13.628   3.576   1.522  0.00  0.00    +0.011 C 
ATOM     22  C   UNL     1      12.519   3.204  -0.700  0.00  0.00    +0.011 C 
ENDBRANCH  17  18
ENDBRANCH  15  17
TORSDOF 10
ENDMDL
MODEL 3
REMARK VINA RESULT:      -6.5     15.188     19.568
REMARK  Name = 11865859
REMARK  13 active torsions:
REMARK  status: ('A' for Active; 'I' for Inactive)
REMARK    1  A    between atoms: N_6  and  C_12
REMARK    2  A    between atoms: N_7  and  C_19
REMARK    3  A    between atoms: N_8  and  C_29
REMARK    4  A    between atoms: C_11  and  C_16
REMARK    5  A    between atoms: C_15  and  C_17
REMARK    6  A    between atoms: C_17  and  C_18
REMARK    7  A    between atoms: C_18  and  C_20
REMARK    8  A    between atoms: C_18  and  C_21
REMARK    9  A    between atoms: C_18  and  C_22
REMARK   10  A    between atoms: C_19  and  C_24
REMARK   11  A    between atoms: C_19  and  C_26
REMARK   12  A    between atoms: C_24  and  C_25
REMARK   13  A    between atoms: C_29  and  C_33
REMARK                            x       y       z     vdW  Elec       q    Type
REMARK                         _______ _______ _______ _____ _____    ______ ____
ROOT
ATOM      1  O   UNL     1      11.361  12.048  21.898  0.00  0.00    -0.276 OA
ATOM      5  N   UNL     1      13.657  12.252  22.105  0.00  0.00    -0.288 N 
ATOM     11  C   UNL     1      14.004  11.256  21.095  0.00  0.00    +0.182 C 
ATOM     12  C   UNL     1      15.488  11.483  20.809  0.00  0.00    +0.105 C 
ATOM     13  C   UNL     1      16.018  12.072  22.118  0.00  0.00    +0.043 C 
ATOM     14  C   UNL     1      14.851  12.898  22.644  0.00  0.00    +0.110 C 
ATOM     15  C   UNL     1      12.347  12.617  22.370  0.00  0.00    +0.217 C 
ENDROOT
BRANCH  12   6
ATOM      3  O   UNL     1      15.377  10.864  17.992  0.00  0.00    -0.253 OA
ATOM      6  N   UNL     1      15.669  12.400  19.709  0.00  0.00    -0.294 N 
ATOM      8  N   UNL     1      15.810  13.095  17.522  0.00  0.00    -0.296 N 
ATOM     23  C   UNL     1      15.599  12.013  18.372  0.00  0.00    +0.300 C 
ATOM     37  H   UNL     1      15.929  13.360  19.917  0.00  0.00    +0.151 HD
ATOM     39  H   UNL     1      15.964  14.012  17.927  0.00  0.00    +0.151 HD
BRANCH   8  29
ATOM     29  C   UNL     1      15.792  12.974  16.083  0.00  0.00    +0.132 C 
BRANCH  29  33
ATOM     33  C   UNL     1      14.378  13.022  15.608  0.00  0.00    -0.016 C 
ATOM     36  C   UNL     1      13.944  12.420  14.495  0.00  0.00    +0.005 C 
ENDBRANCH  29  33
ENDBRANCH   8  29
ENDBRANCH  12   6
BRANCH  11  16
ATOM      2  O   UNL     1      14.499   9.465  22.594  0.00  0.00    -0.274 OA
ATOM      7  N   UNL     1      12.662   9.274  21.177  0.00  0.00    -0.302 N 
ATOM     16  C   UNL     1      13.764   9.914  21.718  0.00  0.00    +0.236 C 
ATOM     38  H   UNL     1      12.088   9.769  20.499  0.00  0.00    +0.150 HD
BRANCH   7  19
ATOM     19  C   UNL     1      12.230   7.958  21.588  0.00  0.00    +0.163 C 
BRANCH  19  26
ATOM      4  O   UNL     1      10.626   9.042  23.056  0.00  0.00    -0.274 OA
ATOM     10  N   UNL     1       9.969   7.166  21.906  0.00  0.00    -0.328 N 
ATOM     26  C   UNL     1      10.886   8.125  22.281  0.00  0.00    +0.231 C 
ATOM     41  H   UNL     1       9.028   7.170  22.284  0.00  0.00    +0.145 HD
ATOM     42  H   UNL     1      10.190   6.427  21.246  0.00  0.00    +0.145 HD
ENDBRANCH  19  26
BRANCH  19  24
ATOM     24  C   UNL     1      12.108   6.990  20.405  0.00  0.00    +0.069 C 
BRANCH  24  25
ATOM      9  N   UNL     1      14.647   7.745  17.857  0.00  0.00    -0.360 N 
ATOM     25  C   UNL     1      12.925   7.406  19.216  0.00  0.00    -0.020 A 
ATOM     27  C   UNL     1      12.444   8.044  18.038  0.00  0.00    +0.003 A 
ATOM     28  C   UNL     1      14.282   7.235  19.074  0.00  0.00    +0.087 A 
ATOM     30  C   UNL     1      13.544   8.245  17.202  0.00  0.00    +0.047 A 
ATOM     31  C   UNL     1      11.174   8.472  17.602  0.00  0.00    +0.010 A 
ATOM     32  C   UNL     1      13.438   8.855  15.947  0.00  0.00    +0.026 A 
ATOM     34  C   UNL     1      11.052   9.083  16.349  0.00  0.00    +0.001 A 
ATOM     35  C   UNL     1      12.169   9.271  15.535  0.00  0.00    +0.002 A 
ATOM     40  H   UNL     1      15.589   7.753  17.491  0.00  0.00    +0.165 HD
ENDBRANCH  24  25
ENDBRANCH  19  24
ENDBRANCH   7  19
ENDBRANCH  11  16
BRANCH  15  17
ATOM     17  C   UNL     1      12.175  13.783  23.311  0.00  0.00    +0.102 C 
BRANCH  17  18
ATOM     18  C   UNL     1      11.721  13.355  24.718  0.00  0.00    -0.029 C 
ATOM     20  C   UNL     1      12.512  14.190  25.743  0.00  0.00    +0.011 C 
ATOM     21  C   UNL     1      10.221  13.621  24.923  0.00  0.00    +0.011 C 
ATOM     22  C   UNL     1      12.015  11.866  24.968  0.00  0.00    +0.011 C 
ENDBRANCH  17  18
ENDBRANCH  15  17
TORSDOF 10
ENDMDL
MODEL 4
REMARK VINA RESULT:      -6.3      2.647      3.613
REMARK  Name = 11865859
REMARK  13 active torsions:
REMARK  status: ('A' for Active; 'I' for Inactive)
REMARK    1  A    between atoms: N_6  and  C_12
REMARK    2  A    between atoms: N_7  and  C_19
REMARK    3  A    between atoms: N_8  and  C_29
REMARK    4  A    between atoms: C_11  and  C_16
REMARK    5  A    between atoms: C_15  and  C_17
REMARK    6  A    between atoms: C_17  and  C_18
REMARK    7  A    between atoms: C_18  and  C_20
REMARK    8  A    between atoms: C_18  and  C_21
REMARK    9  A    between atoms: C_18  and  C_22
REMARK   10  A    between atoms: C_19  and  C_24
REMARK   11  A    between atoms: C_19  and  C_26
REMARK   12  A    between atoms: C_24  and  C_25
REMARK   13  A    between atoms: C_29  and  C_33
REMARK                            x       y       z     vdW  Elec       q    Type
REMARK                         _______ _______ _______ _____ _____    ______ ____
ROOT
ATOM      1  O   UNL     1      16.618   7.953   5.130  0.00  0.00    -0.276 OA
ATOM      5  N   UNL     1      14.343   8.365   5.021  0.00  0.00    -0.288 N 
ATOM     11  C   UNL     1      13.956   7.039   4.550  0.00  0.00    +0.182 C 
ATOM     12  C   UNL     1      12.443   6.973   4.751  0.00  0.00    +0.105 C 
ATOM     13  C   UNL     1      12.006   8.437   4.651  0.00  0.00    +0.043 C 
ATOM     14  C   UNL     1      13.172   9.207   5.256  0.00  0.00    +0.110 C 
ATOM     15  C   UNL     1      15.652   8.688   5.343  0.00  0.00    +0.217 C 
ENDROOT
BRANCH  12   6
ATOM      3  O   UNL     1       9.987   5.657   5.502  0.00  0.00    -0.253 OA
ATOM      6  N   UNL     1      12.115   6.415   6.040  0.00  0.00    -0.294 N 
ATOM      8  N   UNL     1      10.847   5.346   7.634  0.00  0.00    -0.296 N 
ATOM     23  C   UNL     1      10.898   5.794   6.317  0.00  0.00    +0.300 C 
ATOM     37  H   UNL     1      12.773   6.539   6.804  0.00  0.00    +0.151 HD
ATOM     39  H   UNL     1      11.658   5.484   8.228  0.00  0.00    +0.151 HD
BRANCH   8  29
ATOM     29  C   UNL     1       9.699   4.667   8.186  0.00  0.00    +0.132 C 
BRANCH  29  33
ATOM     33  C   UNL     1       9.694   4.842   9.667  0.00  0.00    -0.016 C 
ATOM     36  C   UNL     1       8.619   4.645  10.439  0.00  0.00    +0.005 C 
ENDBRANCH  29  33
ENDBRANCH   8  29
ENDBRANCH  12   6
BRANCH  11  16
ATOM      2  O   UNL     1      14.670   7.978   2.474  0.00  0.00    -0.274 OA
ATOM      7  N   UNL     1      14.192   5.702   2.577  0.00  0.00    -0.302 N 
ATOM     16  C   UNL     1      14.321   6.978   3.097  0.00  0.00    +0.236 C 
ATOM     38  H   UNL     1      13.956   4.936   3.202  0.00  0.00    +0.150 HD
BRANCH   7  19
ATOM     19  C   UNL     1      14.461   5.380   1.194  0.00  0.00    +0.163 C 
BRANCH  19  26
ATOM      4  O   UNL     1      14.951   3.099   1.871  0.00  0.00    -0.274 OA
ATOM     10  N   UNL     1      16.280   4.080   0.276  0.00  0.00    -0.328 N 
ATOM     26  C   UNL     1      15.241   4.074   1.182  0.00  0.00    +0.231 C 
ATOM     41  H   UNL     1      16.873   3.265   0.157  0.00  0.00    +0.145 HD
ATOM     42  H   UNL     1      16.494   4.885  -0.304  0.00  0.00    +0.145 HD
ENDBRANCH  19  26
BRANCH  19  24
ATOM     24  C   UNL     1      13.176   5.246   0.368  0.00  0.00    +0.069 C 
BRANCH  24  25
ATOM      9  N   UNL     1      10.218   5.044   2.539  0.00  0.00    -0.360 N 
ATOM     25  C   UNL     1      11.929   5.438   1.182  0.00  0.00    -0.020 A 
ATOM     27  C   UNL     1      11.161   6.631   1.288  0.00  0.00    +0.003 A 
ATOM     28  C   UNL     1      11.324   4.480   1.963  0.00  0.00    +0.087 A 
ATOM     30  C   UNL     1      10.094   6.357   2.146  0.00  0.00    +0.047 A 
ATOM     31  C   UNL     1      11.273   7.922   0.735  0.00  0.00    +0.010 A 
ATOM     32  C   UNL     1       9.128   7.313   2.478  0.00  0.00    +0.026 A 
ATOM     34  C   UNL     1      10.314   8.889   1.060  0.00  0.00    +0.001 A 
ATOM     35  C   UNL     1       9.259   8.587   1.918  0.00  0.00    +0.002 A 
ATOM     40  H   UNL     1       9.583   4.565   3.164  0.00  0.00    +0.165 HD
ENDBRANCH  24  25
ENDBRANCH  19  24
ENDBRANCH   7  19
ENDBRANCH  11  16
BRANCH  15  17
ATOM     17  C   UNL     1      15.850  10.039   5.982  0.00  0.00    +0.102 C 
BRANCH  17  18
ATOM     18  C   UNL     1      16.558  11.042   5.054  0.00  0.00    -0.029 C 
ATOM     20  C   UNL     1      16.214  12.462   5.543  0.00  0.00    +0.011 C 
ATOM     21  C   UNL     1      18.085  10.864   5.105  0.00  0.00    +0.011 C 
ATOM     22  C   UNL     1      16.074  10.894   3.601  0.00  0.00    +0.011 C 
ENDBRANCH  17  18
ENDBRANCH  15  17
TORSDOF 10
ENDMDL
MODEL 5
REMARK VINA RESULT:      -6.2     24.384     29.988
REMARK  Name = 11865859
REMARK  13 active torsions:
REMARK  status: ('A' for Active; 'I' for Inactive)
REMARK    1  A    between atoms: N_6  and  C_12
REMARK    2  A    between atoms: N_7  and  C_19
REMARK    3  A    between atoms: N_8  and  C_29
REMARK    4  A    between atoms: C_11  and  C_16
REMARK    5  A    between atoms: C_15  and  C_17
REMARK    6  A    between atoms: C_17  and  C_18
REMARK    7  A    between atoms: C_18  and  C_20
REMARK    8  A    between atoms: C_18  and  C_21
REMARK    9  A    between atoms: C_18  and  C_22
REMARK   10  A    between atoms: C_19  and  C_24
REMARK   11  A    between atoms: C_19  and  C_26
REMARK   12  A    between atoms: C_24  and  C_25
REMARK   13  A    between atoms: C_29  and  C_33
REMARK                            x       y       z     vdW  Elec       q    Type
REMARK                         _______ _______ _______ _____ _____    ______ ____
ROOT
ATOM      1  O   UNL     1      -8.242  -9.474  17.434  0.00  0.00    -0.276 OA
ATOM      5  N   UNL     1      -8.125 -10.574  15.401  0.00  0.00    -0.288 N 
ATOM     11  C   UNL     1      -8.657  -9.483  14.591  0.00  0.00    +0.182 C 
ATOM     12  C   UNL     1      -8.332  -9.866  13.148  0.00  0.00    +0.105 C 
ATOM     13  C   UNL     1      -8.287 -11.396  13.187  0.00  0.00    +0.043 C 
ATOM     14  C   UNL     1      -7.729 -11.708  14.570  0.00  0.00    +0.110 C 
ATOM     15  C   UNL     1      -7.894 -10.446  16.762  0.00  0.00    +0.217 C 
ENDROOT
BRANCH  12   6
ATOM      3  O   UNL     1      -7.493  -9.248  10.456  0.00  0.00    -0.253 OA
ATOM      6  N   UNL     1      -7.063  -9.314  12.738  0.00  0.00    -0.294 N 
ATOM      8  N   UNL     1      -5.458  -8.518  11.297  0.00  0.00    -0.296 N 
ATOM     23  C   UNL     1      -6.740  -9.046  11.409  0.00  0.00    +0.300 C 
ATOM     37  H   UNL     1      -6.344  -9.178  13.442  0.00  0.00    +0.151 HD
ATOM     39  H   UNL     1      -4.917  -8.365  12.142  0.00  0.00    +0.151 HD
BRANCH   8  29
ATOM     29  C   UNL     1      -4.870  -8.150  10.030  0.00  0.00    +0.132 C 
BRANCH  29  33
ATOM     33  C   UNL     1      -3.795  -9.126   9.690  0.00  0.00    -0.016 C 
ATOM     36  C   UNL     1      -2.869  -9.550  10.559  0.00  0.00    +0.005 C 
ENDBRANCH  29  33
ENDBRANCH   8  29
ENDBRANCH  12   6
BRANCH  11  16
ATOM      2  O   UNL     1     -10.868 -10.376  14.482  0.00  0.00    -0.274 OA
ATOM      7  N   UNL     1     -10.543  -8.286  15.453  0.00  0.00    -0.302 N 
ATOM     16  C   UNL     1     -10.136  -9.453  14.831  0.00  0.00    +0.236 C 
ATOM     38  H   UNL     1      -9.840  -7.617  15.754  0.00  0.00    +0.150 HD
BRANCH   7  19
ATOM     19  C   UNL     1     -11.923  -8.001  15.776  0.00  0.00    +0.163 C 
BRANCH  19  26
ATOM      4  O   UNL     1     -11.412  -8.737  18.034  0.00  0.00    -0.274 OA
ATOM     10  N   UNL     1     -13.507  -9.156  17.190  0.00  0.00    -0.328 N 
ATOM     26  C   UNL     1     -12.218  -8.672  17.109  0.00  0.00    +0.231 C 
ATOM     41  H   UNL     1     -13.838  -9.615  18.031  0.00  0.00    +0.145 HD
ATOM     42  H   UNL     1     -14.169  -9.074  16.426  0.00  0.00    +0.145 HD
ENDBRANCH  19  26
BRANCH  19  24
ATOM     24  C   UNL     1     -12.201  -6.495  15.860  0.00  0.00    +0.069 C 
BRANCH  24  25
ATOM      9  N   UNL     1     -15.394  -5.841  14.163  0.00  0.00    -0.360 N 
ATOM     25  C   UNL     1     -13.349  -6.058  14.997  0.00  0.00    -0.020 A 
ATOM     27  C   UNL     1     -13.286  -5.167  13.889  0.00  0.00    +0.003 A 
ATOM     28  C   UNL     1     -14.658  -6.455  15.140  0.00  0.00    +0.087 A 
ATOM     30  C   UNL     1     -14.582  -5.047  13.385  0.00  0.00    +0.047 A 
ATOM     31  C   UNL     1     -12.247  -4.448  13.266  0.00  0.00    +0.010 A 
ATOM     32  C   UNL     1     -14.893  -4.242  12.283  0.00  0.00    +0.026 A 
ATOM     34  C   UNL     1     -12.542  -3.637  12.164  0.00  0.00    +0.001 A 
ATOM     35  C   UNL     1     -13.846  -3.537  11.681  0.00  0.00    +0.002 A 
ATOM     40  H   UNL     1     -16.391  -5.953  14.031  0.00  0.00    +0.165 HD
ENDBRANCH  24  25
ENDBRANCH  19  24
ENDBRANCH   7  19
ENDBRANCH  11  16
BRANCH  15  17
ATOM     17  C   UNL     1      -7.177 -11.603  17.411  0.00  0.00    +0.102 C 
BRANCH  17  18
ATOM     18  C   UNL     1      -5.777 -11.225  17.928  0.00  0.00    -0.029 C 
ATOM     20  C   UNL     1      -5.948 -10.544  19.299  0.00  0.00    +0.011 C 
ATOM     21  C   UNL     1      -4.895 -12.473  18.108  0.00  0.00    +0.011 C 
ATOM     22  C   UNL     1      -5.079 -10.239  16.975  0.00  0.00    +0.011 C 
ENDBRANCH  17  18
ENDBRANCH  15  17
TORSDOF 10
ENDMDL
MODEL 6
REMARK VINA RESULT:      -6.1     14.957     19.945
REMARK  Name = 11865859
REMARK  13 active torsions:
REMARK  status: ('A' for Active; 'I' for Inactive)
REMARK    1  A    between atoms: N_6  and  C_12
REMARK    2  A    between atoms: N_7  and  C_19
REMARK    3  A    between atoms: N_8  and  C_29
REMARK    4  A    between atoms: C_11  and  C_16
REMARK    5  A    between atoms: C_15  and  C_17
REMARK    6  A    between atoms: C_17  and  C_18
REMARK    7  A    between atoms: C_18  and  C_20
REMARK    8  A    between atoms: C_18  and  C_21
REMARK    9  A    between atoms: C_18  and  C_22
REMARK   10  A    between atoms: C_19  and  C_24
REMARK   11  A    between atoms: C_19  and  C_26
REMARK   12  A    between atoms: C_24  and  C_25
REMARK   13  A    between atoms: C_29  and  C_33
REMARK                            x       y       z     vdW  Elec       q    Type
REMARK                         _______ _______ _______ _____ _____    ______ ____
ROOT
ATOM      1  O   UNL     1      13.305  13.021  22.722  0.00  0.00    -0.276 OA
ATOM      5  N   UNL     1      15.017  12.006  21.540  0.00  0.00    -0.288 N 
ATOM     11  C   UNL     1      14.174  11.079  20.791  0.00  0.00    +0.182 C 
ATOM     12  C   UNL     1      15.068  10.546  19.672  0.00  0.00    +0.105 C 
ATOM     13  C   UNL     1      16.477  10.650  20.262  0.00  0.00    +0.043 C 
ATOM     14  C   UNL     1      16.416  11.897  21.134  0.00  0.00    +0.110 C 
ATOM     15  C   UNL     1      14.493  12.959  22.400  0.00  0.00    +0.217 C 
ENDROOT
BRANCH  12   6
ATOM      3  O   UNL     1      14.533   9.607  16.996  0.00  0.00    -0.253 OA
ATOM      6  N   UNL     1      14.939  11.348  18.479  0.00  0.00    -0.294 N 
ATOM      8  N   UNL     1      14.602  11.802  16.250  0.00  0.00    -0.296 N 
ATOM     23  C   UNL     1      14.678  10.808  17.221  0.00  0.00    +0.300 C 
ATOM     37  H   UNL     1      15.113  12.346  18.545  0.00  0.00    +0.151 HD
ATOM     39  H   UNL     1      14.714  12.771  16.533  0.00  0.00    +0.151 HD
BRANCH   8  29
ATOM     29  C   UNL     1      14.342  11.519  14.858  0.00  0.00    +0.132 C 
BRANCH  29  33
ATOM     33  C   UNL     1      15.483  12.021  14.038  0.00  0.00    -0.016 C 
ATOM     36  C   UNL     1      16.713  12.233  14.521  0.00  0.00    +0.005 C 
ENDBRANCH  29  33
ENDBRANCH   8  29
ENDBRANCH  12   6
BRANCH  11  16
ATOM      2  O   UNL     1      14.407   9.782  22.782  0.00  0.00    -0.274 OA
ATOM      7  N   UNL     1      12.681   9.277  21.303  0.00  0.00    -0.302 N 
ATOM     16  C   UNL     1      13.782   9.991  21.745  0.00  0.00    +0.236 C 
ATOM     38  H   UNL     1      12.204   9.581  20.458  0.00  0.00    +0.150 HD
BRANCH   7  19
ATOM     19  C   UNL     1      12.117   8.163  22.029  0.00  0.00    +0.163 C 
BRANCH  19  26
ATOM      4  O   UNL     1      10.282   9.611  22.693  0.00  0.00    -0.274 OA
ATOM     10  N   UNL     1       9.806   7.457  22.054  0.00  0.00    -0.328 N 
ATOM     26  C   UNL     1      10.662   8.505  22.315  0.00  0.00    +0.231 C 
ATOM     41  H   UNL     1       8.806   7.555  22.189  0.00  0.00    +0.145 HD
ATOM     42  H   UNL     1      10.132   6.555  21.720  0.00  0.00    +0.145 HD
ENDBRANCH  19  26
BRANCH  19  24
ATOM     24  C   UNL     1      12.216   6.848  21.245  0.00  0.00    +0.069 C 
BRANCH  24  25
ATOM      9  N   UNL     1      14.294   6.993  18.217  0.00  0.00    -0.360 N 
ATOM     25  C   UNL     1      13.283   6.870  20.190  0.00  0.00    -0.020 A 
ATOM     27  C   UNL     1      14.684   6.729  20.398  0.00  0.00    +0.003 A 
ATOM     28  C   UNL     1      13.075   7.031  18.840  0.00  0.00    +0.087 A 
ATOM     30  C   UNL     1      15.295   6.810  19.145  0.00  0.00    +0.047 A 
ATOM     31  C   UNL     1      15.493   6.539  21.536  0.00  0.00    +0.010 A 
ATOM     32  C   UNL     1      16.680   6.709  18.972  0.00  0.00    +0.026 A 
ATOM     34  C   UNL     1      16.881   6.438  21.378  0.00  0.00    +0.001 A 
ATOM     35  C   UNL     1      17.463   6.522  20.115  0.00  0.00    +0.002 A 
ATOM     40  H   UNL     1      14.439   7.086  17.221  0.00  0.00    +0.165 HD
ENDBRANCH  24  25
ENDBRANCH  19  24
ENDBRANCH   7  19
ENDBRANCH  11  16
BRANCH  15  17
ATOM     17  C   UNL     1      15.486  13.950  22.953  0.00  0.00    +0.102 C 
BRANCH  17  18
ATOM     18  C   UNL     1      15.757  13.748  24.455  0.00  0.00    -0.029 C 
ATOM     20  C   UNL     1      14.737  14.598  25.237  0.00  0.00    +0.011 C 
ATOM     21  C   UNL     1      15.580  12.275  24.860  0.00  0.00    +0.011 C 
ATOM     22  C   UNL     1      17.174  14.215  24.832  0.00  0.00    +0.011 C 
ENDBRANCH  17  18
ENDBRANCH  15  17
TORSDOF 10
ENDMDL
MODEL 7
REMARK VINA RESULT:      -6.1     13.457     17.183
REMARK  Name = 11865859
REMARK  13 active torsions:
REMARK  status: ('A' for Active; 'I' for Inactive)
REMARK    1  A    between atoms: N_6  and  C_12
REMARK    2  A    between atoms: N_7  and  C_19
REMARK    3  A    between atoms: N_8  and  C_29
REMARK    4  A    between atoms: C_11  and  C_16
REMARK    5  A    between atoms: C_15  and  C_17
REMARK    6  A    between atoms: C_17  and  C_18
REMARK    7  A    between atoms: C_18  and  C_20
REMARK    8  A    between atoms: C_18  and  C_21
REMARK    9  A    between atoms: C_18  and  C_22
REMARK   10  A    between atoms: C_19  and  C_24
REMARK   11  A    between atoms: C_19  and  C_26
REMARK   12  A    between atoms: C_24  and  C_25
REMARK   13  A    between atoms: C_29  and  C_33
REMARK                            x       y       z     vdW  Elec       q    Type
REMARK                         _______ _______ _______ _____ _____    ______ ____
ROOT
ATOM      1  O   UNL     1      16.724  -5.980  -2.814  0.00  0.00    -0.276 OA
ATOM      5  N   UNL     1      17.653  -8.072  -3.158  0.00  0.00    -0.288 N 
ATOM     11  C   UNL     1      18.085  -8.290  -1.781  0.00  0.00    +0.182 C 
ATOM     12  C   UNL     1      18.413  -9.781  -1.700  0.00  0.00    +0.105 C 
ATOM     13  C   UNL     1      18.812 -10.137  -3.135  0.00  0.00    +0.043 C 
ATOM     14  C   UNL     1      17.927  -9.240  -3.991  0.00  0.00    +0.110 C 
ATOM     15  C   UNL     1      16.935  -6.951  -3.544  0.00  0.00    +0.217 C 
ENDROOT
BRANCH  12   6
ATOM      3  O   UNL     1      18.392 -12.021   0.119  0.00  0.00    -0.253 OA
ATOM      6  N   UNL     1      17.264 -10.541  -1.271  0.00  0.00    -0.294 N 
ATOM      8  N   UNL     1      16.091 -12.165  -0.142  0.00  0.00    -0.296 N 
ATOM     23  C   UNL     1      17.345 -11.614  -0.385  0.00  0.00    +0.300 C 
ATOM     37  H   UNL     1      16.361 -10.331  -1.685  0.00  0.00    +0.151 HD
ATOM     39  H   UNL     1      15.279 -11.748  -0.587  0.00  0.00    +0.151 HD
BRANCH   8  29
ATOM     29  C   UNL     1      15.887 -13.291   0.740  0.00  0.00    +0.132 C 
BRANCH  29  33
ATOM     33  C   UNL     1      15.446 -12.791   2.074  0.00  0.00    -0.016 C 
ATOM     36  C   UNL     1      15.049 -13.586   3.074  0.00  0.00    +0.005 C 
ENDBRANCH  29  33
ENDBRANCH   8  29
ENDBRANCH  12   6
BRANCH  11  16
ATOM      2  O   UNL     1      20.393  -7.752  -2.069  0.00  0.00    -0.274 OA
ATOM      7  N   UNL     1      19.059  -6.344  -0.781  0.00  0.00    -0.302 N 
ATOM     16  C   UNL     1      19.309  -7.448  -1.578  0.00  0.00    +0.236 C 
ATOM     38  H   UNL     1      18.106  -6.157  -0.482  0.00  0.00    +0.150 HD
BRANCH   7  19
ATOM     19  C   UNL     1      20.077  -5.385  -0.417  0.00  0.00    +0.163 C 
BRANCH  19  26
ATOM      4  O   UNL     1      20.748  -3.594  -1.915  0.00  0.00    -0.274 OA
ATOM     10  N   UNL     1      18.538  -3.749  -1.310  0.00  0.00    -0.328 N 
ATOM     26  C   UNL     1      19.857  -4.150  -1.278  0.00  0.00    +0.231 C 
ATOM     41  H   UNL     1      18.252  -2.946  -1.858  0.00  0.00    +0.145 HD
ATOM     42  H   UNL     1      17.808  -4.232  -0.796  0.00  0.00    +0.145 HD
ENDBRANCH  19  26
BRANCH  19  24
ATOM     24  C   UNL     1      20.023  -5.019   1.072  0.00  0.00    +0.069 C 
BRANCH  24  25
ATOM      9  N   UNL     1      23.020  -5.891   3.012  0.00  0.00    -0.360 N 
ATOM     25  C   UNL     1      21.133  -5.638   1.872  0.00  0.00    -0.020 A 
ATOM     27  C   UNL     1      21.220  -6.994   2.293  0.00  0.00    +0.003 A 
ATOM     28  C   UNL     1      22.254  -4.985   2.330  0.00  0.00    +0.087 A 
ATOM     30  C   UNL     1      22.413  -7.127   3.007  0.00  0.00    +0.047 A 
ATOM     31  C   UNL     1      20.395  -8.126   2.134  0.00  0.00    +0.010 A 
ATOM     32  C   UNL     1      22.825  -8.339   3.571  0.00  0.00    +0.026 A 
ATOM     34  C   UNL     1      20.794  -9.345   2.695  0.00  0.00    +0.001 A 
ATOM     35  C   UNL     1      21.991  -9.448   3.402  0.00  0.00    +0.002 A 
ATOM     40  H   UNL     1      23.905  -5.684   3.456  0.00  0.00    +0.165 HD
ENDBRANCH  24  25
ENDBRANCH  19  24
ENDBRANCH   7  19
ENDBRANCH  11  16
BRANCH  15  17
ATOM     17  C   UNL     1      16.414  -6.968  -4.959  0.00  0.00    +0.102 C 
BRANCH  17  18
ATOM     18  C   UNL     1      14.892  -7.187  -5.032  0.00  0.00    -0.029 C 
ATOM     20  C   UNL     1      14.482  -8.058  -3.830  0.00  0.00    +0.011 C 
ATOM     21  C   UNL     1      14.134  -5.851  -4.950  0.00  0.00    +0.011 C 
ATOM     22  C   UNL     1      14.498  -7.920  -6.326  0.00  0.00    +0.011 C 
ENDBRANCH  17  18
ENDBRANCH  15  17
TORSDOF 10
ENDMDL
MODEL 8
REMARK VINA RESULT:      -6.1     23.555     27.544
REMARK  Name = 11865859
REMARK  13 active torsions:
REMARK  status: ('A' for Active; 'I' for Inactive)
REMARK    1  A    between atoms: N_6  and  C_12
REMARK    2  A    between atoms: N_7  and  C_19
REMARK    3  A    between atoms: N_8  and  C_29
REMARK    4  A    between atoms: C_11  and  C_16
REMARK    5  A    between atoms: C_15  and  C_17
REMARK    6  A    between atoms: C_17  and  C_18
REMARK    7  A    between atoms: C_18  and  C_20
REMARK    8  A    between atoms: C_18  and  C_21
REMARK    9  A    between atoms: C_18  and  C_22
REMARK   10  A    between atoms: C_19  and  C_24
REMARK   11  A    between atoms: C_19  and  C_26
REMARK   12  A    between atoms: C_24  and  C_25
REMARK   13  A    between atoms: C_29  and  C_33
REMARK                            x       y       z     vdW  Elec       q    Type
REMARK                         _______ _______ _______ _____ _____    ______ ____
ROOT
ATOM      1  O   UNL     1      -5.491  -8.240  10.097  0.00  0.00    -0.276 OA
ATOM      5  N   UNL     1      -7.098  -9.610  11.044  0.00  0.00    -0.288 N 
ATOM     11  C   UNL     1      -6.508  -9.661  12.379  0.00  0.00    +0.182 C 
ATOM     12  C   UNL     1      -7.607 -10.229  13.276  0.00  0.00    +0.105 C 
ATOM     13  C   UNL     1      -8.443 -11.084  12.320  0.00  0.00    +0.043 C 
ATOM     14  C   UNL     1      -8.369 -10.329  10.999  0.00  0.00    +0.110 C 
ATOM     15  C   UNL     1      -6.568  -8.834  10.026  0.00  0.00    +0.217 C 
ENDROOT
BRANCH  12   6
ATOM      3  O   UNL     1      -8.540 -10.060  16.002  0.00  0.00    -0.253 OA
ATOM      6  N   UNL     1      -8.396  -9.172  13.861  0.00  0.00    -0.294 N 
ATOM      8  N   UNL     1      -9.552  -8.035  15.492  0.00  0.00    -0.296 N 
ATOM     23  C   UNL     1      -8.806  -9.172  15.193  0.00  0.00    +0.300 C 
ATOM     37  H   UNL     1      -8.729  -8.425  13.258  0.00  0.00    +0.151 HD
ATOM     39  H   UNL     1      -9.701  -7.344  14.765  0.00  0.00    +0.151 HD
BRANCH   8  29
ATOM     29  C   UNL     1     -10.101  -7.782  16.804  0.00  0.00    +0.132 C 
BRANCH  29  33
ATOM     33  C   UNL     1     -11.081  -6.661  16.714  0.00  0.00    -0.016 C 
ATOM     36  C   UNL     1     -11.528  -6.152  15.560  0.00  0.00    +0.005 C 
ENDBRANCH  29  33
ENDBRANCH   8  29
ENDBRANCH  12   6
BRANCH  11  16
ATOM      2  O   UNL     1      -5.478 -11.805  12.167  0.00  0.00    -0.274 OA
ATOM      7  N   UNL     1      -4.128  -9.922  12.389  0.00  0.00    -0.302 N 
ATOM     16  C   UNL     1      -5.335 -10.591  12.292  0.00  0.00    +0.236 C 
ATOM     38  H   UNL     1      -4.128  -8.906  12.427  0.00  0.00    +0.150 HD
BRANCH   7  19
ATOM     19  C   UNL     1      -2.847 -10.591  12.357  0.00  0.00    +0.163 C 
BRANCH  19  26
ATOM      4  O   UNL     1      -0.740  -9.591  11.676  0.00  0.00    -0.274 OA
ATOM     10  N   UNL     1      -2.582  -9.287  10.339  0.00  0.00    -0.328 N 
ATOM     26  C   UNL     1      -1.936  -9.769  11.457  0.00  0.00    +0.231 C 
ATOM     41  H   UNL     1      -2.086  -8.734   9.648  0.00  0.00    +0.145 HD
ATOM     42  H   UNL     1      -3.566  -9.462  10.159  0.00  0.00    +0.145 HD
ENDBRANCH  19  26
BRANCH  19  24
ATOM     24  C   UNL     1      -2.232 -10.738  13.754  0.00  0.00    +0.069 C 
BRANCH  24  25
ATOM      9  N   UNL     1      -3.708 -13.652  15.439  0.00  0.00    -0.360 N 
ATOM     25  C   UNL     1      -2.955 -11.733  14.615  0.00  0.00    -0.020 A 
ATOM     27  C   UNL     1      -3.794 -11.441  15.727  0.00  0.00    +0.003 A 
ATOM     28  C   UNL     1      -2.921 -13.100  14.463  0.00  0.00    +0.087 A 
ATOM     30  C   UNL     1      -4.252 -12.662  16.226  0.00  0.00    +0.047 A 
ATOM     31  C   UNL     1      -4.208 -10.252  16.358  0.00  0.00    +0.010 A 
ATOM     32  C   UNL     1      -5.109 -12.753  17.329  0.00  0.00    +0.026 A 
ATOM     34  C   UNL     1      -5.064 -10.327  17.463  0.00  0.00    +0.001 A 
ATOM     35  C   UNL     1      -5.506 -11.560  17.940  0.00  0.00    +0.002 A 
ATOM     40  H   UNL     1      -3.865 -14.642  15.565  0.00  0.00    +0.165 HD
ENDBRANCH  24  25
ENDBRANCH  19  24
ENDBRANCH   7  19
ENDBRANCH  11  16
BRANCH  15  17
ATOM     17  C   UNL     1      -7.399  -8.755   8.769  0.00  0.00    +0.102 C 
BRANCH  17  18
ATOM     18  C   UNL     1      -6.873  -9.667   7.647  0.00  0.00    -0.029 C 
ATOM     20  C   UNL     1      -5.374  -9.913   7.902  0.00  0.00    +0.011 C 
ATOM     21  C   UNL     1      -7.599 -11.023   7.647  0.00  0.00    +0.011 C 
ATOM     22  C   UNL     1      -7.033  -9.002   6.269  0.00  0.00    +0.011 C 
ENDBRANCH  17  18
ENDBRANCH  15  17
TORSDOF 10
ENDMDL
MODEL 9
REMARK VINA RESULT:      -6.0     15.071     17.070
REMARK  Name = 11865859
REMARK  13 active torsions:
REMARK  status: ('A' for Active; 'I' for Inactive)
REMARK    1  A    between atoms: N_6  and  C_12
REMARK    2  A    between atoms: N_7  and  C_19
REMARK    3  A    between atoms: N_8  and  C_29
REMARK    4  A    between atoms: C_11  and  C_16
REMARK    5  A    between atoms: C_15  and  C_17
REMARK    6  A    between atoms: C_17  and  C_18
REMARK    7  A    between atoms: C_18  and  C_20
REMARK    8  A    between atoms: C_18  and  C_21
REMARK    9  A    between atoms: C_18  and  C_22
REMARK   10  A    between atoms: C_19  and  C_24
REMARK   11  A    between atoms: C_19  and  C_26
REMARK   12  A    between atoms: C_24  and  C_25
REMARK   13  A    between atoms: C_29  and  C_33
REMARK                            x       y       z     vdW  Elec       q    Type
REMARK                         _______ _______ _______ _____ _____    ______ ____
ROOT
ATOM      1  O   UNL     1      -1.188  10.564   4.321  0.00  0.00    -0.276 OA
ATOM      5  N   UNL     1      -3.487  10.768   4.145  0.00  0.00    -0.288 N 
ATOM     11  C   UNL     1      -3.671   9.720   3.146  0.00  0.00    +0.182 C 
ATOM     12  C   UNL     1      -5.172   9.436   3.142  0.00  0.00    +0.105 C 
ATOM     13  C   UNL     1      -5.788  10.764   3.589  0.00  0.00    +0.043 C 
ATOM     14  C   UNL     1      -4.769  11.326   4.571  0.00  0.00    +0.110 C 
ATOM     15  C   UNL     1      -2.252  11.053   4.707  0.00  0.00    +0.217 C 
ENDROOT
BRANCH  12   6
ATOM      3  O   UNL     1      -7.616   7.903   3.223  0.00  0.00    -0.253 OA
ATOM      6  N   UNL     1      -5.500   8.370   4.058  0.00  0.00    -0.294 N 
ATOM      8  N   UNL     1      -6.763   6.706   5.018  0.00  0.00    -0.296 N 
ATOM     23  C   UNL     1      -6.711   7.681   4.026  0.00  0.00    +0.300 C 
ATOM     37  H   UNL     1      -4.848   8.157   4.807  0.00  0.00    +0.151 HD
ATOM     39  H   UNL     1      -5.957   6.580   5.622  0.00  0.00    +0.151 HD
BRANCH   8  29
ATOM     29  C   UNL     1      -7.906   5.844   5.209  0.00  0.00    +0.132 C 
BRANCH  29  33
ATOM     33  C   UNL     1      -8.574   6.199   6.495  0.00  0.00    -0.016 C 
ATOM     36  C   UNL     1      -9.215   7.355   6.709  0.00  0.00    +0.005 C 
ENDBRANCH  29  33
ENDBRANCH   8  29
ENDBRANCH  12   6
BRANCH  11  16
ATOM      2  O   UNL     1      -3.929  11.049   1.179  0.00  0.00    -0.274 OA
ATOM      7  N   UNL     1      -1.953   9.857   1.483  0.00  0.00    -0.302 N 
ATOM     16  C   UNL     1      -3.217  10.294   1.837  0.00  0.00    +0.236 C 
ATOM     38  H   UNL     1      -1.429   9.282   2.137  0.00  0.00    +0.150 HD
BRANCH   7  19
ATOM     19  C   UNL     1      -1.296  10.246   0.256  0.00  0.00    +0.163 C 
BRANCH  19  26
ATOM      4  O   UNL     1       1.051  10.506  -0.317  0.00  0.00    -0.274 OA
ATOM     10  N   UNL     1       0.499  10.022   1.859  0.00  0.00    -0.328 N 
ATOM     26  C   UNL     1       0.200  10.261   0.535  0.00  0.00    +0.231 C 
ATOM     41  H   UNL     1       1.460  10.017   2.184  0.00  0.00    +0.145 HD
ATOM     42  H   UNL     1      -0.217   9.843   2.557  0.00  0.00    +0.145 HD
ENDBRANCH  19  26
BRANCH  19  24
ATOM     24  C   UNL     1      -1.617   9.293  -0.903  0.00  0.00    +0.069 C 
BRANCH  24  25
ATOM      9  N   UNL     1      -1.956  11.103  -4.083  0.00  0.00    -0.360 N 
ATOM     25  C   UNL     1      -2.037  10.007  -2.154  0.00  0.00    -0.020 A 
ATOM     27  C   UNL     1      -3.372  10.260  -2.579  0.00  0.00    +0.003 A 
ATOM     28  C   UNL     1      -1.190  10.537  -3.100  0.00  0.00    +0.087 A 
ATOM     30  C   UNL     1      -3.293  10.948  -3.792  0.00  0.00    +0.047 A 
ATOM     31  C   UNL     1      -4.643   9.969  -2.046  0.00  0.00    +0.010 A 
ATOM     32  C   UNL     1      -4.426  11.362  -4.500  0.00  0.00    +0.026 A 
ATOM     34  C   UNL     1      -5.786  10.375  -2.744  0.00  0.00    +0.001 A 
ATOM     35  C   UNL     1      -5.677  11.061  -3.953  0.00  0.00    +0.002 A 
ATOM     40  H   UNL     1      -1.594  11.568  -4.905  0.00  0.00    +0.165 HD
ENDBRANCH  24  25
ENDBRANCH  19  24
ENDBRANCH   7  19
ENDBRANCH  11  16
BRANCH  15  17
ATOM     17  C   UNL     1      -2.269  12.037   5.849  0.00  0.00    +0.102 C 
BRANCH  17  18
ATOM     18  C   UNL     1      -1.988  11.376   7.211  0.00  0.00    -0.029 C 
ATOM     20  C   UNL     1      -2.649  12.242   8.300  0.00  0.00    +0.011 C 
ATOM     21  C   UNL     1      -2.589   9.962   7.278  0.00  0.00    +0.011 C 
ATOM     22  C   UNL     1      -0.477  11.304   7.493  0.00  0.00    +0.011 C 
ENDBRANCH  17  18
ENDBRANCH  15  17
TORSDOF 10
ENDMDL
MODEL 10
REMARK VINA RESULT:      -5.9     12.259     16.440
REMARK  Name = 11865859
REMARK  13 active torsions:
REMARK  status: ('A' for Active; 'I' for Inactive)
REMARK    1  A    between atoms: N_6  and  C_12
REMARK    2  A    between atoms: N_7  and  C_19
REMARK    3  A    between atoms: N_8  and  C_29
REMARK    4  A    between atoms: C_11  and  C_16
REMARK    5  A    between atoms: C_15  and  C_17
REMARK    6  A    between atoms: C_17  and  C_18
REMARK    7  A    between atoms: C_18  and  C_20
REMARK    8  A    between atoms: C_18  and  C_21
REMARK    9  A    between atoms: C_18  and  C_22
REMARK   10  A    between atoms: C_19  and  C_24
REMARK   11  A    between atoms: C_19  and  C_26
REMARK   12  A    between atoms: C_24  and  C_25
REMARK   13  A    between atoms: C_29  and  C_33
REMARK                            x       y       z     vdW  Elec       q    Type
REMARK                         _______ _______ _______ _____ _____    ______ ____
ROOT
ATOM      1  O   UNL     1      14.724  -5.591  -3.458  0.00  0.00    -0.276 OA
ATOM      5  N   UNL     1      15.981  -7.439  -4.058  0.00  0.00    -0.288 N 
ATOM     11  C   UNL     1      17.028  -7.260  -3.058  0.00  0.00    +0.182 C 
ATOM     12  C   UNL     1      17.789  -8.585  -3.039  0.00  0.00    +0.105 C 
ATOM     13  C   UNL     1      17.587  -9.133  -4.454  0.00  0.00    +0.043 C 
ATOM     14  C   UNL     1      16.188  -8.662  -4.830  0.00  0.00    +0.110 C 
ATOM     15  C   UNL     1      14.866  -6.618  -4.124  0.00  0.00    +0.217 C 
ENDROOT
BRANCH  12   6
ATOM      3  O   UNL     1      19.170 -10.727  -1.685  0.00  0.00    -0.253 OA
ATOM      6  N   UNL     1      17.244  -9.481  -2.047  0.00  0.00    -0.294 N 
ATOM      8  N   UNL     1      17.218 -11.204  -0.525  0.00  0.00    -0.296 N 
ATOM     23  C   UNL     1      17.987 -10.493  -1.442  0.00  0.00    +0.300 C 
ATOM     37  H   UNL     1      16.254  -9.417  -1.828  0.00  0.00    +0.151 HD
ATOM     39  H   UNL     1      16.254 -10.924  -0.374  0.00  0.00    +0.151 HD
BRANCH   8  29
ATOM     29  C   UNL     1      17.741 -12.309   0.245  0.00  0.00    +0.132 C 
BRANCH  29  33
ATOM     33  C   UNL     1      17.220 -13.587  -0.322  0.00  0.00    -0.016 C 
ATOM     36  C   UNL     1      15.994 -14.065  -0.080  0.00  0.00    +0.005 C 
ENDBRANCH  29  33
ENDBRANCH   8  29
ENDBRANCH  12   6
BRANCH  11  16
ATOM      2  O   UNL     1      18.674  -6.279  -4.483  0.00  0.00    -0.274 OA
ATOM      7  N   UNL     1      17.716  -4.980  -2.806  0.00  0.00    -0.302 N 
ATOM     16  C   UNL     1      17.895  -6.137  -3.544  0.00  0.00    +0.236 C 
ATOM     38  H   UNL     1      16.996  -4.958  -2.089  0.00  0.00    +0.150 HD
BRANCH   7  19
ATOM     19  C   UNL     1      18.449  -3.760  -3.058  0.00  0.00    +0.163 C 
BRANCH  19  26
ATOM      4  O   UNL     1      17.672  -1.926  -4.450  0.00  0.00    -0.274 OA
ATOM     10  N   UNL     1      16.228  -2.819  -2.903  0.00  0.00    -0.328 N 
ATOM     26  C   UNL     1      17.444  -2.727  -3.547  0.00  0.00    +0.231 C 
ATOM     41  H   UNL     1      15.464  -2.197  -3.143  0.00  0.00    +0.145 HD
ATOM     42  H   UNL     1      16.046  -3.501  -2.174  0.00  0.00    +0.145 HD
ENDBRANCH  19  26
BRANCH  19  24
ATOM     24  C   UNL     1      19.177  -3.251  -1.807  0.00  0.00    +0.069 C 
BRANCH  24  25
ATOM      9  N   UNL     1      22.558  -4.689  -1.750  0.00  0.00    -0.360 N 
ATOM     25  C   UNL     1      20.469  -3.968  -1.544  0.00  0.00    -0.020 A 
ATOM     27  C   UNL     1      20.748  -4.842  -0.456  0.00  0.00    +0.003 A 
ATOM     28  C   UNL     1      21.602  -3.894  -2.322  0.00  0.00    +0.087 A 
ATOM     30  C   UNL     1      22.065  -5.280  -0.609  0.00  0.00    +0.047 A 
ATOM     31  C   UNL     1      20.003  -5.303   0.647  0.00  0.00    +0.010 A 
ATOM     32  C   UNL     1      22.677  -6.161   0.290  0.00  0.00    +0.026 A 
ATOM     34  C   UNL     1      20.603  -6.184   1.555  0.00  0.00    +0.001 A 
ATOM     35  C   UNL     1      21.919  -6.605   1.377  0.00  0.00    +0.002 A 
ATOM     40  H   UNL     1      23.492  -4.824  -2.113  0.00  0.00    +0.165 HD
ENDBRANCH  24  25
ENDBRANCH  19  24
ENDBRANCH   7  19
ENDBRANCH  11  16
BRANCH  15  17
ATOM     17  C   UNL     1      13.797  -7.050  -5.096  0.00  0.00    +0.102 C 
BRANCH  17  18
ATOM     18  C   UNL     1      13.754  -6.178  -6.364  0.00  0.00    -0.029 C 
ATOM     20  C   UNL     1      13.158  -7.029  -7.502  0.00  0.00    +0.011 C 
ATOM     21  C   UNL     1      12.863  -4.942  -6.159  0.00  0.00    +0.011 C 
ATOM     22  C   UNL     1      15.166  -5.727  -6.777  0.00  0.00    +0.011 C 
ENDBRANCH  17  18
ENDBRANCH  15  17
TORSDOF 10
ENDMDL
