MODEL 1
REMARK VINA RESULT:      -6.7      0.000      0.000
REMARK  Name = 75536062
REMARK  7 active torsions:
REMARK  status: ('A' for Active; 'I' for Inactive)
REMARK    1  A    between atoms: O_1  and  C_10
REMARK    2  A    between atoms: O_2  and  C_12
REMARK    3  A    between atoms: N_5  and  C_9
REMARK    4  A    between atoms: C_8  and  C_13
REMARK    5  A    between atoms: C_15  and  C_17
REMARK    6  A    between atoms: C_20  and  C_22
REMARK    7  A    between atoms: C_21  and  C_23
REMARK                            x       y       z     vdW  Elec       q    Type
REMARK                         _______ _______ _______ _____ _____    ______ ____
ROOT
ATOM      8  C   UNL     1      12.532   8.959  22.164  0.00  0.00    +0.046 C 
ATOM      9  C   UNL     1      13.064   8.144  20.962  0.00  0.00    +0.112 C 
ATOM     10  C   UNL     1      12.229   6.865  21.002  0.00  0.00    +0.164 C 
ATOM     11  C   UNL     1      11.104   8.421  22.440  0.00  0.00    +0.044 C 
ATOM     12  C   UNL     1      10.838   7.371  21.363  0.00  0.00    +0.145 C 
ENDROOT
BRANCH   8  13
ATOM      6  N   UNL     1      13.932  12.475  21.910  0.00  0.00    -0.263 NA
ATOM     13  C   UNL     1      12.605  10.454  21.945  0.00  0.00    -0.024 A 
ATOM     14  C   UNL     1      11.474  11.182  21.591  0.00  0.00    +0.007 A 
ATOM     16  C   UNL     1      13.800  11.142  22.091  0.00  0.00    +0.114 A 
ATOM     18  C   UNL     1      11.571  12.556  21.398  0.00  0.00    +0.020 A 
ATOM     19  C   UNL     1      12.811  13.150  21.568  0.00  0.00    +0.111 A 
ENDBRANCH   8  13
BRANCH   9   5
ATOM      3  O   UNL     1      15.052   8.515  18.924  0.00  0.00    -0.270 OA
ATOM      5  N   UNL     1      14.474   7.871  21.075  0.00  0.00    -0.305 N 
ATOM     15  C   UNL     1      15.363   8.083  20.031  0.00  0.00    +0.250 C 
ATOM     24  H   UNL     1      14.794   7.406  21.917  0.00  0.00    +0.149 HD
BRANCH  15  17
ATOM      4  O   UNL     1      18.732   6.650  20.248  0.00  0.00    -0.359 OA
ATOM      7  N   UNL     1      18.914   7.738  21.093  0.00  0.00    -0.083 NA
ATOM     17  C   UNL     1      16.780   7.726  20.298  0.00  0.00    +0.101 A 
ATOM     20  C   UNL     1      17.457   6.654  19.780  0.00  0.00    +0.147 A 
ATOM     21  C   UNL     1      17.735   8.366  21.106  0.00  0.00    +0.093 A 
ATOM     22  C   UNL     1      17.096   5.561  18.868  0.00  0.00    +0.090 C 
ATOM     23  C   UNL     1      17.569   9.584  21.917  0.00  0.00    +0.070 C 
ENDBRANCH  15  17
ENDBRANCH   9   5
BRANCH  10   1
ATOM      1  O   UNL     1      12.221   6.191  19.758  0.00  0.00    -0.387 OA
ATOM     25  H   UNL     1      11.439   6.494  19.267  0.00  0.00    +0.210 HD
ENDBRANCH  10   1
BRANCH  12   2
ATOM      2  O   UNL     1      10.221   8.007  20.248  0.00  0.00    -0.389 OA
ATOM     26  H   UNL     1       9.756   8.793  20.581  0.00  0.00    +0.210 HD
ENDBRANCH  12   2
TORSDOF 5
ENDMDL
MODEL 2
REMARK VINA RESULT:      -6.7      0.445      1.687
REMARK  Name = 75536062
REMARK  7 active torsions:
REMARK  status: ('A' for Active; 'I' for Inactive)
REMARK    1  A    between atoms: O_1  and  C_10
REMARK    2  A    between atoms: O_2  and  C_12
REMARK    3  A    between atoms: N_5  and  C_9
REMARK    4  A    between atoms: C_8  and  C_13
REMARK    5  A    between atoms: C_15  and  C_17
REMARK    6  A    between atoms: C_20  and  C_22
REMARK    7  A    between atoms: C_21  and  C_23
REMARK                            x       y       z     vdW  Elec       q    Type
REMARK                         _______ _______ _______ _____ _____    ______ ____
ROOT
ATOM      8  C   UNL     1      12.502   9.024  22.159  0.00  0.00    +0.046 C 
ATOM      9  C   UNL     1      13.018   8.158  20.988  0.00  0.00    +0.112 C 
ATOM     10  C   UNL     1      12.184   6.882  21.094  0.00  0.00    +0.164 C 
ATOM     11  C   UNL     1      11.077   8.501  22.476  0.00  0.00    +0.044 C 
ATOM     12  C   UNL     1      10.797   7.404  21.449  0.00  0.00    +0.145 C 
ENDROOT
BRANCH   8  13
ATOM      6  N   UNL     1      13.921  12.465  21.427  0.00  0.00    -0.263 NA
ATOM     13  C   UNL     1      12.572  10.509  21.873  0.00  0.00    -0.024 A 
ATOM     14  C   UNL     1      11.417  11.279  21.793  0.00  0.00    +0.007 A 
ATOM     16  C   UNL     1      13.790  11.145  21.685  0.00  0.00    +0.114 A 
ATOM     18  C   UNL     1      11.513  12.641  21.531  0.00  0.00    +0.020 A 
ATOM     19  C   UNL     1      12.776  13.181  21.357  0.00  0.00    +0.111 A 
ENDBRANCH   8  13
BRANCH   9   5
ATOM      3  O   UNL     1      15.005   8.578  18.957  0.00  0.00    -0.270 OA
ATOM      5  N   UNL     1      14.430   7.889  21.096  0.00  0.00    -0.305 N 
ATOM     15  C   UNL     1      15.318   8.125  20.055  0.00  0.00    +0.250 C 
ATOM     24  H   UNL     1      14.752   7.409  21.928  0.00  0.00    +0.149 HD
BRANCH  15  17
ATOM      4  O   UNL     1      18.821   7.840  21.103  0.00  0.00    -0.359 OA
ATOM      7  N   UNL     1      18.750   6.703  20.307  0.00  0.00    -0.083 NA
ATOM     17  C   UNL     1      16.736   7.769  20.316  0.00  0.00    +0.101 A 
ATOM     20  C   UNL     1      17.616   8.466  21.100  0.00  0.00    +0.147 A 
ATOM     21  C   UNL     1      17.494   6.681  19.848  0.00  0.00    +0.093 A 
ATOM     22  C   UNL     1      17.521   9.696  21.898  0.00  0.00    +0.090 C 
ATOM     23  C   UNL     1      17.065   5.591  18.957  0.00  0.00    +0.070 C 
ENDBRANCH  15  17
ENDBRANCH   9   5
BRANCH  10   1
ATOM      1  O   UNL     1      12.161   6.154  19.881  0.00  0.00    -0.387 OA
ATOM     25  H   UNL     1      11.623   5.358  20.029  0.00  0.00    +0.210 HD
ENDBRANCH  10   1
BRANCH  12   2
ATOM      2  O   UNL     1      10.167   7.992  20.315  0.00  0.00    -0.389 OA
ATOM     26  H   UNL     1      10.866   8.366  19.753  0.00  0.00    +0.210 HD
ENDBRANCH  12   2
TORSDOF 5
ENDMDL
MODEL 3
REMARK VINA RESULT:      -6.4      2.546      5.756
REMARK  Name = 75536062
REMARK  7 active torsions:
REMARK  status: ('A' for Active; 'I' for Inactive)
REMARK    1  A    between atoms: O_1  and  C_10
REMARK    2  A    between atoms: O_2  and  C_12
REMARK    3  A    between atoms: N_5  and  C_9
REMARK    4  A    between atoms: C_8  and  C_13
REMARK    5  A    between atoms: C_15  and  C_17
REMARK    6  A    between atoms: C_20  and  C_22
REMARK    7  A    between atoms: C_21  and  C_23
REMARK                            x       y       z     vdW  Elec       q    Type
REMARK                         _______ _______ _______ _____ _____    ______ ____
ROOT
ATOM      8  C   UNL     1      14.179   8.871  18.698  0.00  0.00    +0.046 C 
ATOM      9  C   UNL     1      12.942   8.825  19.625  0.00  0.00    +0.112 C 
ATOM     10  C   UNL     1      11.770   9.019  18.665  0.00  0.00    +0.164 C 
ATOM     11  C   UNL     1      13.662   8.496  17.286  0.00  0.00    +0.044 C 
ATOM     12  C   UNL     1      12.174   8.188  17.453  0.00  0.00    +0.145 C 
ENDROOT
BRANCH   8  13
ATOM      6  N   UNL     1      16.478   5.889  19.152  0.00  0.00    -0.263 NA
ATOM     13  C   UNL     1      15.322   8.012  19.193  0.00  0.00    -0.024 A 
ATOM     14  C   UNL     1      16.246   8.505  20.107  0.00  0.00    +0.007 A 
ATOM     16  C   UNL     1      15.481   6.708  18.750  0.00  0.00    +0.114 A 
ATOM     18  C   UNL     1      17.286   7.692  20.544  0.00  0.00    +0.020 A 
ATOM     19  C   UNL     1      17.357   6.403  20.042  0.00  0.00    +0.111 A 
ENDBRANCH   8  13
BRANCH   9   5
ATOM      3  O   UNL     1      13.688   8.490  22.378  0.00  0.00    -0.270 OA
ATOM      5  N   UNL     1      12.986   9.851  20.636  0.00  0.00    -0.305 N 
ATOM     15  C   UNL     1      13.361   9.593  21.947  0.00  0.00    +0.250 C 
ATOM     24  H   UNL     1      12.623  10.765  20.391  0.00  0.00    +0.149 HD
BRANCH  15  17
ATOM      4  O   UNL     1      13.982  12.502  24.095  0.00  0.00    -0.359 OA
ATOM      7  N   UNL     1      12.619  12.361  24.324  0.00  0.00    -0.083 NA
ATOM     17  C   UNL     1      13.328  10.754  22.875  0.00  0.00    +0.101 A 
ATOM     20  C   UNL     1      14.392  11.539  23.230  0.00  0.00    +0.147 A 
ATOM     21  C   UNL     1      12.250  11.311  23.584  0.00  0.00    +0.093 A 
ATOM     22  C   UNL     1      15.819  11.544  22.879  0.00  0.00    +0.090 C 
ATOM     23  C   UNL     1      10.844  10.875  23.590  0.00  0.00    +0.070 C 
ENDBRANCH  15  17
ENDBRANCH   9   5
BRANCH  10   1
ATOM      1  O   UNL     1      10.547   8.563  19.212  0.00  0.00    -0.387 OA
ATOM     25  H   UNL     1      10.753   8.111  20.048  0.00  0.00    +0.210 HD
ENDBRANCH  10   1
BRANCH  12   2
ATOM      2  O   UNL     1      12.022   6.796  17.715  0.00  0.00    -0.389 OA
ATOM     26  H   UNL     1      11.627   6.707  18.598  0.00  0.00    +0.210 HD
ENDBRANCH  12   2
TORSDOF 5
ENDMDL
MODEL 4
REMARK VINA RESULT:      -6.3      3.400      6.462
REMARK  Name = 75536062
REMARK  7 active torsions:
REMARK  status: ('A' for Active; 'I' for Inactive)
REMARK    1  A    between atoms: O_1  and  C_10
REMARK    2  A    between atoms: O_2  and  C_12
REMARK    3  A    between atoms: N_5  and  C_9
REMARK    4  A    between atoms: C_8  and  C_13
REMARK    5  A    between atoms: C_15  and  C_17
REMARK    6  A    between atoms: C_20  and  C_22
REMARK    7  A    between atoms: C_21  and  C_23
REMARK                            x       y       z     vdW  Elec       q    Type
REMARK                         _______ _______ _______ _____ _____    ______ ____
ROOT
ATOM      8  C   UNL     1      11.908   8.300  19.588  0.00  0.00    +0.046 C 
ATOM      9  C   UNL     1      12.722   9.166  20.574  0.00  0.00    +0.112 C 
ATOM     10  C   UNL     1      13.107   8.183  21.679  0.00  0.00    +0.164 C 
ATOM     11  C   UNL     1      12.357   6.837  19.840  0.00  0.00    +0.044 C 
ATOM     12  C   UNL     1      13.447   6.913  20.907  0.00  0.00    +0.145 C 
ENDROOT
BRANCH   8  13
ATOM      6  N   UNL     1      11.110   8.855  15.921  0.00  0.00    -0.263 NA
ATOM     13  C   UNL     1      12.041   8.754  18.150  0.00  0.00    -0.024 A 
ATOM     14  C   UNL     1      13.159   9.460  17.722  0.00  0.00    +0.007 A 
ATOM     16  C   UNL     1      11.052   8.479  17.218  0.00  0.00    +0.114 A 
ATOM     18  C   UNL     1      13.255   9.863  16.395  0.00  0.00    +0.020 A 
ATOM     19  C   UNL     1      12.213   9.539  15.542  0.00  0.00    +0.111 A 
ENDBRANCH   8  13
BRANCH   9   5
ATOM      3  O   UNL     1      13.754  11.609  21.678  0.00  0.00    -0.270 OA
ATOM      5  N   UNL     1      11.953  10.273  21.084  0.00  0.00    -0.305 N 
ATOM     15  C   UNL     1      12.543  11.419  21.600  0.00  0.00    +0.250 C 
ATOM     24  H   UNL     1      10.950  10.150  21.161  0.00  0.00    +0.149 HD
BRANCH  15  17
ATOM      4  O   UNL     1      10.382  14.314  22.236  0.00  0.00    -0.359 OA
ATOM      7  N   UNL     1      10.158  13.623  23.421  0.00  0.00    -0.083 NA
ATOM     17  C   UNL     1      11.612  12.458  22.111  0.00  0.00    +0.101 A 
ATOM     20  C   UNL     1      11.249  13.610  21.464  0.00  0.00    +0.147 A 
ATOM     21  C   UNL     1      10.903  12.518  23.323  0.00  0.00    +0.093 A 
ATOM     22  C   UNL     1      11.597  14.206  20.167  0.00  0.00    +0.090 C 
ATOM     23  C   UNL     1      10.903  11.541  24.424  0.00  0.00    +0.070 C 
ENDBRANCH  15  17
ENDBRANCH   9   5
BRANCH  10   1
ATOM      1  O   UNL     1      14.215   8.633  22.435  0.00  0.00    -0.387 OA
ATOM     25  H   UNL     1      14.834   9.062  21.820  0.00  0.00    +0.210 HD
ENDBRANCH  10   1
BRANCH  12   2
ATOM      2  O   UNL     1      14.711   7.031  20.261  0.00  0.00    -0.389 OA
ATOM     26  H   UNL     1      14.834   7.967  20.028  0.00  0.00    +0.210 HD
ENDBRANCH  12   2
TORSDOF 5
ENDMDL
MODEL 5
REMARK VINA RESULT:      -6.2      2.495      5.757
REMARK  Name = 75536062
REMARK  7 active torsions:
REMARK  status: ('A' for Active; 'I' for Inactive)
REMARK    1  A    between atoms: O_1  and  C_10
REMARK    2  A    between atoms: O_2  and  C_12
REMARK    3  A    between atoms: N_5  and  C_9
REMARK    4  A    between atoms: C_8  and  C_13
REMARK    5  A    between atoms: C_15  and  C_17
REMARK    6  A    between atoms: C_20  and  C_22
REMARK    7  A    between atoms: C_21  and  C_23
REMARK                            x       y       z     vdW  Elec       q    Type
REMARK                         _______ _______ _______ _____ _____    ______ ____
ROOT
ATOM      8  C   UNL     1      14.247   8.791  19.277  0.00  0.00    +0.046 C 
ATOM      9  C   UNL     1      13.058   8.440  20.199  0.00  0.00    +0.112 C 
ATOM     10  C   UNL     1      11.836   8.840  19.374  0.00  0.00    +0.164 C 
ATOM     11  C   UNL     1      13.676   8.796  17.835  0.00  0.00    +0.044 C 
ATOM     12  C   UNL     1      12.209   8.391  17.965  0.00  0.00    +0.145 C 
ENDROOT
BRANCH   8  13
ATOM      6  N   UNL     1      16.586   5.829  18.901  0.00  0.00    -0.263 NA
ATOM     13  C   UNL     1      15.439   7.878  19.473  0.00  0.00    -0.024 A 
ATOM     14  C   UNL     1      16.455   8.208  20.362  0.00  0.00    +0.007 A 
ATOM     16  C   UNL     1      15.551   6.687  18.772  0.00  0.00    +0.114 A 
ATOM     18  C   UNL     1      17.537   7.349  20.522  0.00  0.00    +0.020 A 
ATOM     19  C   UNL     1      17.555   6.182  19.776  0.00  0.00    +0.111 A 
ENDBRANCH   8  13
BRANCH   9   5
ATOM      3  O   UNL     1      13.216  11.286  20.551  0.00  0.00    -0.270 OA
ATOM      5  N   UNL     1      13.117   9.151  21.451  0.00  0.00    -0.305 N 
ATOM     15  C   UNL     1      13.193  10.535  21.523  0.00  0.00    +0.250 C 
ATOM     24  H   UNL     1      13.217   8.601  22.297  0.00  0.00    +0.149 HD
BRANCH  15  17
ATOM      4  O   UNL     1      12.686  11.852  24.909  0.00  0.00    -0.359 OA
ATOM      7  N   UNL     1      14.060  12.038  24.817  0.00  0.00    -0.083 NA
ATOM     17  C   UNL     1      13.275  11.113  22.889  0.00  0.00    +0.101 A 
ATOM     20  C   UNL     1      12.230  11.301  23.755  0.00  0.00    +0.147 A 
ATOM     21  C   UNL     1      14.390  11.588  23.603  0.00  0.00    +0.093 A 
ATOM     22  C   UNL     1      10.786  11.039  23.685  0.00  0.00    +0.090 C 
ATOM     23  C   UNL     1      15.795  11.636  23.165  0.00  0.00    +0.070 C 
ENDBRANCH  15  17
ENDBRANCH   9   5
BRANCH  10   1
ATOM      1  O   UNL     1      10.655   8.200  19.818  0.00  0.00    -0.387 OA
ATOM     25  H   UNL     1       9.904   8.644  19.389  0.00  0.00    +0.210 HD
ENDBRANCH  10   1
BRANCH  12   2
ATOM      2  O   UNL     1      12.112   6.976  17.839  0.00  0.00    -0.389 OA
ATOM     26  H   UNL     1      11.214   6.771  17.528  0.00  0.00    +0.210 HD
ENDBRANCH  12   2
TORSDOF 5
ENDMDL
MODEL 6
REMARK VINA RESULT:      -6.0      2.442      6.002
REMARK  Name = 75536062
REMARK  7 active torsions:
REMARK  status: ('A' for Active; 'I' for Inactive)
REMARK    1  A    between atoms: O_1  and  C_10
REMARK    2  A    between atoms: O_2  and  C_12
REMARK    3  A    between atoms: N_5  and  C_9
REMARK    4  A    between atoms: C_8  and  C_13
REMARK    5  A    between atoms: C_15  and  C_17
REMARK    6  A    between atoms: C_20  and  C_22
REMARK    7  A    between atoms: C_21  and  C_23
REMARK                            x       y       z     vdW  Elec       q    Type
REMARK                         _______ _______ _______ _____ _____    ______ ____
ROOT
ATOM      8  C   UNL     1      13.128   8.452  20.069  0.00  0.00    +0.046 C 
ATOM      9  C   UNL     1      12.139   8.783  21.209  0.00  0.00    +0.112 C 
ATOM     10  C   UNL     1      10.960   7.847  20.941  0.00  0.00    +0.164 C 
ATOM     11  C   UNL     1      12.769   7.018  19.600  0.00  0.00    +0.044 C 
ATOM     12  C   UNL     1      11.639   6.550  20.516  0.00  0.00    +0.145 C 
ENDROOT
BRANCH   8  13
ATOM      6  N   UNL     1      16.567   7.715  21.490  0.00  0.00    -0.263 NA
ATOM     13  C   UNL     1      14.576   8.633  20.470  0.00  0.00    -0.024 A 
ATOM     14  C   UNL     1      15.248   9.822  20.213  0.00  0.00    +0.007 A 
ATOM     16  C   UNL     1      15.275   7.618  21.106  0.00  0.00    +0.114 A 
ATOM     18  C   UNL     1      16.578   9.960  20.594  0.00  0.00    +0.020 A 
ATOM     19  C   UNL     1      17.187   8.887  21.224  0.00  0.00    +0.111 A 
ENDBRANCH   8  13
BRANCH   9   5
ATOM      3  O   UNL     1      13.126  10.869  22.917  0.00  0.00    -0.270 OA
ATOM      5  N   UNL     1      11.741  10.167  21.194  0.00  0.00    -0.305 N 
ATOM     15  C   UNL     1      12.276  11.108  22.063  0.00  0.00    +0.250 C 
ATOM     24  H   UNL     1      10.963  10.424  20.597  0.00  0.00    +0.149 HD
BRANCH  15  17
ATOM      4  O   UNL     1      11.310  14.523  21.134  0.00  0.00    -0.359 OA
ATOM      7  N   UNL     1      10.643  14.442  22.350  0.00  0.00    -0.083 NA
ATOM     17  C   UNL     1      11.740  12.489  21.939  0.00  0.00    +0.101 A 
ATOM     20  C   UNL     1      11.959  13.353  20.900  0.00  0.00    +0.147 A 
ATOM     21  C   UNL     1      10.914  13.218  22.812  0.00  0.00    +0.093 A 
ATOM     22  C   UNL     1      12.721  13.271  19.646  0.00  0.00    +0.090 C 
ATOM     23  C   UNL     1      10.357  12.789  24.106  0.00  0.00    +0.070 C 
ENDBRANCH  15  17
ENDBRANCH   9   5
BRANCH  10   1
ATOM      1  O   UNL     1      10.159   7.652  22.090  0.00  0.00    -0.387 OA
ATOM     25  H   UNL     1       9.259   7.442  21.786  0.00  0.00    +0.210 HD
ENDBRANCH  10   1
BRANCH  12   2
ATOM      2  O   UNL     1      12.207   5.880  21.637  0.00  0.00    -0.389 OA
ATOM     26  H   UNL     1      11.548   5.243  21.962  0.00  0.00    +0.210 HD
ENDBRANCH  12   2
TORSDOF 5
ENDMDL
MODEL 7
REMARK VINA RESULT:      -5.9     25.654     28.446
REMARK  Name = 75536062
REMARK  7 active torsions:
REMARK  status: ('A' for Active; 'I' for Inactive)
REMARK    1  A    between atoms: O_1  and  C_10
REMARK    2  A    between atoms: O_2  and  C_12
REMARK    3  A    between atoms: N_5  and  C_9
REMARK    4  A    between atoms: C_8  and  C_13
REMARK    5  A    between atoms: C_15  and  C_17
REMARK    6  A    between atoms: C_20  and  C_22
REMARK    7  A    between atoms: C_21  and  C_23
REMARK                            x       y       z     vdW  Elec       q    Type
REMARK                         _______ _______ _______ _____ _____    ______ ____
ROOT
ATOM      8  C   UNL     1      -6.444 -10.142  17.776  0.00  0.00    +0.046 C 
ATOM      9  C   UNL     1      -5.569 -11.275  17.193  0.00  0.00    +0.112 C 
ATOM     10  C   UNL     1      -4.785 -11.780  18.403  0.00  0.00    +0.164 C 
ATOM     11  C   UNL     1      -6.567 -10.443  19.292  0.00  0.00    +0.044 C 
ATOM     12  C   UNL     1      -5.821 -11.757  19.520  0.00  0.00    +0.145 C 
ENDROOT
BRANCH   8  13
ATOM      6  N   UNL     1      -9.515 -10.977  15.713  0.00  0.00    -0.263 NA
ATOM     13  C   UNL     1      -7.768  -9.988  17.061  0.00  0.00    -0.024 A 
ATOM     14  C   UNL     1      -8.452  -8.778  17.072  0.00  0.00    +0.007 A 
ATOM     16  C   UNL     1      -8.338 -11.048  16.372  0.00  0.00    +0.114 A 
ATOM     18  C   UNL     1      -9.667  -8.665  16.405  0.00  0.00    +0.020 A 
ATOM     19  C   UNL     1     -10.151  -9.783  15.746  0.00  0.00    +0.111 A 
ENDBRANCH   8  13
BRANCH   9   5
ATOM      3  O   UNL     1      -4.296 -12.867  15.169  0.00  0.00    -0.270 OA
ATOM      5  N   UNL     1      -4.699 -10.802  16.147  0.00  0.00    -0.305 N 
ATOM     15  C   UNL     1      -4.127 -11.650  15.208  0.00  0.00    +0.250 C 
ATOM     24  H   UNL     1      -4.417  -9.829  16.177  0.00  0.00    +0.149 HD
BRANCH  15  17
ATOM      4  O   UNL     1      -1.469  -9.987  13.305  0.00  0.00    -0.359 OA
ATOM      7  N   UNL     1      -2.376 -10.180  12.270  0.00  0.00    -0.083 NA
ATOM     17  C   UNL     1      -3.231 -11.010  14.211  0.00  0.00    +0.101 A 
ATOM     20  C   UNL     1      -1.989 -10.486  14.456  0.00  0.00    +0.147 A 
ATOM     21  C   UNL     1      -3.420 -10.794  12.835  0.00  0.00    +0.093 A 
ATOM     22  C   UNL     1      -1.151 -10.360  15.656  0.00  0.00    +0.090 C 
ATOM     23  C   UNL     1      -4.586 -11.154  12.011  0.00  0.00    +0.070 C 
ENDBRANCH  15  17
ENDBRANCH   9   5
BRANCH  10   1
ATOM      1  O   UNL     1      -4.275 -13.085  18.206  0.00  0.00    -0.387 OA
ATOM     25  H   UNL     1      -4.477 -13.601  19.005  0.00  0.00    +0.210 HD
ENDBRANCH  10   1
BRANCH  12   2
ATOM      2  O   UNL     1      -6.743 -12.834  19.384  0.00  0.00    -0.389 OA
ATOM     26  H   UNL     1      -6.280 -13.649  19.643  0.00  0.00    +0.210 HD
ENDBRANCH  12   2
TORSDOF 5
ENDMDL
MODEL 8
REMARK VINA RESULT:      -5.9     14.893     16.485
REMARK  Name = 75536062
REMARK  7 active torsions:
REMARK  status: ('A' for Active; 'I' for Inactive)
REMARK    1  A    between atoms: O_1  and  C_10
REMARK    2  A    between atoms: O_2  and  C_12
REMARK    3  A    between atoms: N_5  and  C_9
REMARK    4  A    between atoms: C_8  and  C_13
REMARK    5  A    between atoms: C_15  and  C_17
REMARK    6  A    between atoms: C_20  and  C_22
REMARK    7  A    between atoms: C_21  and  C_23
REMARK                            x       y       z     vdW  Elec       q    Type
REMARK                         _______ _______ _______ _____ _____    ______ ____
ROOT
ATOM      8  C   UNL     1      10.374   6.142   4.810  0.00  0.00    +0.046 C 
ATOM      9  C   UNL     1      11.422   6.153   5.946  0.00  0.00    +0.112 C 
ATOM     10  C   UNL     1      10.584   5.937   7.206  0.00  0.00    +0.164 C 
ATOM     11  C   UNL     1       9.156   5.361   5.366  0.00  0.00    +0.044 C 
ATOM     12  C   UNL     1       9.560   4.898   6.765  0.00  0.00    +0.145 C 
ENDROOT
BRANCH   8  13
ATOM      6  N   UNL     1      11.880   6.038   1.330  0.00  0.00    -0.263 NA
ATOM     13  C   UNL     1      10.919   5.602   3.506  0.00  0.00    -0.024 A 
ATOM     14  C   UNL     1      10.972   4.234   3.262  0.00  0.00    +0.007 A 
ATOM     16  C   UNL     1      11.382   6.455   2.515  0.00  0.00    +0.114 A 
ATOM     18  C   UNL     1      11.477   3.767   2.054  0.00  0.00    +0.020 A 
ATOM     19  C   UNL     1      11.914   4.701   1.129  0.00  0.00    +0.111 A 
ENDBRANCH   8  13
BRANCH   9   5
ATOM      3  O   UNL     1      13.969   6.592   7.197  0.00  0.00    -0.270 OA
ATOM      5  N   UNL     1      12.155   7.392   5.994  0.00  0.00    -0.305 N 
ATOM     15  C   UNL     1      13.386   7.509   6.625  0.00  0.00    +0.250 C 
ATOM     24  H   UNL     1      11.693   8.223   5.644  0.00  0.00    +0.149 HD
BRANCH  15  17
ATOM      4  O   UNL     1      14.281  11.057   6.877  0.00  0.00    -0.359 OA
ATOM      7  N   UNL     1      15.461  10.585   6.314  0.00  0.00    -0.083 NA
ATOM     17  C   UNL     1      14.001   8.861   6.609  0.00  0.00    +0.101 A 
ATOM     20  C   UNL     1      13.420  10.021   7.048  0.00  0.00    +0.147 A 
ATOM     21  C   UNL     1      15.270   9.271   6.164  0.00  0.00    +0.093 A 
ATOM     22  C   UNL     1      12.114  10.351   7.635  0.00  0.00    +0.090 C 
ATOM     23  C   UNL     1      16.340   8.442   5.584  0.00  0.00    +0.070 C 
ENDBRANCH  15  17
ENDBRANCH   9   5
BRANCH  10   1
ATOM      1  O   UNL     1      11.359   5.462   8.290  0.00  0.00    -0.387 OA
ATOM     25  H   UNL     1      11.053   4.563   8.496  0.00  0.00    +0.210 HD
ENDBRANCH  10   1
BRANCH  12   2
ATOM      2  O   UNL     1      10.153   3.606   6.665  0.00  0.00    -0.389 OA
ATOM     26  H   UNL     1       9.441   2.950   6.755  0.00  0.00    +0.210 HD
ENDBRANCH  12   2
TORSDOF 5
ENDMDL
MODEL 9
REMARK VINA RESULT:      -5.8     15.076     16.542
REMARK  Name = 75536062
REMARK  7 active torsions:
REMARK  status: ('A' for Active; 'I' for Inactive)
REMARK    1  A    between atoms: O_1  and  C_10
REMARK    2  A    between atoms: O_2  and  C_12
REMARK    3  A    between atoms: N_5  and  C_9
REMARK    4  A    between atoms: C_8  and  C_13
REMARK    5  A    between atoms: C_15  and  C_17
REMARK    6  A    between atoms: C_20  and  C_22
REMARK    7  A    between atoms: C_21  and  C_23
REMARK                            x       y       z     vdW  Elec       q    Type
REMARK                         _______ _______ _______ _____ _____    ______ ____
ROOT
ATOM      8  C   UNL     1      10.145   6.234   4.993  0.00  0.00    +0.046 C 
ATOM      9  C   UNL     1      11.389   6.179   5.909  0.00  0.00    +0.112 C 
ATOM     10  C   UNL     1      10.793   6.059   7.311  0.00  0.00    +0.164 C 
ATOM     11  C   UNL     1       8.998   5.570   5.797  0.00  0.00    +0.044 C 
ATOM     12  C   UNL     1       9.624   5.102   7.110  0.00  0.00    +0.145 C 
ENDROOT
BRANCH   8  13
ATOM      6  N   UNL     1      11.174   3.755   2.313  0.00  0.00    -0.263 NA
ATOM     13  C   UNL     1      10.386   5.624   3.629  0.00  0.00    -0.024 A 
ATOM     14  C   UNL     1      10.068   6.317   2.467  0.00  0.00    +0.007 A 
ATOM     16  C   UNL     1      10.933   4.356   3.499  0.00  0.00    +0.114 A 
ATOM     18  C   UNL     1      10.302   5.731   1.228  0.00  0.00    +0.020 A 
ATOM     19  C   UNL     1      10.852   4.460   1.205  0.00  0.00    +0.111 A 
ENDBRANCH   8  13
BRANCH   9   5
ATOM      3  O   UNL     1      14.009   6.571   7.016  0.00  0.00    -0.270 OA
ATOM      5  N   UNL     1      12.214   7.352   5.773  0.00  0.00    -0.305 N 
ATOM     15  C   UNL     1      13.474   7.451   6.347  0.00  0.00    +0.250 C 
ATOM     24  H   UNL     1      11.801   8.166   5.332  0.00  0.00    +0.149 HD
BRANCH  15  17
ATOM      4  O   UNL     1      15.700  10.227   5.456  0.00  0.00    -0.359 OA
ATOM      7  N   UNL     1      14.759  10.942   6.187  0.00  0.00    -0.083 NA
ATOM     17  C   UNL     1      14.186   8.737   6.137  0.00  0.00    +0.101 A 
ATOM     20  C   UNL     1      15.348   8.916   5.433  0.00  0.00    +0.147 A 
ATOM     21  C   UNL     1      13.864  10.031   6.583  0.00  0.00    +0.093 A 
ATOM     22  C   UNL     1      16.245   8.014   4.697  0.00  0.00    +0.090 C 
ATOM     23  C   UNL     1      12.709  10.451   7.394  0.00  0.00    +0.070 C 
ENDBRANCH  15  17
ENDBRANCH   9   5
BRANCH  10   1
ATOM      1  O   UNL     1      11.721   5.542   8.246  0.00  0.00    -0.387 OA
ATOM     25  H   UNL     1      12.518   5.283   7.753  0.00  0.00    +0.210 HD
ENDBRANCH  10   1
BRANCH  12   2
ATOM      2  O   UNL     1      10.083   3.764   6.946  0.00  0.00    -0.389 OA
ATOM     26  H   UNL     1       9.318   3.176   7.067  0.00  0.00    +0.210 HD
ENDBRANCH  12   2
TORSDOF 5
ENDMDL
MODEL 10
REMARK VINA RESULT:      -5.8     27.107     28.637
REMARK  Name = 75536062
REMARK  7 active torsions:
REMARK  status: ('A' for Active; 'I' for Inactive)
REMARK    1  A    between atoms: O_1  and  C_10
REMARK    2  A    between atoms: O_2  and  C_12
REMARK    3  A    between atoms: N_5  and  C_9
REMARK    4  A    between atoms: C_8  and  C_13
REMARK    5  A    between atoms: C_15  and  C_17
REMARK    6  A    between atoms: C_20  and  C_22
REMARK    7  A    between atoms: C_21  and  C_23
REMARK                            x       y       z     vdW  Elec       q    Type
REMARK                         _______ _______ _______ _____ _____    ______ ____
ROOT
ATOM      8  C   UNL     1      -3.240 -10.541  14.909  0.00  0.00    +0.046 C 
ATOM      9  C   UNL     1      -3.736 -11.274  13.641  0.00  0.00    +0.112 C 
ATOM     10  C   UNL     1      -2.454 -11.846  13.037  0.00  0.00    +0.164 C 
ATOM     11  C   UNL     1      -1.887 -11.202  15.277  0.00  0.00    +0.044 C 
ATOM     12  C   UNL     1      -1.678 -12.322  14.259  0.00  0.00    +0.145 C 
ENDROOT
BRANCH   8  13
ATOM      6  N   UNL     1      -6.404  -9.804  16.867  0.00  0.00    -0.263 NA
ATOM     13  C   UNL     1      -4.259 -10.538  16.028  0.00  0.00    -0.024 A 
ATOM     14  C   UNL     1      -4.025 -11.229  17.212  0.00  0.00    +0.007 A 
ATOM     16  C   UNL     1      -5.454  -9.846  15.906  0.00  0.00    +0.114 A 
ATOM     18  C   UNL     1      -4.978 -11.207  18.223  0.00  0.00    +0.020 A 
ATOM     19  C   UNL     1      -6.141 -10.486  18.004  0.00  0.00    +0.111 A 
ENDBRANCH   8  13
BRANCH   9   5
ATOM      3  O   UNL     1      -5.605 -12.011  11.590  0.00  0.00    -0.270 OA
ATOM      5  N   UNL     1      -4.409 -10.383  12.730  0.00  0.00    -0.305 N 
ATOM     15  C   UNL     1      -5.301 -10.834  11.766  0.00  0.00    +0.250 C 
ATOM     24  H   UNL     1      -4.128  -9.409  12.735  0.00  0.00    +0.149 HD
BRANCH  15  17
ATOM      4  O   UNL     1      -7.367  -8.410   9.946  0.00  0.00    -0.359 OA
ATOM      7  N   UNL     1      -6.155  -8.171   9.308  0.00  0.00    -0.083 NA
ATOM     17  C   UNL     1      -5.891  -9.792  10.887  0.00  0.00    +0.101 A 
ATOM     20  C   UNL     1      -7.196  -9.377  10.884  0.00  0.00    +0.147 A 
ATOM     21  C   UNL     1      -5.289  -9.007   9.888  0.00  0.00    +0.093 A 
ATOM     22  C   UNL     1      -8.389  -9.754  11.654  0.00  0.00    +0.090 C 
ATOM     23  C   UNL     1      -3.884  -9.020   9.446  0.00  0.00    +0.070 C 
ENDBRANCH  15  17
ENDBRANCH   9   5
BRANCH  10   1
ATOM      1  O   UNL     1      -2.712 -12.916  12.147  0.00  0.00    -0.387 OA
ATOM     25  H   UNL     1      -2.569 -12.585  11.244  0.00  0.00    +0.210 HD
ENDBRANCH  10   1
BRANCH  12   2
ATOM      2  O   UNL     1      -2.237 -13.524  14.782  0.00  0.00    -0.389 OA
ATOM     26  H   UNL     1      -1.768 -13.728  15.610  0.00  0.00    +0.210 HD
ENDBRANCH  12   2
TORSDOF 5
ENDMDL
