MODEL 1
REMARK VINA RESULT:      -6.1      0.000      0.000
REMARK  Name = 38027879
REMARK  17 active torsions:
REMARK  status: ('A' for Active; 'I' for Inactive)
REMARK    1  A    between atoms: O_3  and  C_24
REMARK    2  A    between atoms: O_3  and  C_28
REMARK    3  A    between atoms: O_4  and  C_31
REMARK    4  A    between atoms: O_4  and  C_33
REMARK    5  A    between atoms: O_5  and  C_32
REMARK    6  A    between atoms: N_7  and  C_16
REMARK    7  A    between atoms: N_8  and  C_23
REMARK    8  A    between atoms: C_9  and  C_13
REMARK    9  A    between atoms: C_10  and  C_16
REMARK   10  A    between atoms: C_12  and  C_17
REMARK   11  A    between atoms: C_13  and  C_18
REMARK   12  A    between atoms: C_13  and  C_19
REMARK   13  A    between atoms: C_14  and  C_20
REMARK   14  A    between atoms: C_17  and  C_21
REMARK   15  A    between atoms: C_22  and  C_24
REMARK   16  A    between atoms: C_23  and  C_25
REMARK   17  A    between atoms: C_28  and  C_32
REMARK                            x       y       z     vdW  Elec       q    Type
REMARK                         _______ _______ _______ _____ _____    ______ ____
ROOT
ATOM      9  C   UNL     1      -5.842 -10.645  15.207  0.00  0.00    +0.000 C 
ATOM     10  C   UNL     1      -6.678 -10.661  16.511  0.00  0.00    +0.032 C 
ATOM     11  C   UNL     1      -4.850 -11.818  15.193  0.00  0.00    +0.012 C 
ATOM     12  C   UNL     1      -3.884 -11.776  16.393  0.00  0.00    +0.023 C 
ATOM     14  C   UNL     1      -4.615 -11.524  17.696  0.00  0.00    -0.073 C 
ATOM     15  C   UNL     1      -5.868 -11.037  17.728  0.00  0.00    -0.022 C 
ATOM     20  C   UNL     1      -3.888 -11.887  18.961  0.00  0.00    +0.039 C 
ENDROOT
BRANCH   9  13
ATOM     13  C   UNL     1      -6.731 -10.704  13.960  0.00  0.00    -0.013 C 
ATOM     18  C   UNL     1      -6.218  -9.740  12.895  0.00  0.00    +0.007 C 
ATOM     19  C   UNL     1      -6.792 -12.128  13.418  0.00  0.00    +0.007 C 
ENDBRANCH   9  13
BRANCH  10  16
ATOM     16  C   UNL     1      -7.357  -9.306  16.748  0.00  0.00    +0.112 C 
BRANCH  16   7
ATOM      2  O   UNL     1      -9.755  -7.981  15.820  0.00  0.00    -0.273 OA
ATOM      7  N   UNL     1      -8.687  -9.485  17.241  0.00  0.00    -0.313 N 
ATOM     22  C   UNL     1      -9.792  -8.801  16.735  0.00  0.00    +0.239 C 
ATOM     34  H   UNL     1      -8.841 -10.184  17.961  0.00  0.00    +0.149 HD
BRANCH  22  24
ATOM     24  C   UNL     1     -11.075  -9.183  17.440  0.00  0.00    +0.256 C 
BRANCH  24   3
ATOM      3  O   UNL     1     -10.904  -9.149  18.841  0.00  0.00    -0.359 OA
BRANCH   3  28
ATOM     28  C   UNL     1     -11.394 -10.331  19.465  0.00  0.00    +0.280 C 
BRANCH  28  32
ATOM      6  O   UNL     1     -10.262 -12.325  20.266  0.00  0.00    -0.248 OA
ATOM     32  C   UNL     1     -10.246 -11.130  20.016  0.00  0.00    +0.331 C 
BRANCH  32   5
ATOM      5  O   UNL     1      -9.166 -10.330  20.205  0.00  0.00    -0.479 OA
ATOM     36  H   UNL     1      -8.734 -10.495  21.071  0.00  0.00    +0.295 HD
ENDBRANCH  32   5
ENDBRANCH  28  32
ENDBRANCH   3  28
ENDBRANCH  24   3
ENDBRANCH  22  24
ENDBRANCH  16   7
ENDBRANCH  10  16
BRANCH  12  17
ATOM     17  C   UNL     1      -2.776 -10.739  16.175  0.00  0.00    +0.103 C 
BRANCH  17  21
ATOM      1  O   UNL     1      -1.220 -11.975  14.796  0.00  0.00    -0.276 OA
ATOM      8  N   UNL     1      -2.214 -10.050  13.956  0.00  0.00    -0.311 N 
ATOM     21  C   UNL     1      -1.976 -11.016  14.922  0.00  0.00    +0.214 C 
ATOM     35  H   UNL     1      -2.862  -9.292  14.154  0.00  0.00    +0.149 HD
BRANCH   8  23
ATOM     23  C   UNL     1      -1.581 -10.061  12.657  0.00  0.00    +0.139 C 
BRANCH  23  25
ATOM     25  C   UNL     1      -2.573 -10.283  11.552  0.00  0.00    -0.030 A 
ATOM     26  C   UNL     1      -2.809  -9.277  10.614  0.00  0.00    +0.009 A 
ATOM     27  C   UNL     1      -3.260 -11.494  11.463  0.00  0.00    +0.009 A 
ATOM     29  C   UNL     1      -3.732  -9.482   9.588  0.00  0.00    +0.046 A 
ATOM     30  C   UNL     1      -4.183 -11.699  10.438  0.00  0.00    +0.046 A 
ATOM     31  C   UNL     1      -4.419 -10.693   9.499  0.00  0.00    +0.120 A 
BRANCH  31   4
ATOM      4  O   UNL     1      -5.318 -10.893   8.499  0.00  0.00    -0.495 OA
ATOM     33  C   UNL     1      -5.420  -9.877   7.503  0.00  0.00    +0.277 C 
ENDBRANCH  31   4
ENDBRANCH  23  25
ENDBRANCH   8  23
ENDBRANCH  17  21
ENDBRANCH  12  17
TORSDOF 13
ENDMDL
MODEL 2
REMARK VINA RESULT:      -5.9      1.577      2.587
REMARK  Name = 38027879
REMARK  17 active torsions:
REMARK  status: ('A' for Active; 'I' for Inactive)
REMARK    1  A    between atoms: O_3  and  C_24
REMARK    2  A    between atoms: O_3  and  C_28
REMARK    3  A    between atoms: O_4  and  C_31
REMARK    4  A    between atoms: O_4  and  C_33
REMARK    5  A    between atoms: O_5  and  C_32
REMARK    6  A    between atoms: N_7  and  C_16
REMARK    7  A    between atoms: N_8  and  C_23
REMARK    8  A    between atoms: C_9  and  C_13
REMARK    9  A    between atoms: C_10  and  C_16
REMARK   10  A    between atoms: C_12  and  C_17
REMARK   11  A    between atoms: C_13  and  C_18
REMARK   12  A    between atoms: C_13  and  C_19
REMARK   13  A    between atoms: C_14  and  C_20
REMARK   14  A    between atoms: C_17  and  C_21
REMARK   15  A    between atoms: C_22  and  C_24
REMARK   16  A    between atoms: C_23  and  C_25
REMARK   17  A    between atoms: C_28  and  C_32
REMARK                            x       y       z     vdW  Elec       q    Type
REMARK                         _______ _______ _______ _____ _____    ______ ____
ROOT
ATOM      9  C   UNL     1      -5.883 -10.423  15.422  0.00  0.00    +0.000 C 
ATOM     10  C   UNL     1      -6.673 -10.521  16.751  0.00  0.00    +0.032 C 
ATOM     11  C   UNL     1      -4.927 -11.617  15.278  0.00  0.00    +0.012 C 
ATOM     12  C   UNL     1      -3.919 -11.697  16.440  0.00  0.00    +0.023 C 
ATOM     14  C   UNL     1      -4.596 -11.531  17.786  0.00  0.00    -0.073 C 
ATOM     15  C   UNL     1      -5.832 -11.015  17.903  0.00  0.00    -0.022 C 
ATOM     20  C   UNL     1      -3.836 -12.013  18.990  0.00  0.00    +0.039 C 
ENDROOT
BRANCH   9  13
ATOM     13  C   UNL     1      -6.817 -10.358  14.209  0.00  0.00    -0.013 C 
ATOM     18  C   UNL     1      -6.020 -10.089  12.937  0.00  0.00    +0.007 C 
ATOM     19  C   UNL     1      -7.617 -11.651  14.084  0.00  0.00    +0.007 C 
ENDBRANCH   9  13
BRANCH  10  16
ATOM     16  C   UNL     1      -7.303  -9.172  17.120  0.00  0.00    +0.112 C 
BRANCH  16   7
ATOM      2  O   UNL     1      -9.458  -8.466  15.325  0.00  0.00    -0.273 OA
ATOM      7  N   UNL     1      -8.705  -9.315  17.357  0.00  0.00    -0.313 N 
ATOM     22  C   UNL     1      -9.682  -8.946  16.433  0.00  0.00    +0.239 C 
ATOM     34  H   UNL     1      -9.002  -9.756  18.222  0.00  0.00    +0.149 HD
BRANCH  22  24
ATOM     24  C   UNL     1     -11.082  -9.207  16.944  0.00  0.00    +0.256 C 
BRANCH  24   3
ATOM      3  O   UNL     1     -11.761  -7.992  17.183  0.00  0.00    -0.359 OA
BRANCH   3  28
ATOM     28  C   UNL     1     -12.542  -7.590  16.062  0.00  0.00    +0.280 C 
BRANCH  28  32
ATOM      6  O   UNL     1     -12.762  -5.496  14.850  0.00  0.00    -0.248 OA
ATOM     32  C   UNL     1     -12.160  -6.196  15.651  0.00  0.00    +0.331 C 
BRANCH  32   5
ATOM      5  O   UNL     1     -11.033  -5.807  16.299  0.00  0.00    -0.479 OA
ATOM     36  H   UNL     1     -10.871  -4.844  16.207  0.00  0.00    +0.295 HD
ENDBRANCH  32   5
ENDBRANCH  28  32
ENDBRANCH   3  28
ENDBRANCH  24   3
ENDBRANCH  22  24
ENDBRANCH  16   7
ENDBRANCH  10  16
BRANCH  12  17
ATOM     17  C   UNL     1      -2.790 -10.676  16.264  0.00  0.00    +0.103 C 
BRANCH  17  21
ATOM      1  O   UNL     1      -1.139 -11.905  14.992  0.00  0.00    -0.276 OA
ATOM      8  N   UNL     1      -2.181 -10.062  14.035  0.00  0.00    -0.311 N 
ATOM     21  C   UNL     1      -1.937 -10.974  15.051  0.00  0.00    +0.214 C 
ATOM     35  H   UNL     1      -2.866  -9.324  14.178  0.00  0.00    +0.149 HD
BRANCH   8  23
ATOM     23  C   UNL     1      -1.506 -10.104  12.758  0.00  0.00    +0.139 C 
BRANCH  23  25
ATOM     25  C   UNL     1      -2.456 -10.383  11.630  0.00  0.00    -0.030 A 
ATOM     26  C   UNL     1      -3.009 -11.656  11.484  0.00  0.00    +0.009 A 
ATOM     27  C   UNL     1      -2.786  -9.372  10.728  0.00  0.00    +0.009 A 
ATOM     29  C   UNL     1      -3.891 -11.917  10.435  0.00  0.00    +0.046 A 
ATOM     30  C   UNL     1      -3.667  -9.633   9.679  0.00  0.00    +0.046 A 
ATOM     31  C   UNL     1      -4.221 -10.906   9.532  0.00  0.00    +0.120 A 
BRANCH  31   4
ATOM      4  O   UNL     1      -5.081 -11.161   8.509  0.00  0.00    -0.495 OA
ATOM     33  C   UNL     1      -5.478 -10.052   7.703  0.00  0.00    +0.277 C 
ENDBRANCH  31   4
ENDBRANCH  23  25
ENDBRANCH   8  23
ENDBRANCH  17  21
ENDBRANCH  12  17
TORSDOF 13
ENDMDL
MODEL 3
REMARK VINA RESULT:      -5.8     20.056     23.969
REMARK  Name = 38027879
REMARK  17 active torsions:
REMARK  status: ('A' for Active; 'I' for Inactive)
REMARK    1  A    between atoms: O_3  and  C_24
REMARK    2  A    between atoms: O_3  and  C_28
REMARK    3  A    between atoms: O_4  and  C_31
REMARK    4  A    between atoms: O_4  and  C_33
REMARK    5  A    between atoms: O_5  and  C_32
REMARK    6  A    between atoms: N_7  and  C_16
REMARK    7  A    between atoms: N_8  and  C_23
REMARK    8  A    between atoms: C_9  and  C_13
REMARK    9  A    between atoms: C_10  and  C_16
REMARK   10  A    between atoms: C_12  and  C_17
REMARK   11  A    between atoms: C_13  and  C_18
REMARK   12  A    between atoms: C_13  and  C_19
REMARK   13  A    between atoms: C_14  and  C_20
REMARK   14  A    between atoms: C_17  and  C_21
REMARK   15  A    between atoms: C_22  and  C_24
REMARK   16  A    between atoms: C_23  and  C_25
REMARK   17  A    between atoms: C_28  and  C_32
REMARK                            x       y       z     vdW  Elec       q    Type
REMARK                         _______ _______ _______ _____ _____    ______ ____
ROOT
ATOM      9  C   UNL     1     -14.386   6.483  32.869  0.00  0.00    +0.000 C 
ATOM     10  C   UNL     1     -15.116   5.846  34.078  0.00  0.00    +0.032 C 
ATOM     11  C   UNL     1     -15.376   7.278  32.005  0.00  0.00    +0.012 C 
ATOM     12  C   UNL     1     -16.523   6.398  31.474  0.00  0.00    +0.023 C 
ATOM     14  C   UNL     1     -17.121   5.533  32.565  0.00  0.00    -0.073 C 
ATOM     15  C   UNL     1     -16.483   5.309  33.728  0.00  0.00    -0.022 C 
ATOM     20  C   UNL     1     -18.491   4.970  32.308  0.00  0.00    +0.039 C 
ENDROOT
BRANCH   9  13
ATOM     13  C   UNL     1     -13.237   7.393  33.314  0.00  0.00    -0.013 C 
ATOM     18  C   UNL     1     -12.622   8.101  32.111  0.00  0.00    +0.007 C 
ATOM     19  C   UNL     1     -13.730   8.406  34.343  0.00  0.00    +0.007 C 
ENDBRANCH   9  13
BRANCH  10  16
ATOM     16  C   UNL     1     -14.274   4.728  34.706  0.00  0.00    +0.112 C 
BRANCH  16   7
ATOM      2  O   UNL     1     -13.240   3.107  32.545  0.00  0.00    -0.273 OA
ATOM      7  N   UNL     1     -14.744   3.444  34.290  0.00  0.00    -0.313 N 
ATOM     22  C   UNL     1     -14.185   2.728  33.231  0.00  0.00    +0.239 C 
ATOM     34  H   UNL     1     -15.488   3.009  34.827  0.00  0.00    +0.149 HD
BRANCH  22  24
ATOM     24  C   UNL     1     -14.877   1.400  33.010  0.00  0.00    +0.256 C 
BRANCH  24   3
ATOM      3  O   UNL     1     -14.365   0.756  31.862  0.00  0.00    -0.359 OA
BRANCH   3  28
ATOM     28  C   UNL     1     -15.229   0.904  30.740  0.00  0.00    +0.280 C 
BRANCH  28  32
ATOM      6  O   UNL     1     -15.172   2.461  28.876  0.00  0.00    -0.248 OA
ATOM     32  C   UNL     1     -14.585   1.796  29.716  0.00  0.00    +0.331 C 
BRANCH  32   5
ATOM      5  O   UNL     1     -13.235   1.764  29.848  0.00  0.00    -0.479 OA
ATOM     36  H   UNL     1     -12.825   2.630  29.637  0.00  0.00    +0.295 HD
ENDBRANCH  32   5
ENDBRANCH  28  32
ENDBRANCH   3  28
ENDBRANCH  24   3
ENDBRANCH  22  24
ENDBRANCH  16   7
ENDBRANCH  10  16
BRANCH  12  17
ATOM     17  C   UNL     1     -16.060   5.543  30.289  0.00  0.00    +0.103 C 
BRANCH  17  21
ATOM      1  O   UNL     1     -17.204   6.915  28.657  0.00  0.00    -0.276 OA
ATOM      8  N   UNL     1     -17.232   4.602  28.429  0.00  0.00    -0.311 N 
ATOM     21  C   UNL     1     -16.888   5.795  29.048  0.00  0.00    +0.214 C 
ATOM     35  H   UNL     1     -16.920   3.722  28.829  0.00  0.00    +0.149 HD
BRANCH   8  23
ATOM     23  C   UNL     1     -18.024   4.540  27.222  0.00  0.00    +0.139 C 
BRANCH  23  25
ATOM     25  C   UNL     1     -17.166   4.494  25.990  0.00  0.00    -0.030 A 
ATOM     26  C   UNL     1     -17.220   5.535  25.064  0.00  0.00    +0.009 A 
ATOM     27  C   UNL     1     -16.316   3.410  25.772  0.00  0.00    +0.009 A 
ATOM     29  C   UNL     1     -16.425   5.492  23.919  0.00  0.00    +0.046 A 
ATOM     30  C   UNL     1     -15.521   3.366  24.627  0.00  0.00    +0.046 A 
ATOM     31  C   UNL     1     -15.575   4.408  23.700  0.00  0.00    +0.120 A 
BRANCH  31   4
ATOM      4  O   UNL     1     -14.799   4.366  22.583  0.00  0.00    -0.495 OA
ATOM     33  C   UNL     1     -14.381   5.615  22.035  0.00  0.00    +0.277 C 
ENDBRANCH  31   4
ENDBRANCH  23  25
ENDBRANCH   8  23
ENDBRANCH  17  21
ENDBRANCH  12  17
TORSDOF 13
ENDMDL
MODEL 4
REMARK VINA RESULT:      -5.7     24.055     27.854
REMARK  Name = 38027879
REMARK  17 active torsions:
REMARK  status: ('A' for Active; 'I' for Inactive)
REMARK    1  A    between atoms: O_3  and  C_24
REMARK    2  A    between atoms: O_3  and  C_28
REMARK    3  A    between atoms: O_4  and  C_31
REMARK    4  A    between atoms: O_4  and  C_33
REMARK    5  A    between atoms: O_5  and  C_32
REMARK    6  A    between atoms: N_7  and  C_16
REMARK    7  A    between atoms: N_8  and  C_23
REMARK    8  A    between atoms: C_9  and  C_13
REMARK    9  A    between atoms: C_10  and  C_16
REMARK   10  A    between atoms: C_12  and  C_17
REMARK   11  A    between atoms: C_13  and  C_18
REMARK   12  A    between atoms: C_13  and  C_19
REMARK   13  A    between atoms: C_14  and  C_20
REMARK   14  A    between atoms: C_17  and  C_21
REMARK   15  A    between atoms: C_22  and  C_24
REMARK   16  A    between atoms: C_23  and  C_25
REMARK   17  A    between atoms: C_28  and  C_32
REMARK                            x       y       z     vdW  Elec       q    Type
REMARK                         _______ _______ _______ _____ _____    ______ ____
ROOT
ATOM      9  C   UNL     1      12.376   7.714   2.292  0.00  0.00    +0.000 C 
ATOM     10  C   UNL     1      11.902   8.974   3.059  0.00  0.00    +0.032 C 
ATOM     11  C   UNL     1      11.226   7.130   1.458  0.00  0.00    +0.012 C 
ATOM     12  C   UNL     1      10.014   6.745   2.328  0.00  0.00    +0.023 C 
ATOM     14  C   UNL     1       9.650   7.844   3.306  0.00  0.00    -0.073 C 
ATOM     15  C   UNL     1      10.503   8.839   3.610  0.00  0.00    -0.022 C 
ATOM     20  C   UNL     1       8.267   7.798   3.892  0.00  0.00    +0.039 C 
ENDROOT
BRANCH   9  13
ATOM     13  C   UNL     1      13.573   8.017   1.385  0.00  0.00    -0.013 C 
ATOM     18  C   UNL     1      14.841   7.380   1.945  0.00  0.00    +0.007 C 
ATOM     19  C   UNL     1      13.302   7.525  -0.034  0.00  0.00    +0.007 C 
ENDBRANCH   9  13
BRANCH  10  16
ATOM     16  C   UNL     1      12.868   9.323   4.198  0.00  0.00    +0.112 C 
BRANCH  16   7
ATOM      2  O   UNL     1      14.356   7.119   5.336  0.00  0.00    -0.273 OA
ATOM      7  N   UNL     1      12.548   8.586   5.379  0.00  0.00    -0.313 N 
ATOM     22  C   UNL     1      13.323   7.531   5.860  0.00  0.00    +0.239 C 
ATOM     34  H   UNL     1      11.744   8.880   5.925  0.00  0.00    +0.149 HD
BRANCH  22  24
ATOM     24  C   UNL     1      12.753   6.931   7.127  0.00  0.00    +0.256 C 
BRANCH  24   3
ATOM      3  O   UNL     1      11.353   7.108   7.177  0.00  0.00    -0.359 OA
BRANCH   3  28
ATOM     28  C   UNL     1      10.654   5.928   6.794  0.00  0.00    +0.280 C 
BRANCH  28  32
ATOM      6  O   UNL     1       9.323   5.782   8.821  0.00  0.00    -0.248 OA
ATOM     32  C   UNL     1      10.074   5.262   8.010  0.00  0.00    +0.331 C 
BRANCH  32   5
ATOM      5  O   UNL     1      10.506   3.978   8.092  0.00  0.00    -0.479 OA
ATOM     36  H   UNL     1      10.779   3.626   7.218  0.00  0.00    +0.295 HD
ENDBRANCH  32   5
ENDBRANCH  28  32
ENDBRANCH   3  28
ENDBRANCH  24   3
ENDBRANCH  22  24
ENDBRANCH  16   7
ENDBRANCH  10  16
BRANCH  12  17
ATOM     17  C   UNL     1      10.256   5.419   3.058  0.00  0.00    +0.103 C 
BRANCH  17  21
ATOM      1  O   UNL     1      10.031   3.884   1.201  0.00  0.00    -0.276 OA
ATOM      8  N   UNL     1      12.002   3.910   2.433  0.00  0.00    -0.311 N 
ATOM     21  C   UNL     1      10.717   4.328   2.117  0.00  0.00    +0.214 C 
ATOM     35  H   UNL     1      12.492   4.342   3.211  0.00  0.00    +0.149 HD
BRANCH   8  23
ATOM     23  C   UNL     1      12.696   2.875   1.701  0.00  0.00    +0.139 C 
BRANCH  23  25
ATOM     25  C   UNL     1      13.665   3.446   0.706  0.00  0.00    -0.030 A 
ATOM     26  C   UNL     1      13.263   3.667  -0.611  0.00  0.00    +0.009 A 
ATOM     27  C   UNL     1      14.968   3.755   1.098  0.00  0.00    +0.009 A 
ATOM     29  C   UNL     1      14.163   4.196  -1.536  0.00  0.00    +0.046 A 
ATOM     30  C   UNL     1      15.868   4.283   0.174  0.00  0.00    +0.046 A 
ATOM     31  C   UNL     1      15.466   4.505  -1.144  0.00  0.00    +0.120 A 
BRANCH  31   4
ATOM      4  O   UNL     1      16.344   5.021  -2.046  0.00  0.00    -0.495 OA
ATOM     33  C   UNL     1      17.679   4.519  -2.012  0.00  0.00    +0.277 C 
ENDBRANCH  31   4
ENDBRANCH  23  25
ENDBRANCH   8  23
ENDBRANCH  17  21
ENDBRANCH  12  17
TORSDOF 13
ENDMDL
MODEL 5
REMARK VINA RESULT:      -5.6     27.945     31.436
REMARK  Name = 38027879
REMARK  17 active torsions:
REMARK  status: ('A' for Active; 'I' for Inactive)
REMARK    1  A    between atoms: O_3  and  C_24
REMARK    2  A    between atoms: O_3  and  C_28
REMARK    3  A    between atoms: O_4  and  C_31
REMARK    4  A    between atoms: O_4  and  C_33
REMARK    5  A    between atoms: O_5  and  C_32
REMARK    6  A    between atoms: N_7  and  C_16
REMARK    7  A    between atoms: N_8  and  C_23
REMARK    8  A    between atoms: C_9  and  C_13
REMARK    9  A    between atoms: C_10  and  C_16
REMARK   10  A    between atoms: C_12  and  C_17
REMARK   11  A    between atoms: C_13  and  C_18
REMARK   12  A    between atoms: C_13  and  C_19
REMARK   13  A    between atoms: C_14  and  C_20
REMARK   14  A    between atoms: C_17  and  C_21
REMARK   15  A    between atoms: C_22  and  C_24
REMARK   16  A    between atoms: C_23  and  C_25
REMARK   17  A    between atoms: C_28  and  C_32
REMARK                            x       y       z     vdW  Elec       q    Type
REMARK                         _______ _______ _______ _____ _____    ______ ____
ROOT
ATOM      9  C   UNL     1      17.478   7.685  21.263  0.00  0.00    +0.000 C 
ATOM     10  C   UNL     1      19.025   7.626  21.189  0.00  0.00    +0.032 C 
ATOM     11  C   UNL     1      16.951   8.905  20.493  0.00  0.00    +0.012 C 
ATOM     12  C   UNL     1      17.516  10.229  21.042  0.00  0.00    +0.023 C 
ATOM     14  C   UNL     1      19.016  10.157  21.252  0.00  0.00    -0.073 C 
ATOM     15  C   UNL     1      19.674   8.985  21.301  0.00  0.00    -0.022 C 
ATOM     20  C   UNL     1      19.748  11.465  21.358  0.00  0.00    +0.039 C 
ENDROOT
BRANCH   9  13
ATOM     13  C   UNL     1      16.834   6.408  20.715  0.00  0.00    -0.013 C 
ATOM     18  C   UNL     1      15.320   6.569  20.630  0.00  0.00    +0.007 C 
ATOM     19  C   UNL     1      17.419   6.061  19.350  0.00  0.00    +0.007 C 
ENDBRANCH   9  13
BRANCH  10  16
ATOM     16  C   UNL     1      19.595   6.697  22.268  0.00  0.00    +0.112 C 
BRANCH  16   7
ATOM      2  O   UNL     1      22.484   6.567  22.246  0.00  0.00    -0.273 OA
ATOM      7  N   UNL     1      20.408   5.678  21.682  0.00  0.00    -0.313 N 
ATOM     22  C   UNL     1      21.802   5.694  21.716  0.00  0.00    +0.239 C 
ATOM     34  H   UNL     1      19.945   4.876  21.265  0.00  0.00    +0.149 HD
BRANCH  22  24
ATOM     24  C   UNL     1      22.406   4.493  21.020  0.00  0.00    +0.256 C 
BRANCH  24   3
ATOM      3  O   UNL     1      23.379   4.898  20.080  0.00  0.00    -0.359 OA
BRANCH   3  28
ATOM     28  C   UNL     1      24.677   4.421  20.420  0.00  0.00    +0.280 C 
BRANCH  28  32
ATOM      6  O   UNL     1      25.164   2.053  20.659  0.00  0.00    -0.248 OA
ATOM     32  C   UNL     1      24.833   2.998  19.960  0.00  0.00    +0.331 C 
BRANCH  32   5
ATOM      5  O   UNL     1      24.552   2.900  18.636  0.00  0.00    -0.479 OA
ATOM     36  H   UNL     1      25.347   3.044  18.080  0.00  0.00    +0.295 HD
ENDBRANCH  32   5
ENDBRANCH  28  32
ENDBRANCH   3  28
ENDBRANCH  24   3
ENDBRANCH  22  24
ENDBRANCH  16   7
ENDBRANCH  10  16
BRANCH  12  17
ATOM     17  C   UNL     1      16.801  10.641  22.334  0.00  0.00    +0.103 C 
BRANCH  17  21
ATOM      1  O   UNL     1      14.775   9.392  22.766  0.00  0.00    -0.276 OA
ATOM      8  N   UNL     1      14.659  11.388  21.580  0.00  0.00    -0.311 N 
ATOM     21  C   UNL     1      15.313  10.377  22.269  0.00  0.00    +0.214 C 
ATOM     35  H   UNL     1      15.193  12.167  21.207  0.00  0.00    +0.149 HD
BRANCH   8  23
ATOM     23  C   UNL     1      13.230  11.396  21.362  0.00  0.00    +0.139 C 
BRANCH  23  25
ATOM     25  C   UNL     1      12.839  10.555  20.181  0.00  0.00    -0.030 A 
ATOM     26  C   UNL     1      11.873   9.559  20.325  0.00  0.00    +0.009 A 
ATOM     27  C   UNL     1      13.440  10.769  18.941  0.00  0.00    +0.009 A 
ATOM     29  C   UNL     1      11.510   8.776  19.228  0.00  0.00    +0.046 A 
ATOM     30  C   UNL     1      13.078   9.987  17.846  0.00  0.00    +0.046 A 
ATOM     31  C   UNL     1      12.111   8.990  17.989  0.00  0.00    +0.120 A 
BRANCH  31   4
ATOM      4  O   UNL     1      11.757   8.227  16.919  0.00  0.00    -0.495 OA
ATOM     33  C   UNL     1      10.480   8.479  16.336  0.00  0.00    +0.277 C 
ENDBRANCH  31   4
ENDBRANCH  23  25
ENDBRANCH   8  23
ENDBRANCH  17  21
ENDBRANCH  12  17
TORSDOF 13
ENDMDL
MODEL 6
REMARK VINA RESULT:      -5.6      4.320      8.658
REMARK  Name = 38027879
REMARK  17 active torsions:
REMARK  status: ('A' for Active; 'I' for Inactive)
REMARK    1  A    between atoms: O_3  and  C_24
REMARK    2  A    between atoms: O_3  and  C_28
REMARK    3  A    between atoms: O_4  and  C_31
REMARK    4  A    between atoms: O_4  and  C_33
REMARK    5  A    between atoms: O_5  and  C_32
REMARK    6  A    between atoms: N_7  and  C_16
REMARK    7  A    between atoms: N_8  and  C_23
REMARK    8  A    between atoms: C_9  and  C_13
REMARK    9  A    between atoms: C_10  and  C_16
REMARK   10  A    between atoms: C_12  and  C_17
REMARK   11  A    between atoms: C_13  and  C_18
REMARK   12  A    between atoms: C_13  and  C_19
REMARK   13  A    between atoms: C_14  and  C_20
REMARK   14  A    between atoms: C_17  and  C_21
REMARK   15  A    between atoms: C_22  and  C_24
REMARK   16  A    between atoms: C_23  and  C_25
REMARK   17  A    between atoms: C_28  and  C_32
REMARK                            x       y       z     vdW  Elec       q    Type
REMARK                         _______ _______ _______ _____ _____    ______ ____
ROOT
ATOM      9  C   UNL     1      -5.425 -10.161   7.221  0.00  0.00    +0.000 C 
ATOM     10  C   UNL     1      -6.843  -9.644   7.571  0.00  0.00    +0.032 C 
ATOM     11  C   UNL     1      -4.836 -10.949   8.401  0.00  0.00    +0.012 C 
ATOM     12  C   UNL     1      -4.742 -10.097   9.681  0.00  0.00    +0.023 C 
ATOM     14  C   UNL     1      -6.027  -9.339   9.948  0.00  0.00    -0.073 C 
ATOM     15  C   UNL     1      -6.960  -9.158   8.996  0.00  0.00    -0.022 C 
ATOM     20  C   UNL     1      -6.235  -8.832  11.347  0.00  0.00    +0.039 C 
ENDROOT
BRANCH   9  13
ATOM     13  C   UNL     1      -5.434 -11.038   5.964  0.00  0.00    -0.013 C 
ATOM     18  C   UNL     1      -4.106 -11.774   5.819  0.00  0.00    +0.007 C 
ATOM     19  C   UNL     1      -6.597 -12.024   6.013  0.00  0.00    +0.007 C 
ENDBRANCH   9  13
BRANCH  10  16
ATOM     16  C   UNL     1      -7.276  -8.528   6.613  0.00  0.00    +0.112 C 
BRANCH  16   7
ATOM      2  O   UNL     1      -9.336  -7.175   5.099  0.00  0.00    -0.273 OA
ATOM      7  N   UNL     1      -8.407  -7.824   7.132  0.00  0.00    -0.313 N 
ATOM     22  C   UNL     1      -9.356  -7.196   6.327  0.00  0.00    +0.239 C 
ATOM     34  H   UNL     1      -8.553  -7.827   8.137  0.00  0.00    +0.149 HD
BRANCH  22  24
ATOM     24  C   UNL     1     -10.445  -6.528   7.139  0.00  0.00    +0.256 C 
BRANCH  24   3
ATOM      3  O   UNL     1      -9.905  -5.518   7.964  0.00  0.00    -0.359 OA
BRANCH   3  28
ATOM     28  C   UNL     1     -10.683  -5.319   9.140  0.00  0.00    +0.280 C 
BRANCH  28  32
ATOM      6  O   UNL     1     -12.626  -3.905   8.785  0.00  0.00    -0.248 OA
ATOM     32  C   UNL     1     -11.436  -4.023   9.038  0.00  0.00    +0.331 C 
BRANCH  32   5
ATOM      5  O   UNL     1     -10.603  -2.976   9.269  0.00  0.00    -0.479 OA
ATOM     36  H   UNL     1     -10.267  -2.585   8.434  0.00  0.00    +0.295 HD
ENDBRANCH  32   5
ENDBRANCH  28  32
ENDBRANCH   3  28
ENDBRANCH  24   3
ENDBRANCH  22  24
ENDBRANCH  16   7
ENDBRANCH  10  16
BRANCH  12  17
ATOM     17  C   UNL     1      -3.544  -9.143   9.623  0.00  0.00    +0.103 C 
BRANCH  17  21
ATOM      1  O   UNL     1      -1.401  -8.931  10.725  0.00  0.00    -0.276 OA
ATOM      8  N   UNL     1      -2.940 -10.489  11.504  0.00  0.00    -0.311 N 
ATOM     21  C   UNL     1      -2.496  -9.483  10.658  0.00  0.00    +0.214 C 
ATOM     35  H   UNL     1      -3.867 -10.883  11.369  0.00  0.00    +0.149 HD
BRANCH   8  23
ATOM     23  C   UNL     1      -2.143 -11.017  12.587  0.00  0.00    +0.139 C 
BRANCH  23  25
ATOM     25  C   UNL     1      -2.821 -10.846  13.916  0.00  0.00    -0.030 A 
ATOM     26  C   UNL     1      -4.204 -10.665  13.975  0.00  0.00    +0.009 A 
ATOM     27  C   UNL     1      -2.070 -10.866  15.091  0.00  0.00    +0.009 A 
ATOM     29  C   UNL     1      -4.834 -10.505  15.209  0.00  0.00    +0.046 A 
ATOM     30  C   UNL     1      -2.700 -10.705  16.325  0.00  0.00    +0.046 A 
ATOM     31  C   UNL     1      -4.083 -10.525  16.384  0.00  0.00    +0.120 A 
BRANCH  31   4
ATOM      4  O   UNL     1      -4.698 -10.368  17.588  0.00  0.00    -0.495 OA
ATOM     33  C   UNL     1      -4.629 -11.464  18.500  0.00  0.00    +0.277 C 
ENDBRANCH  31   4
ENDBRANCH  23  25
ENDBRANCH   8  23
ENDBRANCH  17  21
ENDBRANCH  12  17
TORSDOF 13
ENDMDL
MODEL 7
REMARK VINA RESULT:      -5.6     27.363     30.511
REMARK  Name = 38027879
REMARK  17 active torsions:
REMARK  status: ('A' for Active; 'I' for Inactive)
REMARK    1  A    between atoms: O_3  and  C_24
REMARK    2  A    between atoms: O_3  and  C_28
REMARK    3  A    between atoms: O_4  and  C_31
REMARK    4  A    between atoms: O_4  and  C_33
REMARK    5  A    between atoms: O_5  and  C_32
REMARK    6  A    between atoms: N_7  and  C_16
REMARK    7  A    between atoms: N_8  and  C_23
REMARK    8  A    between atoms: C_9  and  C_13
REMARK    9  A    between atoms: C_10  and  C_16
REMARK   10  A    between atoms: C_12  and  C_17
REMARK   11  A    between atoms: C_13  and  C_18
REMARK   12  A    between atoms: C_13  and  C_19
REMARK   13  A    between atoms: C_14  and  C_20
REMARK   14  A    between atoms: C_17  and  C_21
REMARK   15  A    between atoms: C_22  and  C_24
REMARK   16  A    between atoms: C_23  and  C_25
REMARK   17  A    between atoms: C_28  and  C_32
REMARK                            x       y       z     vdW  Elec       q    Type
REMARK                         _______ _______ _______ _____ _____    ______ ____
ROOT
ATOM      9  C   UNL     1      14.207   8.085  20.063  0.00  0.00    +0.000 C 
ATOM     10  C   UNL     1      12.718   8.115  19.635  0.00  0.00    +0.032 C 
ATOM     11  C   UNL     1      14.360   8.596  21.504  0.00  0.00    +0.012 C 
ATOM     12  C   UNL     1      13.833  10.034  21.671  0.00  0.00    +0.023 C 
ATOM     14  C   UNL     1      12.470  10.212  21.032  0.00  0.00    -0.073 C 
ATOM     15  C   UNL     1      11.984   9.336  20.134  0.00  0.00    -0.022 C 
ATOM     20  C   UNL     1      11.660  11.395  21.483  0.00  0.00    +0.039 C 
ENDROOT
BRANCH   9  13
ATOM     13  C   UNL     1      14.805   6.680  19.944  0.00  0.00    -0.013 C 
ATOM     18  C   UNL     1      15.892   6.653  18.875  0.00  0.00    +0.007 C 
ATOM     19  C   UNL     1      15.358   6.222  21.290  0.00  0.00    +0.007 C 
ENDBRANCH   9  13
BRANCH  10  16
ATOM     16  C   UNL     1      12.579   8.022  18.111  0.00  0.00    +0.112 C 
BRANCH  16   7
ATOM      2  O   UNL     1      12.345   8.853  15.350  0.00  0.00    -0.273 OA
ATOM      7  N   UNL     1      13.273   9.095  17.472  0.00  0.00    -0.313 N 
ATOM     22  C   UNL     1      13.101   9.429  16.129  0.00  0.00    +0.239 C 
ATOM     34  H   UNL     1      13.882   9.677  18.039  0.00  0.00    +0.149 HD
BRANCH  22  24
ATOM     24  C   UNL     1      13.958  10.606  15.716  0.00  0.00    +0.256 C 
BRANCH  24   3
ATOM      3  O   UNL     1      13.653  11.009  14.398  0.00  0.00    -0.359 OA
BRANCH   3  28
ATOM     28  C   UNL     1      14.429  12.131  13.991  0.00  0.00    +0.280 C 
BRANCH  28  32
ATOM      6  O   UNL     1      16.847  11.931  14.088  0.00  0.00    -0.248 OA
ATOM     32  C   UNL     1      15.787  11.675  13.539  0.00  0.00    +0.331 C 
BRANCH  32   5
ATOM      5  O   UNL     1      15.679  10.923  12.414  0.00  0.00    -0.479 OA
ATOM     36  H   UNL     1      16.351  10.209  12.384  0.00  0.00    +0.295 HD
ENDBRANCH  32   5
ENDBRANCH  28  32
ENDBRANCH   3  28
ENDBRANCH  24   3
ENDBRANCH  22  24
ENDBRANCH  16   7
ENDBRANCH  10  16
BRANCH  12  17
ATOM     17  C   UNL     1      14.833  11.057  21.123  0.00  0.00    +0.103 C 
BRANCH  17  21
ATOM      1  O   UNL     1      16.149  11.512  23.101  0.00  0.00    -0.276 OA
ATOM      8  N   UNL     1      17.186  10.638  21.214  0.00  0.00    -0.311 N 
ATOM     21  C   UNL     1      16.103  11.106  21.944  0.00  0.00    +0.214 C 
ATOM     35  H   UNL     1      17.046  10.320  20.259  0.00  0.00    +0.149 HD
BRANCH   8  23
ATOM     23  C   UNL     1      18.527  10.573  21.747  0.00  0.00    +0.139 C 
BRANCH  23  25
ATOM     25  C   UNL     1      19.198   9.270  21.420  0.00  0.00    -0.030 A 
ATOM     26  C   UNL     1      20.585   9.215  21.283  0.00  0.00    +0.009 A 
ATOM     27  C   UNL     1      18.435   8.114  21.254  0.00  0.00    +0.009 A 
ATOM     29  C   UNL     1      21.209   8.005  20.978  0.00  0.00    +0.046 A 
ATOM     30  C   UNL     1      19.058   6.905  20.949  0.00  0.00    +0.046 A 
ATOM     31  C   UNL     1      20.446   6.849  20.812  0.00  0.00    +0.120 A 
BRANCH  31   4
ATOM      4  O   UNL     1      21.054   5.669  20.515  0.00  0.00    -0.495 OA
ATOM     33  C   UNL     1      21.456   4.851  21.612  0.00  0.00    +0.277 C 
ENDBRANCH  31   4
ENDBRANCH  23  25
ENDBRANCH   8  23
ENDBRANCH  17  21
ENDBRANCH  12  17
TORSDOF 13
ENDMDL
MODEL 8
REMARK VINA RESULT:      -5.4     28.034     31.440
REMARK  Name = 38027879
REMARK  17 active torsions:
REMARK  status: ('A' for Active; 'I' for Inactive)
REMARK    1  A    between atoms: O_3  and  C_24
REMARK    2  A    between atoms: O_3  and  C_28
REMARK    3  A    between atoms: O_4  and  C_31
REMARK    4  A    between atoms: O_4  and  C_33
REMARK    5  A    between atoms: O_5  and  C_32
REMARK    6  A    between atoms: N_7  and  C_16
REMARK    7  A    between atoms: N_8  and  C_23
REMARK    8  A    between atoms: C_9  and  C_13
REMARK    9  A    between atoms: C_10  and  C_16
REMARK   10  A    between atoms: C_12  and  C_17
REMARK   11  A    between atoms: C_13  and  C_18
REMARK   12  A    between atoms: C_13  and  C_19
REMARK   13  A    between atoms: C_14  and  C_20
REMARK   14  A    between atoms: C_17  and  C_21
REMARK   15  A    between atoms: C_22  and  C_24
REMARK   16  A    between atoms: C_23  and  C_25
REMARK   17  A    between atoms: C_28  and  C_32
REMARK                            x       y       z     vdW  Elec       q    Type
REMARK                         _______ _______ _______ _____ _____    ______ ____
ROOT
ATOM      9  C   UNL     1      16.814   9.024  21.629  0.00  0.00    +0.000 C 
ATOM     10  C   UNL     1      18.287   8.957  21.153  0.00  0.00    +0.032 C 
ATOM     11  C   UNL     1      16.072  10.163  20.914  0.00  0.00    +0.012 C 
ATOM     12  C   UNL     1      16.728  11.534  21.167  0.00  0.00    +0.023 C 
ATOM     14  C   UNL     1      18.231  11.482  20.976  0.00  0.00    -0.073 C 
ATOM     15  C   UNL     1      18.908  10.320  20.960  0.00  0.00    -0.022 C 
ATOM     20  C   UNL     1      18.931  12.794  20.760  0.00  0.00    +0.039 C 
ENDROOT
BRANCH   9  13
ATOM     13  C   UNL     1      16.081   7.699  21.395  0.00  0.00    -0.013 C 
ATOM     18  C   UNL     1      14.699   7.734  22.041  0.00  0.00    +0.007 C 
ATOM     19  C   UNL     1      15.973   7.409  19.901  0.00  0.00    +0.007 C 
ENDBRANCH   9  13
BRANCH  10  16
ATOM     16  C   UNL     1      19.145   8.138  22.124  0.00  0.00    +0.112 C 
BRANCH  16   7
ATOM      2  O   UNL     1      20.554   5.876  23.250  0.00  0.00    -0.273 OA
ATOM      7  N   UNL     1      19.925   7.169  21.419  0.00  0.00    -0.313 N 
ATOM     22  C   UNL     1      20.575   6.105  22.044  0.00  0.00    +0.239 C 
ATOM     34  H   UNL     1      19.964   7.230  20.406  0.00  0.00    +0.149 HD
BRANCH  22  24
ATOM     24  C   UNL     1      21.327   5.236  21.059  0.00  0.00    +0.256 C 
BRANCH  24   3
ATOM      3  O   UNL     1      21.534   3.944  21.590  0.00  0.00    -0.359 OA
BRANCH   3  28
ATOM     28  C   UNL     1      22.906   3.706  21.890  0.00  0.00    +0.280 C 
BRANCH  28  32
ATOM      6  O   UNL     1      24.485   3.846  20.050  0.00  0.00    -0.248 OA
ATOM     32  C   UNL     1      23.621   3.231  20.656  0.00  0.00    +0.331 C 
BRANCH  32   5
ATOM      5  O   UNL     1      23.171   2.002  20.296  0.00  0.00    -0.479 OA
ATOM     36  H   UNL     1      23.605   1.678  19.478  0.00  0.00    +0.295 HD
ENDBRANCH  32   5
ENDBRANCH  28  32
ENDBRANCH   3  28
ENDBRANCH  24   3
ENDBRANCH  22  24
ENDBRANCH  16   7
ENDBRANCH  10  16
BRANCH  12  17
ATOM     17  C   UNL     1      16.369  12.071  22.556  0.00  0.00    +0.103 C 
BRANCH  17  21
ATOM      1  O   UNL     1      14.489  11.263  23.847  0.00  0.00    -0.276 OA
ATOM      8  N   UNL     1      14.106  12.518  21.929  0.00  0.00    -0.311 N 
ATOM     21  C   UNL     1      14.902  11.889  22.875  0.00  0.00    +0.214 C 
ATOM     35  H   UNL     1      14.543  13.015  21.158  0.00  0.00    +0.149 HD
BRANCH   8  23
ATOM     23  C   UNL     1      12.662  12.506  21.980  0.00  0.00    +0.139 C 
BRANCH  23  25
ATOM     25  C   UNL     1      12.102  11.143  21.690  0.00  0.00    -0.030 A 
ATOM     26  C   UNL     1      12.432  10.493  20.500  0.00  0.00    +0.009 A 
ATOM     27  C   UNL     1      11.251  10.528  22.608  0.00  0.00    +0.009 A 
ATOM     29  C   UNL     1      11.910   9.228  20.229  0.00  0.00    +0.046 A 
ATOM     30  C   UNL     1      10.730   9.264  22.337  0.00  0.00    +0.046 A 
ATOM     31  C   UNL     1      11.060   8.613  21.147  0.00  0.00    +0.120 A 
BRANCH  31   4
ATOM      4  O   UNL     1      10.551   7.379  20.883  0.00  0.00    -0.495 OA
ATOM     33  C   UNL     1      11.221   6.262  21.464  0.00  0.00    +0.277 C 
ENDBRANCH  31   4
ENDBRANCH  23  25
ENDBRANCH   8  23
ENDBRANCH  17  21
ENDBRANCH  12  17
TORSDOF 13
ENDMDL
MODEL 9
REMARK VINA RESULT:      -5.4     19.488     23.551
REMARK  Name = 38027879
REMARK  17 active torsions:
REMARK  status: ('A' for Active; 'I' for Inactive)
REMARK    1  A    between atoms: O_3  and  C_24
REMARK    2  A    between atoms: O_3  and  C_28
REMARK    3  A    between atoms: O_4  and  C_31
REMARK    4  A    between atoms: O_4  and  C_33
REMARK    5  A    between atoms: O_5  and  C_32
REMARK    6  A    between atoms: N_7  and  C_16
REMARK    7  A    between atoms: N_8  and  C_23
REMARK    8  A    between atoms: C_9  and  C_13
REMARK    9  A    between atoms: C_10  and  C_16
REMARK   10  A    between atoms: C_12  and  C_17
REMARK   11  A    between atoms: C_13  and  C_18
REMARK   12  A    between atoms: C_13  and  C_19
REMARK   13  A    between atoms: C_14  and  C_20
REMARK   14  A    between atoms: C_17  and  C_21
REMARK   15  A    between atoms: C_22  and  C_24
REMARK   16  A    between atoms: C_23  and  C_25
REMARK   17  A    between atoms: C_28  and  C_32
REMARK                            x       y       z     vdW  Elec       q    Type
REMARK                         _______ _______ _______ _____ _____    ______ ____
ROOT
ATOM      9  C   UNL     1     -12.080  10.180  18.674  0.00  0.00    +0.000 C 
ATOM     10  C   UNL     1     -12.078   8.809  17.953  0.00  0.00    +0.032 C 
ATOM     11  C   UNL     1     -11.306  10.090  19.998  0.00  0.00    +0.012 C 
ATOM     12  C   UNL     1     -11.905   9.037  20.951  0.00  0.00    +0.023 C 
ATOM     14  C   UNL     1     -12.183   7.727  20.239  0.00  0.00    -0.073 C 
ATOM     15  C   UNL     1     -12.243   7.643  18.898  0.00  0.00    -0.022 C 
ATOM     20  C   UNL     1     -12.346   6.509  21.104  0.00  0.00    +0.039 C 
ENDROOT
BRANCH   9  13
ATOM     13  C   UNL     1     -11.480  11.284  17.798  0.00  0.00    -0.013 C 
ATOM     18  C   UNL     1     -11.373  12.588  18.582  0.00  0.00    +0.007 C 
ATOM     19  C   UNL     1     -10.115  10.859  17.267  0.00  0.00    +0.007 C 
ENDBRANCH   9  13
BRANCH  10  16
ATOM     16  C   UNL     1     -13.166   8.750  16.874  0.00  0.00    +0.112 C 
BRANCH  16   7
ATOM      2  O   UNL     1     -12.225   9.897  14.391  0.00  0.00    -0.273 OA
ATOM      7  N   UNL     1     -12.699   8.047  15.721  0.00  0.00    -0.313 N 
ATOM     22  C   UNL     1     -12.263   8.681  14.558  0.00  0.00    +0.239 C 
ATOM     34  H   UNL     1     -12.634   7.034  15.771  0.00  0.00    +0.149 HD
BRANCH  22  24
ATOM     24  C   UNL     1     -11.824   7.695  13.497  0.00  0.00    +0.256 C 
BRANCH  24   3
ATOM      3  O   UNL     1     -12.765   6.651  13.366  0.00  0.00    -0.359 OA
BRANCH   3  28
ATOM     28  C   UNL     1     -13.995   7.108  12.813  0.00  0.00    +0.280 C 
BRANCH  28  32
ATOM      6  O   UNL     1     -15.666   5.440  13.380  0.00  0.00    -0.248 OA
ATOM     32  C   UNL     1     -15.147   6.527  13.582  0.00  0.00    +0.331 C 
BRANCH  32   5
ATOM      5  O   UNL     1     -15.546   7.389  14.552  0.00  0.00    -0.479 OA
ATOM     36  H   UNL     1     -14.817   7.610  15.169  0.00  0.00    +0.295 HD
ENDBRANCH  32   5
ENDBRANCH  28  32
ENDBRANCH   3  28
ENDBRANCH  24   3
ENDBRANCH  22  24
ENDBRANCH  16   7
ENDBRANCH  10  16
BRANCH  12  17
ATOM     17  C   UNL     1     -13.168   9.567  21.638  0.00  0.00    +0.103 C 
BRANCH  17  21
ATOM      1  O   UNL     1     -13.240  11.966  21.940  0.00  0.00    -0.276 OA
ATOM      8  N   UNL     1     -12.269  10.635  23.579  0.00  0.00    -0.311 N 
ATOM     21  C   UNL     1     -12.913  10.865  22.372  0.00  0.00    +0.214 C 
ATOM     35  H   UNL     1     -12.042   9.683  23.852  0.00  0.00    +0.149 HD
BRANCH   8  23
ATOM     23  C   UNL     1     -11.899  11.695  24.489  0.00  0.00    +0.139 C 
BRANCH  23  25
ATOM     25  C   UNL     1     -11.816  11.211  25.908  0.00  0.00    -0.030 A 
ATOM     26  C   UNL     1     -10.801  10.331  26.286  0.00  0.00    +0.009 A 
ATOM     27  C   UNL     1     -12.752  11.640  26.849  0.00  0.00    +0.009 A 
ATOM     29  C   UNL     1     -10.724   9.880  27.604  0.00  0.00    +0.046 A 
ATOM     30  C   UNL     1     -12.675  11.189  28.166  0.00  0.00    +0.046 A 
ATOM     31  C   UNL     1     -11.660  10.309  28.544  0.00  0.00    +0.120 A 
BRANCH  31   4
ATOM      4  O   UNL     1     -11.585   9.870  29.829  0.00  0.00    -0.495 OA
ATOM     33  C   UNL     1     -12.755  10.009  30.634  0.00  0.00    +0.277 C 
ENDBRANCH  31   4
ENDBRANCH  23  25
ENDBRANCH   8  23
ENDBRANCH  17  21
ENDBRANCH  12  17
TORSDOF 13
ENDMDL
MODEL 10
REMARK VINA RESULT:      -5.3      3.453      6.145
REMARK  Name = 38027879
REMARK  17 active torsions:
REMARK  status: ('A' for Active; 'I' for Inactive)
REMARK    1  A    between atoms: O_3  and  C_24
REMARK    2  A    between atoms: O_3  and  C_28
REMARK    3  A    between atoms: O_4  and  C_31
REMARK    4  A    between atoms: O_4  and  C_33
REMARK    5  A    between atoms: O_5  and  C_32
REMARK    6  A    between atoms: N_7  and  C_16
REMARK    7  A    between atoms: N_8  and  C_23
REMARK    8  A    between atoms: C_9  and  C_13
REMARK    9  A    between atoms: C_10  and  C_16
REMARK   10  A    between atoms: C_12  and  C_17
REMARK   11  A    between atoms: C_13  and  C_18
REMARK   12  A    between atoms: C_13  and  C_19
REMARK   13  A    between atoms: C_14  and  C_20
REMARK   14  A    between atoms: C_17  and  C_21
REMARK   15  A    between atoms: C_22  and  C_24
REMARK   16  A    between atoms: C_23  and  C_25
REMARK   17  A    between atoms: C_28  and  C_32
REMARK                            x       y       z     vdW  Elec       q    Type
REMARK                         _______ _______ _______ _____ _____    ______ ____
ROOT
ATOM      9  C   UNL     1      -3.005 -12.475  13.289  0.00  0.00    +0.000 C 
ATOM     10  C   UNL     1      -1.933 -11.359  13.361  0.00  0.00    +0.032 C 
ATOM     11  C   UNL     1      -3.309 -12.830  11.825  0.00  0.00    +0.012 C 
ATOM     12  C   UNL     1      -3.816 -11.615  11.025  0.00  0.00    +0.023 C 
ATOM     14  C   UNL     1      -2.956 -10.389  11.259  0.00  0.00    -0.073 C 
ATOM     15  C   UNL     1      -2.111 -10.299  12.301  0.00  0.00    -0.022 C 
ATOM     20  C   UNL     1      -3.056  -9.288  10.240  0.00  0.00    +0.039 C 
ENDROOT
BRANCH   9  13
ATOM     13  C   UNL     1      -2.568 -13.732  14.047  0.00  0.00    -0.013 C 
ATOM     18  C   UNL     1      -3.745 -14.325  14.817  0.00  0.00    +0.007 C 
ATOM     19  C   UNL     1      -1.981 -14.758  13.083  0.00  0.00    +0.007 C 
ENDBRANCH   9  13
BRANCH  10  16
ATOM     16  C   UNL     1      -1.915 -10.699  14.746  0.00  0.00    +0.112 C 
BRANCH  16   7
ATOM      2  O   UNL     1      -3.261 -11.248  17.246  0.00  0.00    -0.273 OA
ATOM      7  N   UNL     1      -3.228 -10.284  15.127  0.00  0.00    -0.313 N 
ATOM     22  C   UNL     1      -3.805 -10.595  16.358  0.00  0.00    +0.239 C 
ATOM     34  H   UNL     1      -3.747  -9.688  14.489  0.00  0.00    +0.149 HD
BRANCH  22  24
ATOM     24  C   UNL     1      -5.202 -10.030  16.497  0.00  0.00    +0.256 C 
BRANCH  24   3
ATOM      3  O   UNL     1      -6.004 -10.871  17.298  0.00  0.00    -0.359 OA
BRANCH   3  28
ATOM     28  C   UNL     1      -7.024 -10.145  17.976  0.00  0.00    +0.280 C 
BRANCH  28  32
ATOM      6  O   UNL     1      -6.098 -10.832  20.113  0.00  0.00    -0.248 OA
ATOM     32  C   UNL     1      -7.065 -10.553  19.421  0.00  0.00    +0.331 C 
BRANCH  32   5
ATOM      5  O   UNL     1      -8.347 -10.573  19.867  0.00  0.00    -0.479 OA
ATOM     36  H   UNL     1      -8.718 -11.481  19.877  0.00  0.00    +0.295 HD
ENDBRANCH  32   5
ENDBRANCH  28  32
ENDBRANCH   3  28
ENDBRANCH  24   3
ENDBRANCH  22  24
ENDBRANCH  16   7
ENDBRANCH  10  16
BRANCH  12  17
ATOM     17  C   UNL     1      -5.287 -11.320  11.338  0.00  0.00    +0.103 C 
BRANCH  17  21
ATOM      1  O   UNL     1      -6.083 -12.345   9.296  0.00  0.00    -0.276 OA
ATOM      8  N   UNL     1      -7.050 -10.366  10.036  0.00  0.00    -0.311 N 
ATOM     21  C   UNL     1      -6.163 -11.429  10.110  0.00  0.00    +0.214 C 
ATOM     35  H   UNL     1      -7.042  -9.656  10.763  0.00  0.00    +0.149 HD
BRANCH   8  23
ATOM     23  C   UNL     1      -8.007 -10.210   8.964  0.00  0.00    +0.139 C 
BRANCH  23  25
ATOM     25  C   UNL     1      -8.445  -8.783   8.807  0.00  0.00    -0.030 A 
ATOM     26  C   UNL     1      -9.745  -8.411   9.156  0.00  0.00    +0.009 A 
ATOM     27  C   UNL     1      -7.556  -7.829   8.313  0.00  0.00    +0.009 A 
ATOM     29  C   UNL     1     -10.153  -7.085   9.009  0.00  0.00    +0.046 A 
ATOM     30  C   UNL     1      -7.965  -6.504   8.166  0.00  0.00    +0.046 A 
ATOM     31  C   UNL     1      -9.264  -6.131   8.515  0.00  0.00    +0.120 A 
BRANCH  31   4
ATOM      4  O   UNL     1      -9.663  -4.838   8.372  0.00  0.00    -0.495 OA
ATOM     33  C   UNL     1     -10.671  -4.367   9.264  0.00  0.00    +0.277 C 
ENDBRANCH  31   4
ENDBRANCH  23  25
ENDBRANCH   8  23
ENDBRANCH  17  21
ENDBRANCH  12  17
TORSDOF 13
ENDMDL
