MODEL 1
REMARK VINA RESULT:      -7.9      0.000      0.000
REMARK  Name = 25389662
REMARK  7 active torsions:
REMARK  status: ('A' for Active; 'I' for Inactive)
REMARK    1  A    between atoms: O_2  and  C_19
REMARK    2  A    between atoms: O_2  and  C_31
REMARK    3  A    between atoms: N_6  and  C_10
REMARK    4  A    between atoms: N_6  and  C_20
REMARK    5  A    between atoms: C_8  and  C_16
REMARK    6  A    between atoms: C_12  and  C_19
REMARK    7  A    between atoms: C_20  and  C_26
REMARK                            x       y       z     vdW  Elec       q    Type
REMARK                         _______ _______ _______ _____ _____    ______ ____
ROOT
ATOM      4  N   UNL     1      11.846   6.624   5.788  0.00  0.00    -0.274 NA
ATOM      5  N   UNL     1      14.559   7.640   3.397  0.00  0.00    -0.356 N 
ATOM      7  C   UNL     1      12.286   7.077   4.432  0.00  0.00    +0.106 C 
ATOM      8  C   UNL     1      10.403   6.273   5.814  0.00  0.00    +0.093 C 
ATOM      9  C   UNL     1      12.012   5.990   3.380  0.00  0.00    +0.044 C 
ATOM     10  C   UNL     1      10.524   5.640   3.348  0.00  0.00    +0.058 C 
ATOM     11  C   UNL     1      10.070   5.208   4.741  0.00  0.00    +0.042 C 
ATOM     12  C   UNL     1      12.286   7.540   6.876  0.00  0.00    +0.172 C 
ATOM     13  C   UNL     1      13.737   7.453   4.473  0.00  0.00    +0.038 A 
ATOM     14  C   UNL     1      13.829   7.658   6.964  0.00  0.00    +0.068 C 
ATOM     15  C   UNL     1      14.453   7.741   5.614  0.00  0.00    -0.016 A 
ATOM     17  C   UNL     1      15.775   8.083   5.224  0.00  0.00    +0.003 A 
ATOM     18  C   UNL     1      15.816   8.012   3.828  0.00  0.00    +0.047 A 
ATOM     23  C   UNL     1      16.945   8.452   5.917  0.00  0.00    +0.010 A 
ATOM     24  C   UNL     1      16.972   8.292   3.092  0.00  0.00    +0.026 A 
ATOM     25  C   UNL     1      18.109   8.732   5.193  0.00  0.00    +0.001 A 
ATOM     29  C   UNL     1      18.120   8.653   3.802  0.00  0.00    +0.002 A 
ATOM     37  H   UNL     1      14.295   7.525   2.429  0.00  0.00    +0.166 HD
ENDROOT
BRANCH   8  16
ATOM      1  F   UNL     1       8.835   7.803   7.629  0.00  0.00    -0.205 F 
ATOM     16  C   UNL     1       9.916   5.742   7.160  0.00  0.00    +0.005 A 
ATOM     21  C   UNL     1       9.150   6.553   7.997  0.00  0.00    +0.128 A 
ATOM     22  C   UNL     1      10.237   4.442   7.552  0.00  0.00    +0.008 A 
ATOM     27  C   UNL     1       8.705   6.065   9.225  0.00  0.00    +0.038 A 
ATOM     28  C   UNL     1       9.793   3.954   8.780  0.00  0.00    +0.000 A 
ATOM     30  C   UNL     1       9.027   4.765   9.617  0.00  0.00    +0.003 A 
ENDBRANCH   8  16
BRANCH  12  19
ATOM      3  O   UNL     1      10.874   9.181   5.814  0.00  0.00    -0.249 OA
ATOM     19  C   UNL     1      11.651   8.892   6.714  0.00  0.00    +0.325 C 
BRANCH  19   2
ATOM      2  O   UNL     1      12.078   9.718   7.711  0.00  0.00    -0.467 OA
ATOM     31  C   UNL     1      11.081  10.584   8.261  0.00  0.00    +0.280 C 
ENDBRANCH  19   2
ENDBRANCH  12  19
BRANCH  10   6
ATOM      6  N   UNL     1      10.279   4.582   2.369  0.00  0.00    -0.309 NA
ATOM     38  H   UNL     1       9.393   4.124   2.584  0.00  0.00    +0.123 HD
BRANCH   6  20
ATOM     20  C   UNL     1      11.340   3.587   2.409  0.00  0.00    +0.116 C 
BRANCH  20  26
ATOM     26  C   UNL     1      12.252   3.692   1.215  0.00  0.00    -0.034 A 
ATOM     32  C   UNL     1      13.627   3.521   1.372  0.00  0.00    +0.005 A 
ATOM     33  C   UNL     1      11.720   3.961  -0.046  0.00  0.00    +0.005 A 
ATOM     34  C   UNL     1      14.472   3.620   0.266  0.00  0.00    +0.000 A 
ATOM     35  C   UNL     1      12.566   4.058  -1.151  0.00  0.00    +0.000 A 
ATOM     36  C   UNL     1      13.941   3.888  -0.996  0.00  0.00    +0.000 A 
ENDBRANCH  20  26
ENDBRANCH   6  20
ENDBRANCH  10   6
TORSDOF 6
ENDMDL
MODEL 2
REMARK VINA RESULT:      -7.9     13.148     17.004
REMARK  Name = 25389662
REMARK  7 active torsions:
REMARK  status: ('A' for Active; 'I' for Inactive)
REMARK    1  A    between atoms: O_2  and  C_19
REMARK    2  A    between atoms: O_2  and  C_31
REMARK    3  A    between atoms: N_6  and  C_10
REMARK    4  A    between atoms: N_6  and  C_20
REMARK    5  A    between atoms: C_8  and  C_16
REMARK    6  A    between atoms: C_12  and  C_19
REMARK    7  A    between atoms: C_20  and  C_26
REMARK                            x       y       z     vdW  Elec       q    Type
REMARK                         _______ _______ _______ _____ _____    ______ ____
ROOT
ATOM      4  N   UNL     1      13.610  10.168  20.649  0.00  0.00    -0.274 NA
ATOM      5  N   UNL     1      11.257  12.984  21.450  0.00  0.00    -0.356 N 
ATOM      7  C   UNL     1      12.551  11.139  20.234  0.00  0.00    +0.106 C 
ATOM      8  C   UNL     1      14.150   9.409  19.492  0.00  0.00    +0.093 C 
ATOM      9  C   UNL     1      13.097  12.129  19.193  0.00  0.00    +0.044 C 
ATOM     10  C   UNL     1      13.617  11.380  17.966  0.00  0.00    +0.058 C 
ATOM     11  C   UNL     1      14.677  10.366  18.395  0.00  0.00    +0.042 C 
ATOM     12  C   UNL     1      13.206   9.330  21.811  0.00  0.00    +0.172 C 
ATOM     13  C   UNL     1      12.017  11.847  21.444  0.00  0.00    +0.038 A 
ATOM     14  C   UNL     1      12.908  10.176  23.076  0.00  0.00    +0.068 C 
ATOM     15  C   UNL     1      12.152  11.415  22.744  0.00  0.00    -0.016 A 
ATOM     17  C   UNL     1      11.479  12.342  23.584  0.00  0.00    +0.003 A 
ATOM     18  C   UNL     1      10.927  13.318  22.747  0.00  0.00    +0.047 A 
ATOM     23  C   UNL     1      11.278  12.451  24.974  0.00  0.00    +0.010 A 
ATOM     24  C   UNL     1      10.184  14.397  23.236  0.00  0.00    +0.026 A 
ATOM     25  C   UNL     1      10.539  13.527  25.476  0.00  0.00    +0.001 A 
ATOM     29  C   UNL     1      10.000  14.484  24.619  0.00  0.00    +0.002 A 
ATOM     37  H   UNL     1      10.977  13.508  20.633  0.00  0.00    +0.166 HD
ENDROOT
BRANCH   8  16
ATOM      1  F   UNL     1      14.087   6.625  18.910  0.00  0.00    -0.205 F 
ATOM     16  C   UNL     1      15.282   8.449  19.850  0.00  0.00    +0.005 A 
ATOM     21  C   UNL     1      15.178   7.095  19.532  0.00  0.00    +0.128 A 
ATOM     22  C   UNL     1      16.421   8.928  20.496  0.00  0.00    +0.008 A 
ATOM     27  C   UNL     1      16.214   6.220  19.859  0.00  0.00    +0.038 A 
ATOM     28  C   UNL     1      17.457   8.053  20.823  0.00  0.00    +0.000 A 
ATOM     30  C   UNL     1      17.353   6.699  20.506  0.00  0.00    +0.003 A 
ENDBRANCH   8  16
BRANCH  12  19
ATOM      3  O   UNL     1      10.937   8.899  21.121  0.00  0.00    -0.249 OA
ATOM     19  C   UNL     1      12.031   8.465  21.453  0.00  0.00    +0.325 C 
BRANCH  19   2
ATOM      2  O   UNL     1      12.383   7.152  21.560  0.00  0.00    -0.467 OA
ATOM     31  C   UNL     1      11.298   6.220  21.517  0.00  0.00    +0.280 C 
ENDBRANCH  19   2
ENDBRANCH  12  19
BRANCH  10   6
ATOM      6  N   UNL     1      14.165  12.326  16.996  0.00  0.00    -0.309 NA
ATOM     38  H   UNL     1      13.411  12.911  16.633  0.00  0.00    +0.123 HD
BRANCH   6  20
ATOM     20  C   UNL     1      14.784  11.622  15.882  0.00  0.00    +0.116 C 
BRANCH  20  26
ATOM     26  C   UNL     1      16.228  12.011  15.707  0.00  0.00    -0.034 A 
ATOM     32  C   UNL     1      16.852  12.820  16.656  0.00  0.00    +0.005 A 
ATOM     33  C   UNL     1      16.940  11.562  14.595  0.00  0.00    +0.005 A 
ATOM     34  C   UNL     1      18.190  13.181  16.493  0.00  0.00    +0.000 A 
ATOM     35  C   UNL     1      18.278  11.922  14.433  0.00  0.00    +0.000 A 
ATOM     36  C   UNL     1      18.903  12.732  15.382  0.00  0.00    +0.000 A 
ENDBRANCH  20  26
ENDBRANCH   6  20
ENDBRANCH  10   6
TORSDOF 6
ENDMDL
MODEL 3
REMARK VINA RESULT:      -7.6     28.511     33.572
REMARK  Name = 25389662
REMARK  7 active torsions:
REMARK  status: ('A' for Active; 'I' for Inactive)
REMARK    1  A    between atoms: O_2  and  C_19
REMARK    2  A    between atoms: O_2  and  C_31
REMARK    3  A    between atoms: N_6  and  C_10
REMARK    4  A    between atoms: N_6  and  C_20
REMARK    5  A    between atoms: C_8  and  C_16
REMARK    6  A    between atoms: C_12  and  C_19
REMARK    7  A    between atoms: C_20  and  C_26
REMARK                            x       y       z     vdW  Elec       q    Type
REMARK                         _______ _______ _______ _____ _____    ______ ____
ROOT
ATOM      4  N   UNL     1     -14.761   7.224  22.011  0.00  0.00    -0.274 NA
ATOM      5  N   UNL     1     -16.830   6.238  24.987  0.00  0.00    -0.356 N 
ATOM      7  C   UNL     1     -15.859   7.507  22.986  0.00  0.00    +0.106 C 
ATOM      8  C   UNL     1     -14.488   8.387  21.129  0.00  0.00    +0.093 C 
ATOM      9  C   UNL     1     -15.513   8.727  23.855  0.00  0.00    +0.044 C 
ATOM     10  C   UNL     1     -15.274   9.956  22.978  0.00  0.00    +0.058 C 
ATOM     11  C   UNL     1     -14.175   9.654  21.961  0.00  0.00    +0.042 C 
ATOM     12  C   UNL     1     -14.938   5.929  21.299  0.00  0.00    +0.172 C 
ATOM     13  C   UNL     1     -16.116   6.289  23.822  0.00  0.00    +0.038 A 
ATOM     14  C   UNL     1     -14.951   4.717  22.265  0.00  0.00    +0.068 C 
ATOM     15  C   UNL     1     -15.728   5.007  23.501  0.00  0.00    -0.016 A 
ATOM     17  C   UNL     1     -16.191   4.142  24.529  0.00  0.00    +0.003 A 
ATOM     18  C   UNL     1     -16.879   4.939  25.449  0.00  0.00    +0.047 A 
ATOM     23  C   UNL     1     -16.100   2.756  24.770  0.00  0.00    +0.010 A 
ATOM     24  C   UNL     1     -17.479   4.416  26.599  0.00  0.00    +0.026 A 
ATOM     25  C   UNL     1     -16.694   2.221  25.917  0.00  0.00    +0.001 A 
ATOM     29  C   UNL     1     -17.373   3.040  26.817  0.00  0.00    +0.002 A 
ATOM     37  H   UNL     1     -17.259   7.028  25.448  0.00  0.00    +0.166 HD
ENDROOT
BRANCH   8  16
ATOM      1  F   UNL     1     -14.780   8.481  18.301  0.00  0.00    -0.205 F 
ATOM     16  C   UNL     1     -13.332   8.175  20.156  0.00  0.00    +0.005 A 
ATOM     21  C   UNL     1     -13.553   8.235  18.781  0.00  0.00    +0.128 A 
ATOM     22  C   UNL     1     -12.050   7.919  20.646  0.00  0.00    +0.008 A 
ATOM     27  C   UNL     1     -12.494   8.041  17.894  0.00  0.00    +0.038 A 
ATOM     28  C   UNL     1     -10.992   7.725  19.759  0.00  0.00    +0.000 A 
ATOM     30  C   UNL     1     -11.213   7.786  18.384  0.00  0.00    +0.003 A 
ENDBRANCH   8  16
BRANCH  12  19
ATOM      3  O   UNL     1     -16.776   6.981  20.146  0.00  0.00    -0.249 OA
ATOM     19  C   UNL     1     -16.183   5.957  20.457  0.00  0.00    +0.325 C 
BRANCH  19   2
ATOM      2  O   UNL     1     -16.527   4.685  20.109  0.00  0.00    -0.467 OA
ATOM     31  C   UNL     1     -17.572   4.574  19.138  0.00  0.00    +0.280 C 
ENDBRANCH  19   2
ENDBRANCH  12  19
BRANCH  10   6
ATOM      6  N   UNL     1     -14.914  11.103  23.809  0.00  0.00    -0.309 NA
ATOM     38  H   UNL     1     -15.372  11.940  23.447  0.00  0.00    +0.123 HD
BRANCH   6  20
ATOM     20  C   UNL     1     -13.474  11.318  23.795  0.00  0.00    +0.116 C 
BRANCH  20  26
ATOM     26  C   UNL     1     -12.840  10.950  25.109  0.00  0.00    -0.034 A 
ATOM     32  C   UNL     1     -13.637  10.744  26.235  0.00  0.00    +0.005 A 
ATOM     33  C   UNL     1     -11.454  10.816  25.201  0.00  0.00    +0.005 A 
ATOM     34  C   UNL     1     -13.049  10.404  27.453  0.00  0.00    +0.000 A 
ATOM     35  C   UNL     1     -10.867  10.475  26.419  0.00  0.00    +0.000 A 
ATOM     36  C   UNL     1     -11.664  10.269  27.546  0.00  0.00    +0.000 A 
ENDBRANCH  20  26
ENDBRANCH   6  20
ENDBRANCH  10   6
TORSDOF 6
ENDMDL
MODEL 4
REMARK VINA RESULT:      -7.4     22.637     26.490
REMARK  Name = 25389662
REMARK  7 active torsions:
REMARK  status: ('A' for Active; 'I' for Inactive)
REMARK    1  A    between atoms: O_2  and  C_19
REMARK    2  A    between atoms: O_2  and  C_31
REMARK    3  A    between atoms: N_6  and  C_10
REMARK    4  A    between atoms: N_6  and  C_20
REMARK    5  A    between atoms: C_8  and  C_16
REMARK    6  A    between atoms: C_12  and  C_19
REMARK    7  A    between atoms: C_20  and  C_26
REMARK                            x       y       z     vdW  Elec       q    Type
REMARK                         _______ _______ _______ _____ _____    ______ ____
ROOT
ATOM      4  N   UNL     1      17.025  -7.169  25.855  0.00  0.00    -0.274 NA
ATOM      5  N   UNL     1      17.791  -3.505  26.165  0.00  0.00    -0.356 N 
ATOM      7  C   UNL     1      17.649  -6.025  26.591  0.00  0.00    +0.106 C 
ATOM      8  C   UNL     1      17.091  -8.431  26.634  0.00  0.00    +0.093 C 
ATOM      9  C   UNL     1      16.963  -5.815  27.950  0.00  0.00    +0.044 C 
ATOM     10  C   UNL     1      17.057  -7.084  28.797  0.00  0.00    +0.058 C 
ATOM     11  C   UNL     1      16.448  -8.257  28.031  0.00  0.00    +0.042 C 
ATOM     12  C   UNL     1      17.497  -7.279  24.448  0.00  0.00    +0.172 C 
ATOM     13  C   UNL     1      17.588  -4.789  25.744  0.00  0.00    +0.038 A 
ATOM     14  C   UNL     1      17.159  -6.019  23.609  0.00  0.00    +0.068 C 
ATOM     15  C   UNL     1      17.385  -4.767  24.382  0.00  0.00    -0.016 A 
ATOM     17  C   UNL     1      17.432  -3.412  23.957  0.00  0.00    +0.003 A 
ATOM     18  C   UNL     1      17.687  -2.640  25.095  0.00  0.00    +0.047 A 
ATOM     23  C   UNL     1      17.286  -2.759  22.717  0.00  0.00    +0.010 A 
ATOM     24  C   UNL     1      17.803  -1.247  25.051  0.00  0.00    +0.026 A 
ATOM     25  C   UNL     1      17.398  -1.366  22.659  0.00  0.00    +0.001 A 
ATOM     29  C   UNL     1      17.652  -0.623  23.810  0.00  0.00    +0.002 A 
ATOM     37  H   UNL     1      17.988  -3.222  27.115  0.00  0.00    +0.166 HD
ENDROOT
BRANCH   8  16
ATOM      1  F   UNL     1      18.410 -10.892  26.088  0.00  0.00    -0.205 F 
ATOM     16  C   UNL     1      16.411  -9.618  25.957  0.00  0.00    +0.005 A 
ATOM     21  C   UNL     1      17.124 -10.793  25.722  0.00  0.00    +0.128 A 
ATOM     22  C   UNL     1      15.073  -9.526  25.573  0.00  0.00    +0.008 A 
ATOM     27  C   UNL     1      16.500 -11.876  25.103  0.00  0.00    +0.038 A 
ATOM     28  C   UNL     1      14.449 -10.609  24.954  0.00  0.00    +0.000 A 
ATOM     30  C   UNL     1      15.162 -11.784  24.719  0.00  0.00    +0.003 A 
ENDBRANCH   8  16
BRANCH  12  19
ATOM      3  O   UNL     1      19.580  -8.140  25.303  0.00  0.00    -0.249 OA
ATOM     19  C   UNL     1      18.970  -7.572  24.407  0.00  0.00    +0.325 C 
BRANCH  19   2
ATOM      2  O   UNL     1      19.495  -7.111  23.237  0.00  0.00    -0.467 OA
ATOM     31  C   UNL     1      20.890  -7.364  23.047  0.00  0.00    +0.280 C 
ENDBRANCH  19   2
ENDBRANCH  12  19
BRANCH  10   6
ATOM      6  N   UNL     1      16.374  -6.886  30.075  0.00  0.00    -0.309 NA
ATOM     38  H   UNL     1      15.665  -7.610  30.194  0.00  0.00    +0.123 HD
BRANCH   6  20
ATOM     20  C   UNL     1      15.721  -5.585  30.113  0.00  0.00    +0.116 C 
BRANCH  20  26
ATOM     26  C   UNL     1      14.344  -5.668  30.717  0.00  0.00    -0.034 A 
ATOM     32  C   UNL     1      14.000  -4.840  31.786  0.00  0.00    +0.005 A 
ATOM     33  C   UNL     1      13.413  -6.573  30.207  0.00  0.00    +0.005 A 
ATOM     34  C   UNL     1      12.725  -4.917  32.345  0.00  0.00    +0.000 A 
ATOM     35  C   UNL     1      12.137  -6.649  30.767  0.00  0.00    +0.000 A 
ATOM     36  C   UNL     1      11.793  -5.822  31.836  0.00  0.00    +0.000 A 
ENDBRANCH  20  26
ENDBRANCH   6  20
ENDBRANCH  10   6
TORSDOF 6
ENDMDL
MODEL 5
REMARK VINA RESULT:      -7.3     12.865     15.001
REMARK  Name = 25389662
REMARK  7 active torsions:
REMARK  status: ('A' for Active; 'I' for Inactive)
REMARK    1  A    between atoms: O_2  and  C_19
REMARK    2  A    between atoms: O_2  and  C_31
REMARK    3  A    between atoms: N_6  and  C_10
REMARK    4  A    between atoms: N_6  and  C_20
REMARK    5  A    between atoms: C_8  and  C_16
REMARK    6  A    between atoms: C_12  and  C_19
REMARK    7  A    between atoms: C_20  and  C_26
REMARK                            x       y       z     vdW  Elec       q    Type
REMARK                         _______ _______ _______ _____ _____    ______ ____
ROOT
ATOM      4  N   UNL     1      -1.441  10.631   4.639  0.00  0.00    -0.274 NA
ATOM      5  N   UNL     1       1.615  12.797   4.909  0.00  0.00    -0.356 N 
ATOM      7  C   UNL     1      -0.551  11.702   4.094  0.00  0.00    +0.106 C 
ATOM      8  C   UNL     1      -2.501  10.247   3.672  0.00  0.00    +0.093 C 
ATOM      9  C   UNL     1       0.105  11.248   2.780  0.00  0.00    +0.044 C 
ATOM     10  C   UNL     1      -0.962  10.891   1.746  0.00  0.00    +0.058 C 
ATOM     11  C   UNL     1      -1.890   9.819   2.316  0.00  0.00    +0.042 C 
ATOM     12  C   UNL     1      -1.928  10.926   6.014  0.00  0.00    +0.172 C 
ATOM     13  C   UNL     1       0.474  12.076   5.123  0.00  0.00    +0.038 A 
ATOM     14  C   UNL     1      -0.770  11.056   7.037  0.00  0.00    +0.068 C 
ATOM     15  C   UNL     1       0.383  11.808   6.471  0.00  0.00    -0.016 A 
ATOM     17  C   UNL     1       1.532  12.356   7.102  0.00  0.00    +0.003 A 
ATOM     18  C   UNL     1       2.290  12.970   6.100  0.00  0.00    +0.047 A 
ATOM     23  C   UNL     1       2.006  12.396   8.429  0.00  0.00    +0.010 A 
ATOM     24  C   UNL     1       3.499  13.622   6.362  0.00  0.00    +0.026 A 
ATOM     25  C   UNL     1       3.215  13.043   8.704  0.00  0.00    +0.001 A 
ATOM     29  C   UNL     1       3.949  13.646   7.685  0.00  0.00    +0.002 A 
ATOM     37  H   UNL     1       1.927  13.153   4.016  0.00  0.00    +0.166 HD
ENDROOT
BRANCH   8  16
ATOM      1  F   UNL     1      -5.281  10.093   3.089  0.00  0.00    -0.205 F 
ATOM     16  C   UNL     1      -3.400   9.110   4.152  0.00  0.00    +0.005 A 
ATOM     21  C   UNL     1      -4.756   9.104   3.826  0.00  0.00    +0.128 A 
ATOM     22  C   UNL     1      -2.863   8.076   4.919  0.00  0.00    +0.008 A 
ATOM     27  C   UNL     1      -5.575   8.064   4.265  0.00  0.00    +0.038 A 
ATOM     28  C   UNL     1      -3.682   7.037   5.359  0.00  0.00    +0.000 A 
ATOM     30  C   UNL     1      -5.038   7.030   5.033  0.00  0.00    +0.003 A 
ENDBRANCH   8  16
BRANCH  12  19
ATOM      3  O   UNL     1      -2.349  13.299   5.978  0.00  0.00    -0.249 OA
ATOM     19  C   UNL     1      -2.788  12.158   6.016  0.00  0.00    +0.325 C 
BRANCH  19   2
ATOM      2  O   UNL     1      -4.101  11.797   6.067  0.00  0.00    -0.467 OA
ATOM     31  C   UNL     1      -5.027  12.778   5.589  0.00  0.00    +0.280 C 
ENDBRANCH  19   2
ENDBRANCH  12  19
BRANCH  10   6
ATOM      6  N   UNL     1      -0.329  10.428   0.511  0.00  0.00    -0.309 NA
ATOM     38  H   UNL     1      -0.287  11.200  -0.155  0.00  0.00    +0.123 HD
BRANCH   6  20
ATOM     20  C   UNL     1      -1.093   9.342  -0.083  0.00  0.00    +0.116 C 
BRANCH  20  26
ATOM     26  C   UNL     1      -1.929   9.814  -1.244  0.00  0.00    -0.034 A 
ATOM     32  C   UNL     1      -1.313  10.361  -2.369  0.00  0.00    +0.005 A 
ATOM     33  C   UNL     1      -3.318   9.704  -1.192  0.00  0.00    +0.005 A 
ATOM     34  C   UNL     1      -2.086  10.799  -3.444  0.00  0.00    +0.000 A 
ATOM     35  C   UNL     1      -4.092  10.142  -2.268  0.00  0.00    +0.000 A 
ATOM     36  C   UNL     1      -3.476  10.690  -3.393  0.00  0.00    +0.000 A 
ENDBRANCH  20  26
ENDBRANCH   6  20
ENDBRANCH  10   6
TORSDOF 6
ENDMDL
MODEL 6
REMARK VINA RESULT:      -7.2     27.936     31.732
REMARK  Name = 25389662
REMARK  7 active torsions:
REMARK  status: ('A' for Active; 'I' for Inactive)
REMARK    1  A    between atoms: O_2  and  C_19
REMARK    2  A    between atoms: O_2  and  C_31
REMARK    3  A    between atoms: N_6  and  C_10
REMARK    4  A    between atoms: N_6  and  C_20
REMARK    5  A    between atoms: C_8  and  C_16
REMARK    6  A    between atoms: C_12  and  C_19
REMARK    7  A    between atoms: C_20  and  C_26
REMARK                            x       y       z     vdW  Elec       q    Type
REMARK                         _______ _______ _______ _____ _____    ______ ____
ROOT
ATOM      4  N   UNL     1      -9.805  -9.602  17.320  0.00  0.00    -0.274 NA
ATOM      5  N   UNL     1      -7.282 -11.696  19.151  0.00  0.00    -0.356 N 
ATOM      7  C   UNL     1      -9.467 -10.770  18.191  0.00  0.00    +0.106 C 
ATOM      8  C   UNL     1     -11.273  -9.412  17.192  0.00  0.00    +0.093 C 
ATOM      9  C   UNL     1     -10.077 -10.598  19.592  0.00  0.00    +0.044 C 
ATOM     10  C   UNL     1     -11.595 -10.448  19.498  0.00  0.00    +0.058 C 
ATOM     11  C   UNL     1     -11.939  -9.275  18.582  0.00  0.00    +0.042 C 
ATOM     12  C   UNL     1      -9.062  -9.607  16.030  0.00  0.00    +0.172 C 
ATOM     13  C   UNL     1      -7.978 -10.937  18.253  0.00  0.00    +0.038 A 
ATOM     14  C   UNL     1      -7.526  -9.538  16.231  0.00  0.00    +0.068 C 
ATOM     15  C   UNL     1      -7.079 -10.400  17.359  0.00  0.00    -0.016 A 
ATOM     17  C   UNL     1      -5.777 -10.818  17.745  0.00  0.00    +0.003 A 
ATOM     18  C   UNL     1      -5.932 -11.630  18.874  0.00  0.00    +0.047 A 
ATOM     23  C   UNL     1      -4.478 -10.593  17.248  0.00  0.00    +0.010 A 
ATOM     24  C   UNL     1      -4.849 -12.226  19.528  0.00  0.00    +0.026 A 
ATOM     25  C   UNL     1      -3.386 -11.181  17.894  0.00  0.00    +0.001 A 
ATOM     29  C   UNL     1      -3.571 -11.986  19.017  0.00  0.00    +0.002 A 
ATOM     37  H   UNL     1      -7.686 -12.229  19.909  0.00  0.00    +0.166 HD
ENDROOT
BRANCH   8  16
ATOM      1  F   UNL     1     -13.154  -9.514  15.061  0.00  0.00    -0.205 F 
ATOM     16  C   UNL     1     -11.674  -8.194  16.365  0.00  0.00    +0.005 A 
ATOM     21  C   UNL     1     -12.604  -8.323  15.334  0.00  0.00    +0.128 A 
ATOM     22  C   UNL     1     -11.108  -6.949  16.641  0.00  0.00    +0.008 A 
ATOM     27  C   UNL     1     -12.969  -7.208  14.580  0.00  0.00    +0.038 A 
ATOM     28  C   UNL     1     -11.473  -5.834  15.888  0.00  0.00    +0.000 A 
ATOM     30  C   UNL     1     -12.403  -5.963  14.857  0.00  0.00    +0.003 A 
ENDBRANCH   8  16
BRANCH  12  19
ATOM      3  O   UNL     1      -9.170 -11.959  15.510  0.00  0.00    -0.249 OA
ATOM     19  C   UNL     1      -9.443 -10.805  15.207  0.00  0.00    +0.325 C 
BRANCH  19   2
ATOM      2  O   UNL     1     -10.122 -10.399  14.098  0.00  0.00    -0.467 OA
ATOM     31  C   UNL     1      -9.312 -10.068  12.967  0.00  0.00    +0.280 C 
ENDBRANCH  19   2
ENDBRANCH  12  19
BRANCH  10   6
ATOM      6  N   UNL     1     -12.163 -10.252  20.831  0.00  0.00    -0.309 NA
ATOM     38  H   UNL     1     -11.450 -10.452  21.534  0.00  0.00    +0.123 HD
BRANCH   6  20
ATOM     20  C   UNL     1     -13.292 -11.145  21.047  0.00  0.00    +0.116 C 
BRANCH  20  26
ATOM     26  C   UNL     1     -14.575 -10.385  21.254  0.00  0.00    -0.034 A 
ATOM     32  C   UNL     1     -15.660 -11.005  21.874  0.00  0.00    +0.005 A 
ATOM     33  C   UNL     1     -14.678  -9.062  20.825  0.00  0.00    +0.005 A 
ATOM     34  C   UNL     1     -16.849 -10.302  22.065  0.00  0.00    +0.000 A 
ATOM     35  C   UNL     1     -15.868  -8.358  21.018  0.00  0.00    +0.000 A 
ATOM     36  C   UNL     1     -16.953  -8.978  21.637  0.00  0.00    +0.000 A 
ENDBRANCH  20  26
ENDBRANCH   6  20
ENDBRANCH  10   6
TORSDOF 6
ENDMDL
MODEL 7
REMARK VINA RESULT:      -7.2     41.189     43.244
REMARK  Name = 25389662
REMARK  7 active torsions:
REMARK  status: ('A' for Active; 'I' for Inactive)
REMARK    1  A    between atoms: O_2  and  C_19
REMARK    2  A    between atoms: O_2  and  C_31
REMARK    3  A    between atoms: N_6  and  C_10
REMARK    4  A    between atoms: N_6  and  C_20
REMARK    5  A    between atoms: C_8  and  C_16
REMARK    6  A    between atoms: C_12  and  C_19
REMARK    7  A    between atoms: C_20  and  C_26
REMARK                            x       y       z     vdW  Elec       q    Type
REMARK                         _______ _______ _______ _____ _____    ______ ____
ROOT
ATOM      4  N   UNL     1      -8.363  -9.574  38.865  0.00  0.00    -0.274 NA
ATOM      5  N   UNL     1     -10.683  -6.795  39.864  0.00  0.00    -0.356 N 
ATOM      7  C   UNL     1      -9.621  -9.099  39.520  0.00  0.00    +0.106 C 
ATOM      8  C   UNL     1      -8.301 -11.057  38.794  0.00  0.00    +0.093 C 
ATOM      9  C   UNL     1     -10.856  -9.619  38.767  0.00  0.00    +0.044 C 
ATOM     10  C   UNL     1     -10.847 -11.147  38.720  0.00  0.00    +0.058 C 
ATOM     11  C   UNL     1      -9.547 -11.632  38.080  0.00  0.00    +0.042 C 
ATOM     12  C   UNL     1      -7.142  -8.924  39.414  0.00  0.00    +0.172 C 
ATOM     13  C   UNL     1      -9.612  -7.601  39.598  0.00  0.00    +0.038 A 
ATOM     14  C   UNL     1      -7.149  -7.386  39.218  0.00  0.00    +0.068 C 
ATOM     15  C   UNL     1      -8.494  -6.805  39.482  0.00  0.00    -0.016 A 
ATOM     17  C   UNL     1      -8.902  -5.454  39.649  0.00  0.00    +0.003 A 
ATOM     18  C   UNL     1     -10.281  -5.475  39.886  0.00  0.00    +0.047 A 
ATOM     23  C   UNL     1      -8.239  -4.211  39.626  0.00  0.00    +0.010 A 
ATOM     24  C   UNL     1     -11.026  -4.311  40.101  0.00  0.00    +0.026 A 
ATOM     25  C   UNL     1      -8.974  -3.039  39.838  0.00  0.00    +0.001 A 
ATOM     29  C   UNL     1     -10.346  -3.091  40.072  0.00  0.00    +0.002 A 
ATOM     37  H   UNL     1     -11.630  -7.108  40.020  0.00  0.00    +0.166 HD
ENDROOT
BRANCH   8  16
ATOM      1  F   UNL     1      -7.872 -10.787  35.995  0.00  0.00    -0.205 F 
ATOM     16  C   UNL     1      -7.066 -11.596  38.076  0.00  0.00    +0.005 A 
ATOM     21  C   UNL     1      -6.927 -11.425  36.700  0.00  0.00    +0.128 A 
ATOM     22  C   UNL     1      -6.077 -12.261  38.801  0.00  0.00    +0.008 A 
ATOM     27  C   UNL     1      -5.797 -11.918  36.046  0.00  0.00    +0.038 A 
ATOM     28  C   UNL     1      -4.948 -12.754  38.147  0.00  0.00    +0.000 A 
ATOM     30  C   UNL     1      -4.808 -12.583  36.770  0.00  0.00    +0.003 A 
ENDBRANCH   8  16
BRANCH  12  19
ATOM      3  O   UNL     1      -7.423 -10.286  41.383  0.00  0.00    -0.249 OA
ATOM     19  C   UNL     1      -6.962  -9.280  40.863  0.00  0.00    +0.325 C 
BRANCH  19   2
ATOM      2  O   UNL     1      -6.219  -8.318  41.480  0.00  0.00    -0.467 OA
ATOM     31  C   UNL     1      -4.943  -8.744  41.966  0.00  0.00    +0.280 C 
ENDBRANCH  19   2
ENDBRANCH  12  19
BRANCH  10   6
ATOM      6  N   UNL     1     -12.007 -11.632  37.974  0.00  0.00    -0.309 NA
ATOM     38  H   UNL     1     -11.902 -12.632  37.799  0.00  0.00    +0.123 HD
BRANCH   6  20
ATOM     20  C   UNL     1     -12.122 -10.946  36.696  0.00  0.00    +0.116 C 
BRANCH  20  26
ATOM     26  C   UNL     1     -12.399 -11.904  35.568  0.00  0.00    -0.034 A 
ATOM     32  C   UNL     1     -13.489 -11.692  34.724  0.00  0.00    +0.005 A 
ATOM     33  C   UNL     1     -11.565 -13.004  35.369  0.00  0.00    +0.005 A 
ATOM     34  C   UNL     1     -13.745 -12.580  33.680  0.00  0.00    +0.000 A 
ATOM     35  C   UNL     1     -11.821 -13.892  34.324  0.00  0.00    +0.000 A 
ATOM     36  C   UNL     1     -12.911 -13.681  33.479  0.00  0.00    +0.000 A 
ENDBRANCH  20  26
ENDBRANCH   6  20
ENDBRANCH  10   6
TORSDOF 6
ENDMDL
MODEL 8
REMARK VINA RESULT:      -7.2     15.947     18.557
REMARK  Name = 25389662
REMARK  7 active torsions:
REMARK  status: ('A' for Active; 'I' for Inactive)
REMARK    1  A    between atoms: O_2  and  C_19
REMARK    2  A    between atoms: O_2  and  C_31
REMARK    3  A    between atoms: N_6  and  C_10
REMARK    4  A    between atoms: N_6  and  C_20
REMARK    5  A    between atoms: C_8  and  C_16
REMARK    6  A    between atoms: C_12  and  C_19
REMARK    7  A    between atoms: C_20  and  C_26
REMARK                            x       y       z     vdW  Elec       q    Type
REMARK                         _______ _______ _______ _____ _____    ______ ____
ROOT
ATOM      4  N   UNL     1      18.724  -8.670  -1.507  0.00  0.00    -0.274 NA
ATOM      5  N   UNL     1      20.886  -8.433   1.554  0.00  0.00    -0.356 N 
ATOM      7  C   UNL     1      19.656  -9.295  -0.519  0.00  0.00    +0.106 C 
ATOM      8  C   UNL     1      18.153  -9.673  -2.442  0.00  0.00    +0.093 C 
ATOM      9  C   UNL     1      18.938 -10.387   0.290  0.00  0.00    +0.044 C 
ATOM     10  C   UNL     1      18.380 -11.462  -0.642  0.00  0.00    +0.058 C 
ATOM     11  C   UNL     1      17.453 -10.817  -1.671  0.00  0.00    +0.042 C 
ATOM     12  C   UNL     1      19.298  -7.462  -2.162  0.00  0.00    +0.172 C 
ATOM     13  C   UNL     1      20.230  -8.234   0.372  0.00  0.00    +0.038 A 
ATOM     14  C   UNL     1      19.631  -6.339  -1.146  0.00  0.00    +0.068 C 
ATOM     15  C   UNL     1      20.245  -6.885   0.095  0.00  0.00    -0.016 A 
ATOM     17  C   UNL     1      20.906  -6.228   1.168  0.00  0.00    +0.003 A 
ATOM     18  C   UNL     1      21.298  -7.222   2.071  0.00  0.00    +0.047 A 
ATOM     23  C   UNL     1      21.217  -4.886   1.463  0.00  0.00    +0.010 A 
ATOM     24  C   UNL     1      21.985  -6.936   3.255  0.00  0.00    +0.026 A 
ATOM     25  C   UNL     1      21.902  -4.586   2.646  0.00  0.00    +0.001 A 
ATOM     29  C   UNL     1      22.279  -5.597   3.527  0.00  0.00    +0.002 A 
ATOM     37  H   UNL     1      21.048  -9.329   1.993  0.00  0.00    +0.166 HD
ENDROOT
BRANCH   8  16
ATOM      1  F   UNL     1      18.163 -10.280  -5.221  0.00  0.00    -0.205 F 
ATOM     16  C   UNL     1      17.144  -9.098  -3.433  0.00  0.00    +0.005 A 
ATOM     21  C   UNL     1      17.213  -9.443  -4.782  0.00  0.00    +0.128 A 
ATOM     22  C   UNL     1      16.151  -8.226  -2.986  0.00  0.00    +0.008 A 
ATOM     27  C   UNL     1      16.289  -8.917  -5.685  0.00  0.00    +0.038 A 
ATOM     28  C   UNL     1      15.227  -7.700  -3.889  0.00  0.00    +0.000 A 
ATOM     30  C   UNL     1      15.296  -8.044  -5.238  0.00  0.00    +0.003 A 
ENDBRANCH   8  16
BRANCH  12  19
ATOM      3  O   UNL     1      21.591  -8.129  -2.492  0.00  0.00    -0.249 OA
ATOM     19  C   UNL     1      20.507  -7.828  -2.974  0.00  0.00    +0.325 C 
BRANCH  19   2
ATOM      2  O   UNL     1      20.200  -7.769  -4.301  0.00  0.00    -0.467 OA
ATOM     31  C   UNL     1      19.584  -6.554  -4.736  0.00  0.00    +0.280 C 
ENDBRANCH  19   2
ENDBRANCH  12  19
BRANCH  10   6
ATOM      6  N   UNL     1      17.670 -12.479   0.133  0.00  0.00    -0.309 NA
ATOM     38  H   UNL     1      17.646 -13.351  -0.396  0.00  0.00    +0.123 HD
BRANCH   6  20
ATOM     20  C   UNL     1      16.302 -12.060   0.402  0.00  0.00    +0.116 C 
BRANCH  20  26
ATOM     26  C   UNL     1      15.909 -12.316   1.833  0.00  0.00    -0.034 A 
ATOM     32  C   UNL     1      16.186 -11.364   2.813  0.00  0.00    +0.005 A 
ATOM     33  C   UNL     1      15.268 -13.506   2.177  0.00  0.00    +0.005 A 
ATOM     34  C   UNL     1      15.823 -11.602   4.139  0.00  0.00    +0.000 A 
ATOM     35  C   UNL     1      14.904 -13.743   3.503  0.00  0.00    +0.000 A 
ATOM     36  C   UNL     1      15.182 -12.792   4.484  0.00  0.00    +0.000 A 
ENDBRANCH  20  26
ENDBRANCH   6  20
ENDBRANCH  10   6
TORSDOF 6
ENDMDL
MODEL 9
REMARK VINA RESULT:      -7.1      3.251      6.085
REMARK  Name = 25389662
REMARK  7 active torsions:
REMARK  status: ('A' for Active; 'I' for Inactive)
REMARK    1  A    between atoms: O_2  and  C_19
REMARK    2  A    between atoms: O_2  and  C_31
REMARK    3  A    between atoms: N_6  and  C_10
REMARK    4  A    between atoms: N_6  and  C_20
REMARK    5  A    between atoms: C_8  and  C_16
REMARK    6  A    between atoms: C_12  and  C_19
REMARK    7  A    between atoms: C_20  and  C_26
REMARK                            x       y       z     vdW  Elec       q    Type
REMARK                         _______ _______ _______ _____ _____    ______ ____
ROOT
ATOM      4  N   UNL     1       9.853   7.625   3.270  0.00  0.00    -0.274 NA
ATOM      5  N   UNL     1      10.433   4.873   5.760  0.00  0.00    -0.356 N 
ATOM      7  C   UNL     1      10.591   6.401   3.711  0.00  0.00    +0.106 C 
ATOM      8  C   UNL     1      10.232   8.035   1.894  0.00  0.00    +0.093 C 
ATOM      9  C   UNL     1      10.331   5.232   2.748  0.00  0.00    +0.044 C 
ATOM     10  C   UNL     1      10.757   5.606   1.328  0.00  0.00    +0.058 C 
ATOM     11  C   UNL     1      10.026   6.875   0.891  0.00  0.00    +0.042 C 
ATOM     12  C   UNL     1       9.888   8.718   4.279  0.00  0.00    +0.172 C 
ATOM     13  C   UNL     1      10.198   6.056   5.117  0.00  0.00    +0.038 A 
ATOM     14  C   UNL     1       9.233   8.307   5.623  0.00  0.00    +0.068 C 
ATOM     15  C   UNL     1       9.597   6.916   6.009  0.00  0.00    -0.016 A 
ATOM     17  C   UNL     1       9.424   6.220   7.236  0.00  0.00    +0.003 A 
ATOM     18  C   UNL     1       9.957   4.940   7.053  0.00  0.00    +0.047 A 
ATOM     23  C   UNL     1       8.872   6.549   8.490  0.00  0.00    +0.010 A 
ATOM     24  C   UNL     1       9.962   3.973   8.064  0.00  0.00    +0.026 A 
ATOM     25  C   UNL     1       8.869   5.591   9.509  0.00  0.00    +0.001 A 
ATOM     29  C   UNL     1       9.406   4.323   9.297  0.00  0.00    +0.002 A 
ATOM     37  H   UNL     1      10.886   4.064   5.356  0.00  0.00    +0.166 HD
ENDROOT
BRANCH   8  16
ATOM      1  F   UNL     1      11.487  10.374   0.871  0.00  0.00    -0.205 F 
ATOM     16  C   UNL     1       9.461   9.243   1.369  0.00  0.00    +0.005 A 
ATOM     21  C   UNL     1      10.147  10.355   0.882  0.00  0.00    +0.128 A 
ATOM     22  C   UNL     1       8.066   9.232   1.376  0.00  0.00    +0.008 A 
ATOM     27  C   UNL     1       9.439  11.457   0.402  0.00  0.00    +0.038 A 
ATOM     28  C   UNL     1       7.358  10.334   0.896  0.00  0.00    +0.000 A 
ATOM     30  C   UNL     1       8.044  11.446   0.410  0.00  0.00    +0.003 A 
ENDBRANCH   8  16
BRANCH  12  19
ATOM      3  O   UNL     1      12.169   8.530   5.038  0.00  0.00    -0.249 OA
ATOM     19  C   UNL     1      11.298   9.193   4.492  0.00  0.00    +0.325 C 
BRANCH  19   2
ATOM      2  O   UNL     1      11.436  10.453   3.989  0.00  0.00    -0.467 OA
ATOM     31  C   UNL     1      10.497  11.416   4.477  0.00  0.00    +0.280 C 
ENDBRANCH  19   2
ENDBRANCH  12  19
BRANCH  10   6
ATOM      6  N   UNL     1      10.476   4.501   0.413  0.00  0.00    -0.309 NA
ATOM     38  H   UNL     1       9.488   4.255   0.475  0.00  0.00    +0.123 HD
BRANCH   6  20
ATOM     20  C   UNL     1      11.270   3.331   0.758  0.00  0.00    +0.116 C 
BRANCH  20  26
ATOM     26  C   UNL     1      12.741   3.567   0.535  0.00  0.00    -0.034 A 
ATOM     32  C   UNL     1      13.204   3.929  -0.729  0.00  0.00    +0.005 A 
ATOM     33  C   UNL     1      13.638   3.421   1.593  0.00  0.00    +0.005 A 
ATOM     34  C   UNL     1      14.567   4.146  -0.937  0.00  0.00    +0.000 A 
ATOM     35  C   UNL     1      15.001   3.639   1.385  0.00  0.00    +0.000 A 
ATOM     36  C   UNL     1      15.465   4.001   0.120  0.00  0.00    +0.000 A 
ENDBRANCH  20  26
ENDBRANCH   6  20
ENDBRANCH  10   6
TORSDOF 6
ENDMDL
MODEL 10
REMARK VINA RESULT:      -7.1     22.154     25.685
REMARK  Name = 25389662
REMARK  7 active torsions:
REMARK  status: ('A' for Active; 'I' for Inactive)
REMARK    1  A    between atoms: O_2  and  C_19
REMARK    2  A    between atoms: O_2  and  C_31
REMARK    3  A    between atoms: N_6  and  C_10
REMARK    4  A    between atoms: N_6  and  C_20
REMARK    5  A    between atoms: C_8  and  C_16
REMARK    6  A    between atoms: C_12  and  C_19
REMARK    7  A    between atoms: C_20  and  C_26
REMARK                            x       y       z     vdW  Elec       q    Type
REMARK                         _______ _______ _______ _____ _____    ______ ____
ROOT
ATOM      4  N   UNL     1      18.766  -5.687  24.609  0.00  0.00    -0.274 NA
ATOM      5  N   UNL     1      20.683  -8.875  25.126  0.00  0.00    -0.356 N 
ATOM      7  C   UNL     1      18.800  -7.167  24.828  0.00  0.00    +0.106 C 
ATOM      8  C   UNL     1      17.383  -5.150  24.670  0.00  0.00    +0.093 C 
ATOM      9  C   UNL     1      18.178  -7.529  26.186  0.00  0.00    +0.044 C 
ATOM     10  C   UNL     1      16.735  -7.031  26.262  0.00  0.00    +0.058 C 
ATOM     11  C   UNL     1      16.698  -5.525  26.006  0.00  0.00    +0.042 C 
ATOM     12  C   UNL     1      19.549  -5.260  23.417  0.00  0.00    +0.172 C 
ATOM     13  C   UNL     1      20.212  -7.659  24.718  0.00  0.00    +0.038 A 
ATOM     14  C   UNL     1      21.052  -5.622  23.535  0.00  0.00    +0.068 C 
ATOM     15  C   UNL     1      21.247  -6.979  24.116  0.00  0.00    -0.016 A 
ATOM     17  C   UNL     1      22.407  -7.797  24.190  0.00  0.00    +0.003 A 
ATOM     18  C   UNL     1      22.026  -8.981  24.829  0.00  0.00    +0.047 A 
ATOM     23  C   UNL     1      23.745  -7.654  23.774  0.00  0.00    +0.010 A 
ATOM     24  C   UNL     1      22.921 -10.028  25.073  0.00  0.00    +0.026 A 
ATOM     25  C   UNL     1      24.651  -8.692  24.013  0.00  0.00    +0.001 A 
ATOM     29  C   UNL     1      24.243  -9.861  24.653  0.00  0.00    +0.002 A 
ATOM     37  H   UNL     1      20.137  -9.595  25.580  0.00  0.00    +0.166 HD
ENDROOT
BRANCH   8  16
ATOM      1  F   UNL     1      16.034  -3.866  22.519  0.00  0.00    -0.205 F 
ATOM     16  C   UNL     1      17.296  -3.633  24.516  0.00  0.00    +0.005 A 
ATOM     21  C   UNL     1      16.617  -3.077  23.433  0.00  0.00    +0.128 A 
ATOM     22  C   UNL     1      17.898  -2.804  25.462  0.00  0.00    +0.008 A 
ATOM     27  C   UNL     1      16.539  -1.691  23.295  0.00  0.00    +0.038 A 
ATOM     28  C   UNL     1      17.820  -1.418  25.325  0.00  0.00    +0.000 A 
ATOM     30  C   UNL     1      17.141  -0.862  24.241  0.00  0.00    +0.003 A 
ENDBRANCH   8  16
BRANCH  12  19
ATOM      3  O   UNL     1      17.947  -6.527  22.137  0.00  0.00    -0.249 OA
ATOM     19  C   UNL     1      18.955  -5.834  22.162  0.00  0.00    +0.325 C 
BRANCH  19   2
ATOM      2  O   UNL     1      19.709  -5.463  21.089  0.00  0.00    -0.467 OA
ATOM     31  C   UNL     1      19.822  -6.439  20.050  0.00  0.00    +0.280 C 
ENDBRANCH  19   2
ENDBRANCH  12  19
BRANCH  10   6
ATOM      6  N   UNL     1      16.162  -7.351  27.569  0.00  0.00    -0.309 NA
ATOM     38  H   UNL     1      15.144  -7.317  27.508  0.00  0.00    +0.123 HD
BRANCH   6  20
ATOM     20  C   UNL     1      16.600  -6.391  28.572  0.00  0.00    +0.116 C 
BRANCH  20  26
ATOM     26  C   UNL     1      15.499  -6.053  29.543  0.00  0.00    -0.034 A 
ATOM     32  C   UNL     1      15.659  -4.997  30.438  0.00  0.00    +0.005 A 
ATOM     33  C   UNL     1      14.320  -6.799  29.546  0.00  0.00    +0.005 A 
ATOM     34  C   UNL     1      14.640  -4.684  31.338  0.00  0.00    +0.000 A 
ATOM     35  C   UNL     1      13.301  -6.486  30.445  0.00  0.00    +0.000 A 
ATOM     36  C   UNL     1      13.460  -5.429  31.342  0.00  0.00    +0.000 A 
ENDBRANCH  20  26
ENDBRANCH   6  20
ENDBRANCH  10   6
TORSDOF 6
ENDMDL
