MODEL 1
REMARK VINA RESULT:      -7.0      0.000      0.000
REMARK  Name = 7687194
REMARK  2 active torsions:
REMARK  status: ('A' for Active; 'I' for Inactive)
REMARK    1  A    between atoms: N_5  and  C_23
REMARK    2  A    between atoms: C_15  and  C_20
REMARK                            x       y       z     vdW  Elec       q    Type
REMARK                         _______ _______ _______ _____ _____    ______ ____
ROOT
ATOM      1  O   UNL     1       9.100  10.194   3.277  0.00  0.00    -0.268 OA
ATOM      2  O   UNL     1      13.503   8.062   2.875  0.00  0.00    -0.252 OA
ATOM      3  N   UNL     1      10.252   9.284   5.103  0.00  0.00    -0.311 N 
ATOM      4  N   UNL     1      13.155   8.071   5.163  0.00  0.00    -0.284 N 
ATOM      5  N   UNL     1      12.535   6.203   3.864  0.00  0.00    -0.269 N 
ATOM      8  C   UNL     1      12.437  10.317   5.955  0.00  0.00    +0.027 C 
ATOM      9  C   UNL     1      11.537   8.292   7.027  0.00  0.00    +0.054 C 
ATOM     10  C   UNL     1      12.029   9.714   7.293  0.00  0.00    +0.018 C 
ATOM     11  C   UNL     1      11.188  10.416   5.077  0.00  0.00    +0.130 C 
ATOM     12  C   UNL     1      13.545   9.477   5.293  0.00  0.00    +0.114 C 
ATOM     13  C   UNL     1      12.693   7.463   6.421  0.00  0.00    +0.119 C 
ATOM     14  C   UNL     1      10.326   8.276   6.086  0.00  0.00    +0.034 A 
ATOM     15  C   UNL     1       9.364   7.318   6.147  0.00  0.00    +0.005 A 
ATOM     16  C   UNL     1       9.220   9.332   4.148  0.00  0.00    +0.252 A 
ATOM     17  C   UNL     1      13.091   7.480   3.883  0.00  0.00    +0.306 C 
ATOM     18  C   UNL     1       8.287   7.335   5.176  0.00  0.00    +0.015 A 
ATOM     19  C   UNL     1       8.203   8.259   4.220  0.00  0.00    +0.071 A 
ATOM     30  H   UNL     1      12.617   5.625   4.691  0.00  0.00    +0.156 HD
ENDROOT
BRANCH  15  20
ATOM      6  N   UNL     1       9.838   3.953   7.730  0.00  0.00    -0.243 NA
ATOM      7  N   UNL     1       9.064   5.497   9.410  0.00  0.00    -0.243 NA
ATOM     20  C   UNL     1       9.401   6.238   7.156  0.00  0.00    +0.020 A 
ATOM     21  C   UNL     1       9.793   4.962   6.835  0.00  0.00    +0.122 A 
ATOM     22  C   UNL     1       9.043   6.459   8.463  0.00  0.00    +0.122 A 
ATOM     26  C   UNL     1       9.466   4.286   8.980  0.00  0.00    +0.221 A 
ENDBRANCH  15  20
BRANCH   5  23
ATOM     23  C   UNL     1      11.882   5.572   2.778  0.00  0.00    +0.035 A 
ATOM     24  C   UNL     1      10.605   5.981   2.404  0.00  0.00    +0.023 A 
ATOM     25  C   UNL     1      12.523   4.545   2.089  0.00  0.00    +0.023 A 
ATOM     27  C   UNL     1       9.962   5.358   1.335  0.00  0.00    +0.002 A 
ATOM     28  C   UNL     1      11.880   3.922   1.019  0.00  0.00    +0.002 A 
ATOM     29  C   UNL     1      10.600   4.330   0.641  0.00  0.00    +0.000 A 
ENDBRANCH   5  23
TORSDOF 2
ENDMDL
MODEL 2
REMARK VINA RESULT:      -6.2     24.118     26.728
REMARK  Name = 7687194
REMARK  2 active torsions:
REMARK  status: ('A' for Active; 'I' for Inactive)
REMARK    1  A    between atoms: N_5  and  C_23
REMARK    2  A    between atoms: C_15  and  C_20
REMARK                            x       y       z     vdW  Elec       q    Type
REMARK                         _______ _______ _______ _____ _____    ______ ____
ROOT
ATOM      1  O   UNL     1      -1.513 -10.688  16.688  0.00  0.00    -0.268 OA
ATOM      2  O   UNL     1      -4.707 -14.395  17.075  0.00  0.00    -0.252 OA
ATOM      3  N   UNL     1      -3.672 -10.616  15.780  0.00  0.00    -0.311 N 
ATOM      4  N   UNL     1      -5.975 -12.741  16.070  0.00  0.00    -0.284 N 
ATOM      5  N   UNL     1      -4.835 -14.337  14.761  0.00  0.00    -0.269 N 
ATOM      8  C   UNL     1      -5.752 -10.577  17.276  0.00  0.00    +0.027 C 
ATOM      9  C   UNL     1      -6.002 -10.597  14.827  0.00  0.00    +0.054 C 
ATOM     10  C   UNL     1      -6.403  -9.857  16.103  0.00  0.00    +0.018 C 
ATOM     11  C   UNL     1      -4.234 -10.455  17.128  0.00  0.00    +0.130 C 
ATOM     12  C   UNL     1      -6.211 -12.046  17.337  0.00  0.00    +0.114 C 
ATOM     13  C   UNL     1      -6.533 -12.047  14.898  0.00  0.00    +0.119 C 
ATOM     14  C   UNL     1      -4.482 -10.600  14.626  0.00  0.00    +0.034 A 
ATOM     15  C   UNL     1      -3.907 -10.626  13.395  0.00  0.00    +0.005 A 
ATOM     16  C   UNL     1      -2.268 -10.683  15.716  0.00  0.00    +0.252 A 
ATOM     17  C   UNL     1      -5.132 -13.872  16.040  0.00  0.00    +0.306 C 
ATOM     18  C   UNL     1      -2.462 -10.697  13.291  0.00  0.00    +0.015 A 
ATOM     19  C   UNL     1      -1.671 -10.739  14.362  0.00  0.00    +0.071 A 
ATOM     30  H   UNL     1      -5.504 -14.179  14.018  0.00  0.00    +0.156 HD
ENDROOT
BRANCH  15  20
ATOM      6  N   UNL     1      -5.778 -11.801  10.367  0.00  0.00    -0.243 NA
ATOM      7  N   UNL     1      -5.908  -9.398  10.473  0.00  0.00    -0.243 NA
ATOM     20  C   UNL     1      -4.713 -10.615  12.156  0.00  0.00    +0.020 A 
ATOM     21  C   UNL     1      -5.044 -11.774  11.498  0.00  0.00    +0.122 A 
ATOM     22  C   UNL     1      -5.170  -9.445  11.601  0.00  0.00    +0.122 A 
ATOM     26  C   UNL     1      -6.171 -10.595   9.916  0.00  0.00    +0.221 A 
ENDBRANCH  15  20
BRANCH   5  23
ATOM     23  C   UNL     1      -3.691 -15.070  14.364  0.00  0.00    +0.035 A 
ATOM     24  C   UNL     1      -2.532 -14.396  13.988  0.00  0.00    +0.023 A 
ATOM     25  C   UNL     1      -3.731 -16.462  14.352  0.00  0.00    +0.023 A 
ATOM     27  C   UNL     1      -1.406 -15.118  13.595  0.00  0.00    +0.002 A 
ATOM     28  C   UNL     1      -2.604 -17.185  13.959  0.00  0.00    +0.002 A 
ATOM     29  C   UNL     1      -1.441 -16.513  13.582  0.00  0.00    +0.000 A 
ENDBRANCH   5  23
TORSDOF 2
ENDMDL
MODEL 3
REMARK VINA RESULT:      -6.2     23.493     26.553
REMARK  Name = 7687194
REMARK  2 active torsions:
REMARK  status: ('A' for Active; 'I' for Inactive)
REMARK    1  A    between atoms: N_5  and  C_23
REMARK    2  A    between atoms: C_15  and  C_20
REMARK                            x       y       z     vdW  Elec       q    Type
REMARK                         _______ _______ _______ _____ _____    ______ ____
ROOT
ATOM      1  O   UNL     1      -0.841 -13.082  13.713  0.00  0.00    -0.268 OA
ATOM      2  O   UNL     1      -4.830 -13.845  10.957  0.00  0.00    -0.252 OA
ATOM      3  N   UNL     1      -2.987 -13.346  14.615  0.00  0.00    -0.311 N 
ATOM      4  N   UNL     1      -5.656 -14.060  13.108  0.00  0.00    -0.284 N 
ATOM      5  N   UNL     1      -5.731 -11.981  11.997  0.00  0.00    -0.269 N 
ATOM      8  C   UNL     1      -4.235 -15.579  14.470  0.00  0.00    +0.027 C 
ATOM      9  C   UNL     1      -5.317 -13.637  15.526  0.00  0.00    +0.054 C 
ATOM     10  C   UNL     1      -4.937 -15.103  15.734  0.00  0.00    +0.018 C 
ATOM     11  C   UNL     1      -2.938 -14.783  14.316  0.00  0.00    +0.130 C 
ATOM     12  C   UNL     1      -5.155 -15.429  13.244  0.00  0.00    +0.114 C 
ATOM     13  C   UNL     1      -6.288 -13.533  14.327  0.00  0.00    +0.119 C 
ATOM     14  C   UNL     1      -4.083 -12.759  15.282  0.00  0.00    +0.034 A 
ATOM     15  C   UNL     1      -4.030 -11.452  15.649  0.00  0.00    +0.005 A 
ATOM     16  C   UNL     1      -1.830 -12.620  14.283  0.00  0.00    +0.252 A 
ATOM     17  C   UNL     1      -5.364 -13.323  11.939  0.00  0.00    +0.306 C 
ATOM     18  C   UNL     1      -2.853 -10.672  15.322  0.00  0.00    +0.015 A 
ATOM     19  C   UNL     1      -1.812 -11.190  14.669  0.00  0.00    +0.071 A 
ATOM     30  H   UNL     1      -6.508 -11.714  12.590  0.00  0.00    +0.156 HD
ENDROOT
BRANCH  15  20
ATOM      6  N   UNL     1      -7.127  -9.434  16.272  0.00  0.00    -0.243 NA
ATOM      7  N   UNL     1      -6.330 -10.297  18.375  0.00  0.00    -0.243 NA
ATOM     20  C   UNL     1      -5.155 -10.791  16.347  0.00  0.00    +0.020 A 
ATOM     21  C   UNL     1      -6.090 -10.049  15.668  0.00  0.00    +0.122 A 
ATOM     22  C   UNL     1      -5.317 -10.886  17.707  0.00  0.00    +0.122 A 
ATOM     26  C   UNL     1      -7.186  -9.597  17.607  0.00  0.00    +0.221 A 
ENDBRANCH  15  20
BRANCH   5  23
ATOM     23  C   UNL     1      -5.161 -10.907  11.271  0.00  0.00    +0.035 A 
ATOM     24  C   UNL     1      -3.811 -10.604  11.429  0.00  0.00    +0.023 A 
ATOM     25  C   UNL     1      -5.954 -10.161  10.403  0.00  0.00    +0.023 A 
ATOM     27  C   UNL     1      -3.250  -9.546  10.714  0.00  0.00    +0.002 A 
ATOM     28  C   UNL     1      -5.393  -9.103   9.688  0.00  0.00    +0.002 A 
ATOM     29  C   UNL     1      -4.041  -8.797   9.842  0.00  0.00    +0.000 A 
ENDBRANCH   5  23
TORSDOF 2
ENDMDL
MODEL 4
REMARK VINA RESULT:      -6.1      2.160      5.281
REMARK  Name = 7687194
REMARK  2 active torsions:
REMARK  status: ('A' for Active; 'I' for Inactive)
REMARK    1  A    between atoms: N_5  and  C_23
REMARK    2  A    between atoms: C_15  and  C_20
REMARK                            x       y       z     vdW  Elec       q    Type
REMARK                         _______ _______ _______ _____ _____    ______ ____
ROOT
ATOM      1  O   UNL     1       9.813  10.862   4.722  0.00  0.00    -0.268 OA
ATOM      2  O   UNL     1      12.174   7.744   7.688  0.00  0.00    -0.252 OA
ATOM      3  N   UNL     1       9.586   8.535   4.572  0.00  0.00    -0.311 N 
ATOM      4  N   UNL     1      10.798   6.337   6.470  0.00  0.00    -0.284 N 
ATOM      5  N   UNL     1      13.005   6.763   5.759  0.00  0.00    -0.269 N 
ATOM      8  C   UNL     1       8.458   7.178   6.430  0.00  0.00    +0.027 C 
ATOM      9  C   UNL     1       9.382   6.028   4.460  0.00  0.00    +0.054 C 
ATOM     10  C   UNL     1       8.125   6.199   5.313  0.00  0.00    +0.018 C 
ATOM     11  C   UNL     1       8.775   8.535   5.797  0.00  0.00    +0.130 C 
ATOM     12  C   UNL     1       9.625   6.652   7.288  0.00  0.00    +0.114 C 
ATOM     13  C   UNL     1      10.511   5.441   5.338  0.00  0.00    +0.119 C 
ATOM     14  C   UNL     1       9.832   7.356   3.839  0.00  0.00    +0.034 A 
ATOM     15  C   UNL     1      10.480   7.423   2.646  0.00  0.00    +0.005 A 
ATOM     16  C   UNL     1      10.010   9.801   4.129  0.00  0.00    +0.252 A 
ATOM     17  C   UNL     1      12.016   7.008   6.709  0.00  0.00    +0.306 C 
ATOM     18  C   UNL     1      10.934   8.712   2.159  0.00  0.00    +0.015 A 
ATOM     19  C   UNL     1      10.739   9.840   2.841  0.00  0.00    +0.071 A 
ATOM     30  H   UNL     1      12.996   5.880   5.264  0.00  0.00    +0.156 HD
ENDROOT
BRANCH  15  20
ATOM      6  N   UNL     1      10.093   4.631   0.175  0.00  0.00    -0.243 NA
ATOM      7  N   UNL     1      12.233   4.413   1.261  0.00  0.00    -0.243 NA
ATOM     20  C   UNL     1      10.765   6.215   1.843  0.00  0.00    +0.020 A 
ATOM     21  C   UNL     1       9.866   5.729   0.925  0.00  0.00    +0.122 A 
ATOM     22  C   UNL     1      11.941   5.519   1.977  0.00  0.00    +0.122 A 
ATOM     26  C   UNL     1      11.279   4.031   0.391  0.00  0.00    +0.221 A 
ENDBRANCH  15  20
BRANCH   5  23
ATOM     23  C   UNL     1      14.089   7.608   5.418  0.00  0.00    +0.035 A 
ATOM     24  C   UNL     1      14.026   8.382   4.262  0.00  0.00    +0.023 A 
ATOM     25  C   UNL     1      15.211   7.661   6.240  0.00  0.00    +0.023 A 
ATOM     27  C   UNL     1      15.094   9.214   3.925  0.00  0.00    +0.002 A 
ATOM     28  C   UNL     1      16.279   8.492   5.904  0.00  0.00    +0.002 A 
ATOM     29  C   UNL     1      16.220   9.270   4.747  0.00  0.00    +0.000 A 
ENDBRANCH   5  23
TORSDOF 2
ENDMDL
MODEL 5
REMARK VINA RESULT:      -6.0     24.213     27.886
REMARK  Name = 7687194
REMARK  2 active torsions:
REMARK  status: ('A' for Active; 'I' for Inactive)
REMARK    1  A    between atoms: N_5  and  C_23
REMARK    2  A    between atoms: C_15  and  C_20
REMARK                            x       y       z     vdW  Elec       q    Type
REMARK                         _______ _______ _______ _____ _____    ______ ____
ROOT
ATOM      1  O   UNL     1      -7.912 -14.577  17.237  0.00  0.00    -0.268 OA
ATOM      2  O   UNL     1      -8.586  -9.744  17.764  0.00  0.00    -0.252 OA
ATOM      3  N   UNL     1      -6.162 -13.024  17.135  0.00  0.00    -0.311 N 
ATOM      4  N   UNL     1      -6.281  -9.922  17.655  0.00  0.00    -0.284 N 
ATOM      5  N   UNL     1      -7.546  -9.519  15.705  0.00  0.00    -0.269 N 
ATOM      8  C   UNL     1      -5.440 -11.683  19.196  0.00  0.00    +0.027 C 
ATOM      9  C   UNL     1      -4.322 -11.307  17.036  0.00  0.00    +0.054 C 
ATOM     10  C   UNL     1      -4.082 -11.635  18.510  0.00  0.00    +0.018 C 
ATOM     11  C   UNL     1      -6.241 -12.837  18.590  0.00  0.00    +0.130 C 
ATOM     12  C   UNL     1      -6.171 -10.334  19.055  0.00  0.00    +0.114 C 
ATOM     13  C   UNL     1      -5.000  -9.922  16.931  0.00  0.00    +0.119 C 
ATOM     14  C   UNL     1      -5.187 -12.372  16.350  0.00  0.00    +0.034 A 
ATOM     15  C   UNL     1      -5.072 -12.670  15.030  0.00  0.00    +0.005 A 
ATOM     16  C   UNL     1      -7.052 -13.970  16.598  0.00  0.00    +0.252 A 
ATOM     17  C   UNL     1      -7.557  -9.729  17.082  0.00  0.00    +0.306 C 
ATOM     18  C   UNL     1      -5.974 -13.640  14.442  0.00  0.00    +0.015 A 
ATOM     19  C   UNL     1      -6.921 -14.255  15.150  0.00  0.00    +0.071 A 
ATOM     30  H   UNL     1      -6.727  -9.098  15.284  0.00  0.00    +0.156 HD
ENDROOT
BRANCH  15  20
ATOM      6  N   UNL     1      -3.499 -10.297  12.591  0.00  0.00    -0.243 NA
ATOM      7  N   UNL     1      -1.832 -11.877  13.318  0.00  0.00    -0.243 NA
ATOM     20  C   UNL     1      -4.069 -12.010  14.165  0.00  0.00    +0.020 A 
ATOM     21  C   UNL     1      -4.387 -10.922  13.390  0.00  0.00    +0.122 A 
ATOM     22  C   UNL     1      -2.772 -12.455  14.095  0.00  0.00    +0.122 A 
ATOM     26  C   UNL     1      -2.258 -10.818  12.603  0.00  0.00    +0.221 A 
ENDBRANCH  15  20
BRANCH   5  23
ATOM     23  C   UNL     1      -8.592  -9.791  14.791  0.00  0.00    +0.035 A 
ATOM     24  C   UNL     1      -8.548 -10.943  14.011  0.00  0.00    +0.023 A 
ATOM     25  C   UNL     1      -9.660  -8.905  14.678  0.00  0.00    +0.023 A 
ATOM     27  C   UNL     1      -9.578 -11.211  13.110  0.00  0.00    +0.002 A 
ATOM     28  C   UNL     1     -10.691  -9.172  13.777  0.00  0.00    +0.002 A 
ATOM     29  C   UNL     1     -10.650 -10.326  12.994  0.00  0.00    +0.000 A 
ENDBRANCH   5  23
TORSDOF 2
ENDMDL
MODEL 6
REMARK VINA RESULT:      -5.8     23.656     27.447
REMARK  Name = 7687194
REMARK  2 active torsions:
REMARK  status: ('A' for Active; 'I' for Inactive)
REMARK    1  A    between atoms: N_5  and  C_23
REMARK    2  A    between atoms: C_15  and  C_20
REMARK                            x       y       z     vdW  Elec       q    Type
REMARK                         _______ _______ _______ _____ _____    ______ ____
ROOT
ATOM      1  O   UNL     1      -7.299 -14.784  16.771  0.00  0.00    -0.268 OA
ATOM      2  O   UNL     1      -9.237 -10.405  15.691  0.00  0.00    -0.252 OA
ATOM      3  N   UNL     1      -6.178 -12.761  17.148  0.00  0.00    -0.311 N 
ATOM      4  N   UNL     1      -7.265  -9.834  16.759  0.00  0.00    -0.284 N 
ATOM      5  N   UNL     1      -7.340 -10.041  14.411  0.00  0.00    -0.269 N 
ATOM      8  C   UNL     1      -7.005 -11.079  18.896  0.00  0.00    +0.027 C 
ATOM      9  C   UNL     1      -5.024 -10.557  17.531  0.00  0.00    +0.054 C 
ATOM     10  C   UNL     1      -5.544 -10.655  18.965  0.00  0.00    +0.018 C 
ATOM     11  C   UNL     1      -7.066 -12.481  18.285  0.00  0.00    +0.130 C 
ATOM     12  C   UNL     1      -7.832 -10.060  18.090  0.00  0.00    +0.114 C 
ATOM     13  C   UNL     1      -5.836  -9.482  16.773  0.00  0.00    +0.119 C 
ATOM     14  C   UNL     1      -5.116 -11.902  16.800  0.00  0.00    +0.034 A 
ATOM     15  C   UNL     1      -4.246 -12.264  15.821  0.00  0.00    +0.005 A 
ATOM     16  C   UNL     1      -6.397 -13.990  16.500  0.00  0.00    +0.252 A 
ATOM     17  C   UNL     1      -8.039 -10.118  15.613  0.00  0.00    +0.306 C 
ATOM     18  C   UNL     1      -4.441 -13.524  15.131  0.00  0.00    +0.015 A 
ATOM     19  C   UNL     1      -5.450 -14.346  15.419  0.00  0.00    +0.071 A 
ATOM     30  H   UNL     1      -6.545  -9.416  14.350  0.00  0.00    +0.156 HD
ENDROOT
BRANCH  15  20
ATOM      6  N   UNL     1      -1.999 -10.100  13.742  0.00  0.00    -0.243 NA
ATOM      7  N   UNL     1      -1.082 -10.257  15.964  0.00  0.00    -0.243 NA
ATOM     20  C   UNL     1      -3.119 -11.395  15.418  0.00  0.00    +0.020 A 
ATOM     21  C   UNL     1      -3.012 -10.895  14.143  0.00  0.00    +0.122 A 
ATOM     22  C   UNL     1      -2.124 -11.047  16.298  0.00  0.00    +0.122 A 
ATOM     26  C   UNL     1      -1.083  -9.825  14.689  0.00  0.00    +0.221 A 
ENDBRANCH  15  20
BRANCH   5  23
ATOM     23  C   UNL     1      -7.637 -10.719  13.205  0.00  0.00    +0.035 A 
ATOM     24  C   UNL     1      -8.383 -10.081  12.218  0.00  0.00    +0.023 A 
ATOM     25  C   UNL     1      -7.181 -12.020  13.012  0.00  0.00    +0.023 A 
ATOM     27  C   UNL     1      -8.677 -10.750  11.029  0.00  0.00    +0.002 A 
ATOM     28  C   UNL     1      -7.475 -12.689  11.824  0.00  0.00    +0.002 A 
ATOM     29  C   UNL     1      -8.221 -12.053  10.832  0.00  0.00    +0.000 A 
ENDBRANCH   5  23
TORSDOF 2
ENDMDL
MODEL 7
REMARK VINA RESULT:      -5.8     21.374     25.080
REMARK  Name = 7687194
REMARK  2 active torsions:
REMARK  status: ('A' for Active; 'I' for Inactive)
REMARK    1  A    between atoms: N_5  and  C_23
REMARK    2  A    between atoms: C_15  and  C_20
REMARK                            x       y       z     vdW  Elec       q    Type
REMARK                         _______ _______ _______ _____ _____    ______ ____
ROOT
ATOM      1  O   UNL     1      21.883  -6.581  24.231  0.00  0.00    -0.268 OA
ATOM      2  O   UNL     1      19.342  -5.887  28.373  0.00  0.00    -0.252 OA
ATOM      3  N   UNL     1      20.764  -4.583  24.725  0.00  0.00    -0.311 N 
ATOM      4  N   UNL     1      19.263  -3.799  27.377  0.00  0.00    -0.284 N 
ATOM      5  N   UNL     1      17.540  -5.367  27.012  0.00  0.00    -0.269 N 
ATOM      8  C   UNL     1      21.523  -3.064  26.645  0.00  0.00    +0.027 C 
ATOM      9  C   UNL     1      19.544  -2.460  25.312  0.00  0.00    +0.054 C 
ATOM     10  C   UNL     1      20.894  -1.951  25.820  0.00  0.00    +0.018 C 
ATOM     11  C   UNL     1      21.796  -4.250  25.718  0.00  0.00    +0.130 C 
ATOM     12  C   UNL     1      20.612  -3.450  27.826  0.00  0.00    +0.114 C 
ATOM     13  C   UNL     1      18.637  -2.778  26.523  0.00  0.00    +0.119 C 
ATOM     14  C   UNL     1      19.702  -3.704  24.429  0.00  0.00    +0.034 A 
ATOM     15  C   UNL     1      18.844  -3.996  23.417  0.00  0.00    +0.005 A 
ATOM     16  C   UNL     1      20.967  -5.784  24.023  0.00  0.00    +0.252 A 
ATOM     17  C   UNL     1      18.751  -5.088  27.640  0.00  0.00    +0.306 C 
ATOM     18  C   UNL     1      19.022  -5.228  22.672  0.00  0.00    +0.015 A 
ATOM     19  C   UNL     1      20.000  -6.091  22.944  0.00  0.00    +0.071 A 
ATOM     30  H   UNL     1      16.912  -4.600  26.803  0.00  0.00    +0.156 HD
ENDROOT
BRANCH  15  20
ATOM      6  N   UNL     1      16.904  -1.022  22.216  0.00  0.00    -0.243 NA
ATOM      7  N   UNL     1      15.353  -2.709  22.958  0.00  0.00    -0.243 NA
ATOM     20  C   UNL     1      17.713  -3.109  23.071  0.00  0.00    +0.020 A 
ATOM     21  C   UNL     1      17.912  -1.857  22.543  0.00  0.00    +0.122 A 
ATOM     22  C   UNL     1      16.409  -3.493  23.262  0.00  0.00    +0.122 A 
ATOM     26  C   UNL     1      15.669  -1.505  22.446  0.00  0.00    +0.221 A 
ENDBRANCH  15  20
BRANCH   5  23
ATOM     23  C   UNL     1      17.037  -6.641  26.653  0.00  0.00    +0.035 A 
ATOM     24  C   UNL     1      16.177  -7.314  27.517  0.00  0.00    +0.023 A 
ATOM     25  C   UNL     1      17.405  -7.213  25.438  0.00  0.00    +0.023 A 
ATOM     27  C   UNL     1      15.682  -8.569  27.164  0.00  0.00    +0.002 A 
ATOM     28  C   UNL     1      16.910  -8.469  25.085  0.00  0.00    +0.002 A 
ATOM     29  C   UNL     1      16.047  -9.146  25.947  0.00  0.00    +0.000 A 
ENDBRANCH   5  23
TORSDOF 2
ENDMDL
MODEL 8
REMARK VINA RESULT:      -5.7     24.108     27.891
REMARK  Name = 7687194
REMARK  2 active torsions:
REMARK  status: ('A' for Active; 'I' for Inactive)
REMARK    1  A    between atoms: N_5  and  C_23
REMARK    2  A    between atoms: C_15  and  C_20
REMARK                            x       y       z     vdW  Elec       q    Type
REMARK                         _______ _______ _______ _____ _____    ______ ____
ROOT
ATOM      1  O   UNL     1      -8.560 -14.201  16.115  0.00  0.00    -0.268 OA
ATOM      2  O   UNL     1      -7.726 -10.054  18.606  0.00  0.00    -0.252 OA
ATOM      3  N   UNL     1      -6.745 -12.787  15.674  0.00  0.00    -0.311 N 
ATOM      4  N   UNL     1      -5.859 -10.210  17.249  0.00  0.00    -0.284 N 
ATOM      5  N   UNL     1      -7.748  -8.984  16.551  0.00  0.00    -0.269 N 
ATOM      8  C   UNL     1      -4.846 -12.479  17.367  0.00  0.00    +0.027 C 
ATOM      9  C   UNL     1      -4.813 -11.230  15.247  0.00  0.00    +0.054 C 
ATOM     10  C   UNL     1      -4.000 -12.165  16.142  0.00  0.00    +0.018 C 
ATOM     11  C   UNL     1      -6.089 -13.244  16.907  0.00  0.00    +0.130 C 
ATOM     12  C   UNL     1      -5.210 -11.188  18.125  0.00  0.00    +0.114 C 
ATOM     13  C   UNL     1      -5.105  -9.922  16.018  0.00  0.00    +0.119 C 
ATOM     14  C   UNL     1      -6.126 -11.879  14.791  0.00  0.00    +0.034 A 
ATOM     15  C   UNL     1      -6.715 -11.581  13.603  0.00  0.00    +0.005 A 
ATOM     16  C   UNL     1      -7.981 -13.393  15.388  0.00  0.00    +0.252 A 
ATOM     17  C   UNL     1      -7.165  -9.766  17.545  0.00  0.00    +0.306 C 
ATOM     18  C   UNL     1      -7.992 -12.187  13.276  0.00  0.00    +0.015 A 
ATOM     19  C   UNL     1      -8.614 -13.029  14.100  0.00  0.00    +0.071 A 
ATOM     30  H   UNL     1      -7.146  -8.437  15.947  0.00  0.00    +0.156 HD
ENDROOT
BRANCH  15  20
ATOM      6  N   UNL     1      -4.546 -10.181  10.885  0.00  0.00    -0.243 NA
ATOM      7  N   UNL     1      -5.965  -8.425  11.725  0.00  0.00    -0.243 NA
ATOM     20  C   UNL     1      -6.107 -10.632  12.646  0.00  0.00    +0.020 A 
ATOM     21  C   UNL     1      -5.122 -11.019  11.771  0.00  0.00    +0.122 A 
ATOM     22  C   UNL     1      -6.498  -9.317  12.586  0.00  0.00    +0.122 A 
ATOM     26  C   UNL     1      -5.009  -8.917  10.916  0.00  0.00    +0.221 A 
ENDBRANCH  15  20
BRANCH   5  23
ATOM     23  C   UNL     1      -9.131  -8.816  16.297  0.00  0.00    +0.035 A 
ATOM     24  C   UNL     1      -9.770  -9.638  15.373  0.00  0.00    +0.023 A 
ATOM     25  C   UNL     1      -9.844  -7.830  16.974  0.00  0.00    +0.023 A 
ATOM     27  C   UNL     1     -11.132  -9.472  15.123  0.00  0.00    +0.002 A 
ATOM     28  C   UNL     1     -11.206  -7.664  16.723  0.00  0.00    +0.002 A 
ATOM     29  C   UNL     1     -11.850  -8.486  15.799  0.00  0.00    +0.000 A 
ENDBRANCH   5  23
TORSDOF 2
ENDMDL
MODEL 9
REMARK VINA RESULT:      -5.7     21.775     24.902
REMARK  Name = 7687194
REMARK  2 active torsions:
REMARK  status: ('A' for Active; 'I' for Inactive)
REMARK    1  A    between atoms: N_5  and  C_23
REMARK    2  A    between atoms: C_15  and  C_20
REMARK                            x       y       z     vdW  Elec       q    Type
REMARK                         _______ _______ _______ _____ _____    ______ ____
ROOT
ATOM      1  O   UNL     1      19.544  -4.595  20.945  0.00  0.00    -0.268 OA
ATOM      2  O   UNL     1      20.795  -1.726  24.726  0.00  0.00    -0.252 OA
ATOM      3  N   UNL     1      18.206  -4.336  22.851  0.00  0.00    -0.311 N 
ATOM      4  N   UNL     1      18.658  -2.408  25.297  0.00  0.00    -0.284 N 
ATOM      5  N   UNL     1      20.542  -3.609  26.053  0.00  0.00    -0.269 N 
ATOM      8  C   UNL     1      17.079  -2.101  23.401  0.00  0.00    +0.027 C 
ATOM      9  C   UNL     1      16.811  -4.018  24.922  0.00  0.00    +0.054 C 
ATOM     10  C   UNL     1      16.050  -2.964  24.118  0.00  0.00    +0.018 C 
ATOM     11  C   UNL     1      17.832  -2.986  22.406  0.00  0.00    +0.130 C 
ATOM     12  C   UNL     1      18.027  -1.428  24.411  0.00  0.00    +0.114 C 
ATOM     13  C   UNL     1      17.705  -3.307  25.966  0.00  0.00    +0.119 C 
ATOM     14  C   UNL     1      17.666  -4.914  24.018  0.00  0.00    +0.034 A 
ATOM     15  C   UNL     1      17.944  -6.209  24.323  0.00  0.00    +0.005 A 
ATOM     16  C   UNL     1      19.055  -5.045  21.981  0.00  0.00    +0.252 A 
ATOM     17  C   UNL     1      20.065  -2.527  25.316  0.00  0.00    +0.306 C 
ATOM     18  C   UNL     1      18.817  -6.970  23.450  0.00  0.00    +0.015 A 
ATOM     19  C   UNL     1      19.363  -6.444  22.353  0.00  0.00    +0.071 A 
ATOM     30  H   UNL     1      19.988  -3.951  26.829  0.00  0.00    +0.156 HD
ENDROOT
BRANCH  15  20
ATOM      6  N   UNL     1      17.619  -7.410  27.859  0.00  0.00    -0.243 NA
ATOM      7  N   UNL     1      15.683  -8.125  26.618  0.00  0.00    -0.243 NA
ATOM     20  C   UNL     1      17.405  -6.858  25.538  0.00  0.00    +0.020 A 
ATOM     21  C   UNL     1      18.081  -6.829  26.732  0.00  0.00    +0.122 A 
ATOM     22  C   UNL     1      16.203  -7.522  25.529  0.00  0.00    +0.122 A 
ATOM     26  C   UNL     1      16.432  -8.031  27.732  0.00  0.00    +0.221 A 
ENDBRANCH  15  20
BRANCH   5  23
ATOM     23  C   UNL     1      21.771  -4.289  25.874  0.00  0.00    +0.035 A 
ATOM     24  C   UNL     1      22.798  -4.117  26.798  0.00  0.00    +0.023 A 
ATOM     25  C   UNL     1      21.944  -5.127  24.776  0.00  0.00    +0.023 A 
ATOM     27  C   UNL     1      24.009  -4.787  26.621  0.00  0.00    +0.002 A 
ATOM     28  C   UNL     1      23.154  -5.797  24.599  0.00  0.00    +0.002 A 
ATOM     29  C   UNL     1      24.186  -5.628  25.522  0.00  0.00    +0.000 A 
ENDBRANCH   5  23
TORSDOF 2
ENDMDL
MODEL 10
REMARK VINA RESULT:      -5.6     22.345     26.223
REMARK  Name = 7687194
REMARK  2 active torsions:
REMARK  status: ('A' for Active; 'I' for Inactive)
REMARK    1  A    between atoms: N_5  and  C_23
REMARK    2  A    between atoms: C_15  and  C_20
REMARK                            x       y       z     vdW  Elec       q    Type
REMARK                         _______ _______ _______ _____ _____    ______ ____
ROOT
ATOM      1  O   UNL     1      19.331  -8.830  25.353  0.00  0.00    -0.268 OA
ATOM      2  O   UNL     1      19.847  -5.974  29.312  0.00  0.00    -0.252 OA
ATOM      3  N   UNL     1      19.856  -6.551  25.226  0.00  0.00    -0.311 N 
ATOM      4  N   UNL     1      20.458  -4.558  27.586  0.00  0.00    -0.284 N 
ATOM      5  N   UNL     1      18.231  -4.611  28.362  0.00  0.00    -0.269 N 
ATOM      8  C   UNL     1      22.100  -5.645  26.068  0.00  0.00    +0.027 C 
ATOM      9  C   UNL     1      20.420  -4.098  25.151  0.00  0.00    +0.054 C 
ATOM     10  C   UNL     1      21.877  -4.545  25.039  0.00  0.00    +0.018 C 
ATOM     11  C   UNL     1      21.220  -6.838  25.690  0.00  0.00    +0.130 C 
ATOM     12  C   UNL     1      21.801  -5.132  27.489  0.00  0.00    +0.114 C 
ATOM     13  C   UNL     1      20.174  -3.533  26.569  0.00  0.00    +0.119 C 
ATOM     14  C   UNL     1      19.448  -5.249  24.866  0.00  0.00    +0.034 A 
ATOM     15  C   UNL     1      18.218  -5.052  24.324  0.00  0.00    +0.005 A 
ATOM     16  C   UNL     1      19.023  -7.673  25.068  0.00  0.00    +0.252 A 
ATOM     17  C   UNL     1      19.524  -5.115  28.487  0.00  0.00    +0.306 C 
ATOM     18  C   UNL     1      17.331  -6.186  24.148  0.00  0.00    +0.015 A 
ATOM     19  C   UNL     1      17.678  -7.423  24.502  0.00  0.00    +0.071 A 
ATOM     30  H   UNL     1      18.108  -3.667  28.016  0.00  0.00    +0.156 HD
ENDROOT
BRANCH  15  20
ATOM      6  N   UNL     1      16.506  -1.719  24.444  0.00  0.00    -0.243 NA
ATOM      7  N   UNL     1      17.650  -1.926  22.334  0.00  0.00    -0.243 NA
ATOM     20  C   UNL     1      17.743  -3.706  23.934  0.00  0.00    +0.020 A 
ATOM     21  C   UNL     1      16.956  -2.949  24.767  0.00  0.00    +0.122 A 
ATOM     22  C   UNL     1      18.065  -3.150  22.721  0.00  0.00    +0.122 A 
ATOM     26  C   UNL     1      16.885  -1.275  23.231  0.00  0.00    +0.221 A 
ENDBRANCH  15  20
BRANCH   5  23
ATOM     23  C   UNL     1      17.023  -5.260  28.713  0.00  0.00    +0.035 A 
ATOM     24  C   UNL     1      16.522  -6.275  27.903  0.00  0.00    +0.023 A 
ATOM     25  C   UNL     1      16.344  -4.881  29.868  0.00  0.00    +0.023 A 
ATOM     27  C   UNL     1      15.332  -6.915  28.248  0.00  0.00    +0.002 A 
ATOM     28  C   UNL     1      15.154  -5.521  30.214  0.00  0.00    +0.002 A 
ATOM     29  C   UNL     1      14.649  -6.539  29.405  0.00  0.00    +0.000 A 
ENDBRANCH   5  23
TORSDOF 2
ENDMDL
