MODEL 1
REMARK VINA RESULT:      -7.5      0.000      0.000
REMARK  Name = 45360662
REMARK  10 active torsions:
REMARK  status: ('A' for Active; 'I' for Inactive)
REMARK    1  A    between atoms: O_4  and  C_32
REMARK    2  A    between atoms: O_4  and  C_33
REMARK    3  A    between atoms: N_7  and  C_10
REMARK    4  A    between atoms: N_7  and  C_18
REMARK    5  A    between atoms: N_8  and  C_23
REMARK    6  A    between atoms: C_11  and  C_16
REMARK    7  A    between atoms: C_16  and  C_17
REMARK    8  A    between atoms: C_17  and  C_19
REMARK    9  A    between atoms: C_18  and  C_20
REMARK   10  A    between atoms: C_23  and  C_27
REMARK                            x       y       z     vdW  Elec       q    Type
REMARK                         _______ _______ _______ _____ _____    ______ ____
ROOT
ATOM      2  O   UNL     1      -7.242 -12.262  19.856  0.00  0.00    -0.274 OA
ATOM      5  N   UNL     1      -5.223 -10.702  17.245  0.00  0.00    -0.286 NA
ATOM      6  N   UNL     1      -5.887 -13.217  18.298  0.00  0.00    -0.313 N 
ATOM      9  C   UNL     1      -5.963 -10.738  18.513  0.00  0.00    +0.145 C 
ATOM     10  C   UNL     1      -7.020  -9.334  16.838  0.00  0.00    +0.070 C 
ATOM     11  C   UNL     1      -4.302 -11.817  17.055  0.00  0.00    +0.075 C 
ATOM     12  C   UNL     1      -7.161  -9.803  18.287  0.00  0.00    +0.048 C 
ATOM     13  C   UNL     1      -6.195 -10.434  16.187  0.00  0.00    +0.104 C 
ATOM     14  C   UNL     1      -5.037 -13.146  17.132  0.00  0.00    +0.123 C 
ATOM     15  C   UNL     1      -6.435 -12.128  18.930  0.00  0.00    +0.230 C 
ATOM     34  H   UNL     1      -6.194 -14.137  18.599  0.00  0.00    +0.149 HD
ENDROOT
BRANCH  10   7
ATOM      7  N   UNL     1      -8.299  -9.105  16.186  0.00  0.00    -0.308 NA
ATOM     35  H   UNL     1      -8.228  -8.278  15.593  0.00  0.00    +0.123 HD
BRANCH   7  18
ATOM     18  C   UNL     1      -9.357  -8.891  17.167  0.00  0.00    +0.116 C 
BRANCH  18  20
ATOM      1  F   UNL     1     -13.543  -5.744  15.099  0.00  0.00    -0.205 F 
ATOM     20  C   UNL     1     -10.472  -8.051  16.615  0.00  0.00    -0.033 A 
ATOM     21  C   UNL     1     -11.796  -8.463  16.771  0.00  0.00    +0.008 A 
ATOM     22  C   UNL     1     -10.186  -6.861  15.947  0.00  0.00    +0.008 A 
ATOM     24  C   UNL     1     -12.834  -7.683  16.259  0.00  0.00    +0.038 A 
ATOM     25  C   UNL     1     -11.223  -6.082  15.435  0.00  0.00    +0.038 A 
ATOM     26  C   UNL     1     -12.547  -6.493  15.591  0.00  0.00    +0.123 A 
ENDBRANCH  18  20
ENDBRANCH   7  18
ENDBRANCH  10   7
BRANCH  11  16
ATOM     16  C   UNL     1      -3.498 -11.708  15.758  0.00  0.00    +0.029 C 
BRANCH  16  17
ATOM     17  C   UNL     1      -2.269 -10.829  15.945  0.00  0.00    +0.097 C 
BRANCH  17  19
ATOM      3  O   UNL     1      -0.944  -9.360  14.549  0.00  0.00    -0.276 OA
ATOM      8  N   UNL     1      -2.305 -10.951  13.544  0.00  0.00    -0.311 N 
ATOM     19  C   UNL     1      -1.752 -10.282  14.627  0.00  0.00    +0.213 C 
ATOM     36  H   UNL     1      -2.988 -11.686  13.696  0.00  0.00    +0.149 HD
BRANCH   8  23
ATOM     23  C   UNL     1      -1.972 -10.616  12.179  0.00  0.00    +0.139 C 
BRANCH  23  27
ATOM     27  C   UNL     1      -3.145 -10.038  11.442  0.00  0.00    -0.030 A 
ATOM     28  C   UNL     1      -2.950  -9.377  10.228  0.00  0.00    +0.009 A 
ATOM     29  C   UNL     1      -4.430 -10.160  11.969  0.00  0.00    +0.009 A 
ATOM     30  C   UNL     1      -4.039  -8.840   9.543  0.00  0.00    +0.046 A 
ATOM     31  C   UNL     1      -5.519  -9.623  11.284  0.00  0.00    +0.046 A 
ATOM     32  C   UNL     1      -5.324  -8.963  10.071  0.00  0.00    +0.120 A 
BRANCH  32   4
ATOM      4  O   UNL     1      -6.387  -8.441   9.401  0.00  0.00    -0.495 OA
ATOM     33  C   UNL     1      -7.685  -8.700   9.937  0.00  0.00    +0.277 C 
ENDBRANCH  32   4
ENDBRANCH  23  27
ENDBRANCH   8  23
ENDBRANCH  17  19
ENDBRANCH  16  17
ENDBRANCH  11  16
TORSDOF 9
ENDMDL
MODEL 2
REMARK VINA RESULT:      -7.1      1.973      2.795
REMARK  Name = 45360662
REMARK  10 active torsions:
REMARK  status: ('A' for Active; 'I' for Inactive)
REMARK    1  A    between atoms: O_4  and  C_32
REMARK    2  A    between atoms: O_4  and  C_33
REMARK    3  A    between atoms: N_7  and  C_10
REMARK    4  A    between atoms: N_7  and  C_18
REMARK    5  A    between atoms: N_8  and  C_23
REMARK    6  A    between atoms: C_11  and  C_16
REMARK    7  A    between atoms: C_16  and  C_17
REMARK    8  A    between atoms: C_17  and  C_19
REMARK    9  A    between atoms: C_18  and  C_20
REMARK   10  A    between atoms: C_23  and  C_27
REMARK                            x       y       z     vdW  Elec       q    Type
REMARK                         _______ _______ _______ _____ _____    ______ ____
ROOT
ATOM      2  O   UNL     1      -9.129 -11.878  14.271  0.00  0.00    -0.274 OA
ATOM      5  N   UNL     1      -6.810 -10.977  16.943  0.00  0.00    -0.286 NA
ATOM      6  N   UNL     1      -7.117 -10.823  14.158  0.00  0.00    -0.313 N 
ATOM      9  C   UNL     1      -7.909 -11.738  16.333  0.00  0.00    +0.145 C 
ATOM     10  C   UNL     1      -8.644 -10.296  18.144  0.00  0.00    +0.070 C 
ATOM     11  C   UNL     1      -5.623 -10.859  16.103  0.00  0.00    +0.075 C 
ATOM     12  C   UNL     1      -9.152 -11.330  17.137  0.00  0.00    +0.048 C 
ATOM     13  C   UNL     1      -7.386  -9.748  17.485  0.00  0.00    +0.104 C 
ATOM     14  C   UNL     1      -5.964 -10.207  14.773  0.00  0.00    +0.123 C 
ATOM     15  C   UNL     1      -8.116 -11.468  14.846  0.00  0.00    +0.230 C 
ATOM     34  H   UNL     1      -7.257 -10.668  13.164  0.00  0.00    +0.149 HD
ENDROOT
BRANCH  10   7
ATOM      7  N   UNL     1      -9.627  -9.273  18.457  0.00  0.00    -0.308 NA
ATOM     35  H   UNL     1      -9.781  -9.255  19.465  0.00  0.00    +0.123 HD
BRANCH   7  18
ATOM     18  C   UNL     1     -10.897  -9.545  17.793  0.00  0.00    +0.116 C 
BRANCH  18  20
ATOM      1  F   UNL     1     -12.684  -5.136  14.782  0.00  0.00    -0.205 F 
ATOM     20  C   UNL     1     -11.374  -8.370  16.990  0.00  0.00    -0.033 A 
ATOM     21  C   UNL     1     -10.486  -7.347  16.657  0.00  0.00    +0.008 A 
ATOM     22  C   UNL     1     -12.704  -8.301  16.577  0.00  0.00    +0.008 A 
ATOM     24  C   UNL     1     -10.929  -6.254  15.911  0.00  0.00    +0.038 A 
ATOM     25  C   UNL     1     -13.147  -7.208  15.832  0.00  0.00    +0.038 A 
ATOM     26  C   UNL     1     -12.259  -6.185  15.498  0.00  0.00    +0.123 A 
ENDBRANCH  18  20
ENDBRANCH   7  18
ENDBRANCH  10   7
BRANCH  11  16
ATOM     16  C   UNL     1      -4.476 -10.123  16.798  0.00  0.00    +0.029 C 
BRANCH  16  17
ATOM     17  C   UNL     1      -3.291 -11.049  17.035  0.00  0.00    +0.097 C 
BRANCH  17  19
ATOM      3  O   UNL     1      -1.487 -10.079  15.744  0.00  0.00    -0.276 OA
ATOM      8  N   UNL     1      -2.399 -12.103  15.067  0.00  0.00    -0.311 N 
ATOM     19  C   UNL     1      -2.288 -10.997  15.896  0.00  0.00    +0.213 C 
ATOM     36  H   UNL     1      -3.109 -12.806  15.248  0.00  0.00    +0.149 HD
BRANCH   8  23
ATOM     23  C   UNL     1      -1.555 -12.287  13.910  0.00  0.00    +0.139 C 
BRANCH  23  27
ATOM     27  C   UNL     1      -2.198 -11.767  12.657  0.00  0.00    -0.030 A 
ATOM     28  C   UNL     1      -3.020 -12.600  11.897  0.00  0.00    +0.009 A 
ATOM     29  C   UNL     1      -1.975 -10.451  12.253  0.00  0.00    +0.009 A 
ATOM     30  C   UNL     1      -3.618 -12.116  10.733  0.00  0.00    +0.046 A 
ATOM     31  C   UNL     1      -2.572  -9.968  11.089  0.00  0.00    +0.046 A 
ATOM     32  C   UNL     1      -3.393 -10.800  10.329  0.00  0.00    +0.120 A 
BRANCH  32   4
ATOM      4  O   UNL     1      -3.978 -10.328   9.195  0.00  0.00    -0.495 OA
ATOM     33  C   UNL     1      -4.254  -8.929   9.138  0.00  0.00    +0.277 C 
ENDBRANCH  32   4
ENDBRANCH  23  27
ENDBRANCH   8  23
ENDBRANCH  17  19
ENDBRANCH  16  17
ENDBRANCH  11  16
TORSDOF 9
ENDMDL
MODEL 3
REMARK VINA RESULT:      -6.9     18.365     21.802
REMARK  Name = 45360662
REMARK  10 active torsions:
REMARK  status: ('A' for Active; 'I' for Inactive)
REMARK    1  A    between atoms: O_4  and  C_32
REMARK    2  A    between atoms: O_4  and  C_33
REMARK    3  A    between atoms: N_7  and  C_10
REMARK    4  A    between atoms: N_7  and  C_18
REMARK    5  A    between atoms: N_8  and  C_23
REMARK    6  A    between atoms: C_11  and  C_16
REMARK    7  A    between atoms: C_16  and  C_17
REMARK    8  A    between atoms: C_17  and  C_19
REMARK    9  A    between atoms: C_18  and  C_20
REMARK   10  A    between atoms: C_23  and  C_27
REMARK                            x       y       z     vdW  Elec       q    Type
REMARK                         _______ _______ _______ _____ _____    ______ ____
ROOT
ATOM      2  O   UNL     1     -17.829   2.031  21.993  0.00  0.00    -0.274 OA
ATOM      5  N   UNL     1     -17.242   3.501  25.281  0.00  0.00    -0.286 NA
ATOM      6  N   UNL     1     -17.315   1.024  23.966  0.00  0.00    -0.313 N 
ATOM      9  C   UNL     1     -17.772   3.470  23.912  0.00  0.00    +0.145 C 
ATOM     10  C   UNL     1     -16.010   5.114  24.210  0.00  0.00    +0.070 C 
ATOM     11  C   UNL     1     -17.506   2.293  26.056  0.00  0.00    +0.075 C 
ATOM     12  C   UNL     1     -16.990   4.565  23.171  0.00  0.00    +0.048 C 
ATOM     13  C   UNL     1     -15.859   3.966  25.197  0.00  0.00    +0.104 C 
ATOM     14  C   UNL     1     -16.936   1.068  25.359  0.00  0.00    +0.123 C 
ATOM     15  C   UNL     1     -17.620   2.126  23.206  0.00  0.00    +0.230 C 
ATOM     34  H   UNL     1     -17.237   0.131  23.487  0.00  0.00    +0.149 HD
ENDROOT
BRANCH  10   7
ATOM      7  N   UNL     1     -14.751   5.551  23.630  0.00  0.00    -0.308 NA
ATOM     35  H   UNL     1     -14.695   6.568  23.682  0.00  0.00    +0.123 HD
BRANCH   7  18
ATOM     18  C   UNL     1     -14.647   5.144  22.234  0.00  0.00    +0.116 C 
BRANCH  18  20
ATOM      1  F   UNL     1     -11.581   8.767  19.205  0.00  0.00    -0.205 F 
ATOM     20  C   UNL     1     -13.829   6.110  21.427  0.00  0.00    -0.033 A 
ATOM     21  C   UNL     1     -14.460   7.006  20.564  0.00  0.00    +0.008 A 
ATOM     22  C   UNL     1     -12.439   6.111  21.538  0.00  0.00    +0.008 A 
ATOM     24  C   UNL     1     -13.701   7.905  19.814  0.00  0.00    +0.038 A 
ATOM     25  C   UNL     1     -11.680   7.008  20.787  0.00  0.00    +0.038 A 
ATOM     26  C   UNL     1     -12.310   7.906  19.925  0.00  0.00    +0.123 A 
ENDBRANCH  18  20
ENDBRANCH   7  18
ENDBRANCH  10   7
BRANCH  11  16
ATOM     16  C   UNL     1     -17.003   2.391  27.497  0.00  0.00    +0.029 C 
BRANCH  16  17
ATOM     17  C   UNL     1     -17.097   1.046  28.205  0.00  0.00    +0.097 C 
BRANCH  17  19
ATOM      3  O   UNL     1     -15.170  -0.038  29.192  0.00  0.00    -0.276 OA
ATOM      8  N   UNL     1     -16.061   1.842  30.223  0.00  0.00    -0.311 N 
ATOM     19  C   UNL     1     -16.000   0.867  29.239  0.00  0.00    +0.213 C 
ATOM     36  H   UNL     1     -16.797   2.540  30.202  0.00  0.00    +0.149 HD
BRANCH   8  23
ATOM     23  C   UNL     1     -15.124   1.888  31.322  0.00  0.00    +0.139 C 
BRANCH  23  27
ATOM     27  C   UNL     1     -14.939   3.284  31.843  0.00  0.00    -0.030 A 
ATOM     28  C   UNL     1     -15.348   4.376  31.074  0.00  0.00    +0.009 A 
ATOM     29  C   UNL     1     -14.359   3.491  33.093  0.00  0.00    +0.009 A 
ATOM     30  C   UNL     1     -15.175   5.672  31.558  0.00  0.00    +0.046 A 
ATOM     31  C   UNL     1     -14.187   4.787  33.577  0.00  0.00    +0.046 A 
ATOM     32  C   UNL     1     -14.595   5.878  32.810  0.00  0.00    +0.120 A 
BRANCH  32   4
ATOM      4  O   UNL     1     -14.428   7.143  33.282  0.00  0.00    -0.495 OA
ATOM     33  C   UNL     1     -13.208   7.806  32.951  0.00  0.00    +0.277 C 
ENDBRANCH  32   4
ENDBRANCH  23  27
ENDBRANCH   8  23
ENDBRANCH  17  19
ENDBRANCH  16  17
ENDBRANCH  11  16
TORSDOF 9
ENDMDL
MODEL 4
REMARK VINA RESULT:      -6.8     18.589     21.614
REMARK  Name = 45360662
REMARK  10 active torsions:
REMARK  status: ('A' for Active; 'I' for Inactive)
REMARK    1  A    between atoms: O_4  and  C_32
REMARK    2  A    between atoms: O_4  and  C_33
REMARK    3  A    between atoms: N_7  and  C_10
REMARK    4  A    between atoms: N_7  and  C_18
REMARK    5  A    between atoms: N_8  and  C_23
REMARK    6  A    between atoms: C_11  and  C_16
REMARK    7  A    between atoms: C_16  and  C_17
REMARK    8  A    between atoms: C_17  and  C_19
REMARK    9  A    between atoms: C_18  and  C_20
REMARK   10  A    between atoms: C_23  and  C_27
REMARK                            x       y       z     vdW  Elec       q    Type
REMARK                         _______ _______ _______ _____ _____    ______ ____
ROOT
ATOM      2  O   UNL     1     -17.303   6.062  19.807  0.00  0.00    -0.274 OA
ATOM      5  N   UNL     1     -15.260   5.693  22.809  0.00  0.00    -0.286 NA
ATOM      6  N   UNL     1     -17.163   4.324  21.268  0.00  0.00    -0.313 N 
ATOM      9  C   UNL     1     -15.952   6.443  21.753  0.00  0.00    +0.145 C 
ATOM     10  C   UNL     1     -13.533   6.605  21.604  0.00  0.00    +0.070 C 
ATOM     11  C   UNL     1     -16.070   4.655  23.438  0.00  0.00    +0.075 C 
ATOM     12  C   UNL     1     -14.822   7.097  20.943  0.00  0.00    +0.048 C 
ATOM     13  C   UNL     1     -13.953   5.308  22.279  0.00  0.00    +0.104 C 
ATOM     14  C   UNL     1     -16.571   3.659  22.405  0.00  0.00    +0.123 C 
ATOM     15  C   UNL     1     -16.840   5.593  20.851  0.00  0.00    +0.230 C 
ATOM     34  H   UNL     1     -17.773   3.775  20.668  0.00  0.00    +0.149 HD
ENDROOT
BRANCH  10   7
ATOM      7  N   UNL     1     -12.437   6.441  20.663  0.00  0.00    -0.308 NA
ATOM     35  H   UNL     1     -12.014   5.523  20.801  0.00  0.00    +0.123 HD
BRANCH   7  18
ATOM     18  C   UNL     1     -11.417   7.464  20.864  0.00  0.00    +0.116 C 
BRANCH  18  20
ATOM      1  F   UNL     1      -9.984   9.982  16.036  0.00  0.00    -0.205 F 
ATOM     20  C   UNL     1     -11.035   8.136  19.577  0.00  0.00    -0.033 A 
ATOM     21  C   UNL     1     -11.234   7.479  18.362  0.00  0.00    +0.008 A 
ATOM     22  C   UNL     1     -10.481   9.416  19.595  0.00  0.00    +0.008 A 
ATOM     24  C   UNL     1     -10.879   8.103  17.166  0.00  0.00    +0.038 A 
ATOM     25  C   UNL     1     -10.126  10.039  18.399  0.00  0.00    +0.038 A 
ATOM     26  C   UNL     1     -10.325   9.383  17.184  0.00  0.00    +0.123 A 
ENDBRANCH  18  20
ENDBRANCH   7  18
ENDBRANCH  10   7
BRANCH  11  16
ATOM     16  C   UNL     1     -15.342   3.944  24.580  0.00  0.00    +0.029 C 
BRANCH  16  17
ATOM     17  C   UNL     1     -16.152   2.765  25.100  0.00  0.00    +0.097 C 
BRANCH  17  19
ATOM      3  O   UNL     1     -17.978   2.571  26.678  0.00  0.00    -0.276 OA
ATOM      8  N   UNL     1     -16.284   4.103  27.092  0.00  0.00    -0.311 N 
ATOM     19  C   UNL     1     -16.921   3.112  26.362  0.00  0.00    +0.213 C 
ATOM     36  H   UNL     1     -15.425   4.518  26.745  0.00  0.00    +0.149 HD
BRANCH   8  23
ATOM     23  C   UNL     1     -16.818   4.609  28.335  0.00  0.00    +0.139 C 
BRANCH  23  27
ATOM     27  C   UNL     1     -16.059   4.092  29.524  0.00  0.00    -0.030 A 
ATOM     28  C   UNL     1     -14.959   3.254  29.338  0.00  0.00    +0.009 A 
ATOM     29  C   UNL     1     -16.454   4.448  30.812  0.00  0.00    +0.009 A 
ATOM     30  C   UNL     1     -14.254   2.773  30.442  0.00  0.00    +0.046 A 
ATOM     31  C   UNL     1     -15.750   3.968  31.916  0.00  0.00    +0.046 A 
ATOM     32  C   UNL     1     -14.650   3.131  31.730  0.00  0.00    +0.120 A 
BRANCH  32   4
ATOM      4  O   UNL     1     -13.961   2.663  32.807  0.00  0.00    -0.495 OA
ATOM     33  C   UNL     1     -14.570   1.619  33.565  0.00  0.00    +0.277 C 
ENDBRANCH  32   4
ENDBRANCH  23  27
ENDBRANCH   8  23
ENDBRANCH  17  19
ENDBRANCH  16  17
ENDBRANCH  11  16
TORSDOF 9
ENDMDL
MODEL 5
REMARK VINA RESULT:      -6.7      3.265      4.093
REMARK  Name = 45360662
REMARK  10 active torsions:
REMARK  status: ('A' for Active; 'I' for Inactive)
REMARK    1  A    between atoms: O_4  and  C_32
REMARK    2  A    between atoms: O_4  and  C_33
REMARK    3  A    between atoms: N_7  and  C_10
REMARK    4  A    between atoms: N_7  and  C_18
REMARK    5  A    between atoms: N_8  and  C_23
REMARK    6  A    between atoms: C_11  and  C_16
REMARK    7  A    between atoms: C_16  and  C_17
REMARK    8  A    between atoms: C_17  and  C_19
REMARK    9  A    between atoms: C_18  and  C_20
REMARK   10  A    between atoms: C_23  and  C_27
REMARK                            x       y       z     vdW  Elec       q    Type
REMARK                         _______ _______ _______ _____ _____    ______ ____
ROOT
ATOM      2  O   UNL     1      -9.663 -12.313  15.380  0.00  0.00    -0.274 OA
ATOM      5  N   UNL     1      -6.728 -11.468  17.378  0.00  0.00    -0.286 NA
ATOM      6  N   UNL     1      -7.952 -10.887  14.921  0.00  0.00    -0.313 N 
ATOM      9  C   UNL     1      -7.860 -12.307  16.964  0.00  0.00    +0.145 C 
ATOM     10  C   UNL     1      -8.134 -11.375  19.190  0.00  0.00    +0.070 C 
ATOM     11  C   UNL     1      -5.909 -10.977  16.275  0.00  0.00    +0.075 C 
ATOM     12  C   UNL     1      -8.811 -12.294  18.170  0.00  0.00    +0.048 C 
ATOM     13  C   UNL     1      -7.244 -10.488  18.332  0.00  0.00    +0.104 C 
ATOM     14  C   UNL     1      -6.749 -10.179  15.291  0.00  0.00    +0.123 C 
ATOM     15  C   UNL     1      -8.578 -11.824  15.707  0.00  0.00    +0.230 C 
ATOM     34  H   UNL     1      -8.430 -10.589  14.075  0.00  0.00    +0.149 HD
ENDROOT
BRANCH  10   7
ATOM      7  N   UNL     1      -9.080 -10.632  20.005  0.00  0.00    -0.308 NA
ATOM     35  H   UNL     1      -9.354 -11.204  20.804  0.00  0.00    +0.123 HD
BRANCH   7  18
ATOM     18  C   UNL     1     -10.274 -10.290  19.241  0.00  0.00    +0.116 C 
BRANCH  18  20
ATOM      1  F   UNL     1     -14.996 -11.635  21.997  0.00  0.00    -0.205 F 
ATOM     20  C   UNL     1     -11.533 -10.649  19.976  0.00  0.00    -0.033 A 
ATOM     21  C   UNL     1     -12.557  -9.711  20.103  0.00  0.00    +0.008 A 
ATOM     22  C   UNL     1     -11.679 -11.920  20.532  0.00  0.00    +0.008 A 
ATOM     24  C   UNL     1     -13.728 -10.044  20.786  0.00  0.00    +0.038 A 
ATOM     25  C   UNL     1     -12.848 -12.253  21.215  0.00  0.00    +0.038 A 
ATOM     26  C   UNL     1     -13.873 -11.315  21.342  0.00  0.00    +0.123 A 
ENDBRANCH  18  20
ENDBRANCH   7  18
ENDBRANCH  10   7
BRANCH  11  16
ATOM     16  C   UNL     1      -4.700 -10.169  16.748  0.00  0.00    +0.029 C 
BRANCH  16  17
ATOM     17  C   UNL     1      -3.520 -11.077  17.067  0.00  0.00    +0.097 C 
BRANCH  17  19
ATOM      3  O   UNL     1      -1.600 -10.165  15.908  0.00  0.00    -0.276 OA
ATOM      8  N   UNL     1      -2.592 -12.102  15.100  0.00  0.00    -0.311 N 
ATOM     19  C   UNL     1      -2.460 -11.039  15.981  0.00  0.00    +0.213 C 
ATOM     36  H   UNL     1      -3.350 -12.768  15.216  0.00  0.00    +0.149 HD
BRANCH   8  23
ATOM     23  C   UNL     1      -1.702 -12.289  13.978  0.00  0.00    +0.139 C 
BRANCH  23  27
ATOM     27  C   UNL     1      -2.276 -11.732  12.707  0.00  0.00    -0.030 A 
ATOM     28  C   UNL     1      -1.977 -10.425  12.320  0.00  0.00    +0.009 A 
ATOM     29  C   UNL     1      -3.109 -12.520  11.914  0.00  0.00    +0.009 A 
ATOM     30  C   UNL     1      -2.511  -9.908  11.140  0.00  0.00    +0.046 A 
ATOM     31  C   UNL     1      -3.643 -12.003  10.734  0.00  0.00    +0.046 A 
ATOM     32  C   UNL     1      -3.344 -10.697  10.348  0.00  0.00    +0.120 A 
BRANCH  32   4
ATOM      4  O   UNL     1      -3.863 -10.192   9.195  0.00  0.00    -0.495 OA
ATOM     33  C   UNL     1      -4.441  -8.889   9.259  0.00  0.00    +0.277 C 
ENDBRANCH  32   4
ENDBRANCH  23  27
ENDBRANCH   8  23
ENDBRANCH  17  19
ENDBRANCH  16  17
ENDBRANCH  11  16
TORSDOF 9
ENDMDL
MODEL 6
REMARK VINA RESULT:      -6.7     25.064     28.444
REMARK  Name = 45360662
REMARK  10 active torsions:
REMARK  status: ('A' for Active; 'I' for Inactive)
REMARK    1  A    between atoms: O_4  and  C_32
REMARK    2  A    between atoms: O_4  and  C_33
REMARK    3  A    between atoms: N_7  and  C_10
REMARK    4  A    between atoms: N_7  and  C_18
REMARK    5  A    between atoms: N_8  and  C_23
REMARK    6  A    between atoms: C_11  and  C_16
REMARK    7  A    between atoms: C_16  and  C_17
REMARK    8  A    between atoms: C_17  and  C_19
REMARK    9  A    between atoms: C_18  and  C_20
REMARK   10  A    between atoms: C_23  and  C_27
REMARK                            x       y       z     vdW  Elec       q    Type
REMARK                         _______ _______ _______ _____ _____    ______ ____
ROOT
ATOM      2  O   UNL     1       9.703   8.654   1.159  0.00  0.00    -0.274 OA
ATOM      5  N   UNL     1      10.316   6.755   4.215  0.00  0.00    -0.286 NA
ATOM      6  N   UNL     1       8.344   8.296   2.947  0.00  0.00    -0.313 N 
ATOM      9  C   UNL     1      10.703   7.506   3.014  0.00  0.00    +0.145 C 
ATOM     10  C   UNL     1      11.273   5.149   2.884  0.00  0.00    +0.070 C 
ATOM     11  C   UNL     1       9.292   7.405   5.026  0.00  0.00    +0.075 C 
ATOM     12  C   UNL     1      11.380   6.464   2.110  0.00  0.00    +0.048 C 
ATOM     13  C   UNL     1      10.081   5.373   3.802  0.00  0.00    +0.104 C 
ATOM     14  C   UNL     1       8.037   7.663   4.209  0.00  0.00    +0.123 C 
ATOM     15  C   UNL     1       9.542   8.177   2.287  0.00  0.00    +0.230 C 
ATOM     34  H   UNL     1       7.584   8.764   2.461  0.00  0.00    +0.149 HD
ENDROOT
BRANCH  10   7
ATOM      7  N   UNL     1      11.131   3.988   2.021  0.00  0.00    -0.308 NA
ATOM     35  H   UNL     1      10.303   3.463   2.301  0.00  0.00    +0.123 HD
BRANCH   7  18
ATOM     18  C   UNL     1      12.296   3.116   2.118  0.00  0.00    +0.116 C 
BRANCH  18  20
ATOM      1  F   UNL     1      16.219   4.411  -1.708  0.00  0.00    -0.205 F 
ATOM     20  C   UNL     1      13.342   3.462   1.098  0.00  0.00    -0.033 A 
ATOM     21  C   UNL     1      12.985   3.619  -0.241  0.00  0.00    +0.008 A 
ATOM     22  C   UNL     1      14.671   3.625   1.489  0.00  0.00    +0.008 A 
ATOM     24  C   UNL     1      13.957   3.940  -1.189  0.00  0.00    +0.038 A 
ATOM     25  C   UNL     1      15.642   3.945   0.541  0.00  0.00    +0.038 A 
ATOM     26  C   UNL     1      15.286   4.103  -0.798  0.00  0.00    +0.123 A 
ENDBRANCH  18  20
ENDBRANCH   7  18
ENDBRANCH  10   7
BRANCH  11  16
ATOM     16  C   UNL     1       8.967   6.630   6.304  0.00  0.00    +0.029 C 
BRANCH  16  17
ATOM     17  C   UNL     1       9.713   7.204   7.501  0.00  0.00    +0.097 C 
BRANCH  17  19
ATOM      3  O   UNL     1      11.179   5.519   8.435  0.00  0.00    -0.276 OA
ATOM      8  N   UNL     1      12.072   7.150   7.046  0.00  0.00    -0.311 N 
ATOM     19  C   UNL     1      11.046   6.515   7.729  0.00  0.00    +0.213 C 
ATOM     36  H   UNL     1      11.881   7.987   6.503  0.00  0.00    +0.149 HD
BRANCH   8  23
ATOM     23  C   UNL     1      13.439   6.685   7.101  0.00  0.00    +0.139 C 
BRANCH  23  27
ATOM     27  C   UNL     1      14.294   7.330   6.049  0.00  0.00    -0.030 A 
ATOM     28  C   UNL     1      13.913   7.272   4.708  0.00  0.00    +0.009 A 
ATOM     29  C   UNL     1      15.469   7.987   6.411  0.00  0.00    +0.009 A 
ATOM     30  C   UNL     1      14.708   7.870   3.730  0.00  0.00    +0.046 A 
ATOM     31  C   UNL     1      16.264   8.585   5.434  0.00  0.00    +0.046 A 
ATOM     32  C   UNL     1      15.883   8.527   4.094  0.00  0.00    +0.120 A 
BRANCH  32   4
ATOM      4  O   UNL     1      16.657   9.113   3.140  0.00  0.00    -0.495 OA
ATOM     33  C   UNL     1      17.952   8.555   2.921  0.00  0.00    +0.277 C 
ENDBRANCH  32   4
ENDBRANCH  23  27
ENDBRANCH   8  23
ENDBRANCH  17  19
ENDBRANCH  16  17
ENDBRANCH  11  16
TORSDOF 9
ENDMDL
MODEL 7
REMARK VINA RESULT:      -6.6     23.557     27.946
REMARK  Name = 45360662
REMARK  10 active torsions:
REMARK  status: ('A' for Active; 'I' for Inactive)
REMARK    1  A    between atoms: O_4  and  C_32
REMARK    2  A    between atoms: O_4  and  C_33
REMARK    3  A    between atoms: N_7  and  C_10
REMARK    4  A    between atoms: N_7  and  C_18
REMARK    5  A    between atoms: N_8  and  C_23
REMARK    6  A    between atoms: C_11  and  C_16
REMARK    7  A    between atoms: C_16  and  C_17
REMARK    8  A    between atoms: C_17  and  C_19
REMARK    9  A    between atoms: C_18  and  C_20
REMARK   10  A    between atoms: C_23  and  C_27
REMARK                            x       y       z     vdW  Elec       q    Type
REMARK                         _______ _______ _______ _____ _____    ______ ____
ROOT
ATOM      2  O   UNL     1      13.899   3.410  -0.569  0.00  0.00    -0.274 OA
ATOM      5  N   UNL     1      13.001   6.776   0.522  0.00  0.00    -0.286 NA
ATOM      6  N   UNL     1      11.847   4.352  -0.294  0.00  0.00    -0.313 N 
ATOM      9  C   UNL     1      13.889   5.752  -0.042  0.00  0.00    +0.145 C 
ATOM     10  C   UNL     1      14.632   6.564   2.123  0.00  0.00    +0.070 C 
ATOM     11  C   UNL     1      11.657   6.785  -0.047  0.00  0.00    +0.075 C 
ATOM     12  C   UNL     1      15.016   5.607   0.993  0.00  0.00    +0.048 C 
ATOM     13  C   UNL     1      13.123   6.699   1.977  0.00  0.00    +0.104 C 
ATOM     14  C   UNL     1      10.986   5.432   0.129  0.00  0.00    +0.123 C 
ATOM     15  C   UNL     1      13.219   4.406  -0.300  0.00  0.00    +0.230 C 
ATOM     34  H   UNL     1      11.412   3.454  -0.489  0.00  0.00    +0.149 HD
ENDROOT
BRANCH  10   7
ATOM      7  N   UNL     1      15.048   6.095   3.434  0.00  0.00    -0.308 NA
ATOM     35  H   UNL     1      14.258   5.641   3.892  0.00  0.00    +0.123 HD
BRANCH   7  18
ATOM     18  C   UNL     1      15.502   7.202   4.267  0.00  0.00    +0.116 C 
BRANCH  18  20
ATOM      1  F   UNL     1      11.424   9.101   7.653  0.00  0.00    -0.205 F 
ATOM     20  C   UNL     1      14.415   7.709   5.170  0.00  0.00    -0.033 A 
ATOM     21  C   UNL     1      13.969   6.923   6.232  0.00  0.00    +0.008 A 
ATOM     22  C   UNL     1      13.850   8.964   4.945  0.00  0.00    +0.008 A 
ATOM     24  C   UNL     1      12.959   7.394   7.072  0.00  0.00    +0.038 A 
ATOM     25  C   UNL     1      12.839   9.434   5.784  0.00  0.00    +0.038 A 
ATOM     26  C   UNL     1      12.394   8.649   6.847  0.00  0.00    +0.123 A 
ENDBRANCH  18  20
ENDBRANCH   7  18
ENDBRANCH  10   7
BRANCH  11  16
ATOM     16  C   UNL     1      10.784   7.909   0.512  0.00  0.00    +0.029 C 
BRANCH  16  17
ATOM     17  C   UNL     1       9.536   7.354   1.186  0.00  0.00    +0.097 C 
BRANCH  17  19
ATOM      3  O   UNL     1       9.053   9.433   2.330  0.00  0.00    -0.276 OA
ATOM      8  N   UNL     1       8.755   7.426   3.458  0.00  0.00    -0.311 N 
ATOM     19  C   UNL     1       9.095   8.206   2.362  0.00  0.00    +0.213 C 
ATOM     36  H   UNL     1       8.844   6.416   3.411  0.00  0.00    +0.149 HD
BRANCH   8  23
ATOM     23  C   UNL     1       8.303   8.001   4.703  0.00  0.00    +0.139 C 
BRANCH  23  27
ATOM     27  C   UNL     1       8.794   7.225   5.891  0.00  0.00    -0.030 A 
ATOM     28  C   UNL     1       8.525   7.680   7.182  0.00  0.00    +0.009 A 
ATOM     29  C   UNL     1       9.519   6.049   5.704  0.00  0.00    +0.009 A 
ATOM     30  C   UNL     1       8.982   6.959   8.285  0.00  0.00    +0.046 A 
ATOM     31  C   UNL     1       9.976   5.328   6.807  0.00  0.00    +0.046 A 
ATOM     32  C   UNL     1       9.707   5.783   8.097  0.00  0.00    +0.120 A 
BRANCH  32   4
ATOM      4  O   UNL     1      10.151   5.079   9.174  0.00  0.00    -0.495 OA
ATOM     33  C   UNL     1       9.162   4.547  10.055  0.00  0.00    +0.277 C 
ENDBRANCH  32   4
ENDBRANCH  23  27
ENDBRANCH   8  23
ENDBRANCH  17  19
ENDBRANCH  16  17
ENDBRANCH  11  16
TORSDOF 9
ENDMDL
MODEL 8
REMARK VINA RESULT:      -6.5      2.114      3.210
REMARK  Name = 45360662
REMARK  10 active torsions:
REMARK  status: ('A' for Active; 'I' for Inactive)
REMARK    1  A    between atoms: O_4  and  C_32
REMARK    2  A    between atoms: O_4  and  C_33
REMARK    3  A    between atoms: N_7  and  C_10
REMARK    4  A    between atoms: N_7  and  C_18
REMARK    5  A    between atoms: N_8  and  C_23
REMARK    6  A    between atoms: C_11  and  C_16
REMARK    7  A    between atoms: C_16  and  C_17
REMARK    8  A    between atoms: C_17  and  C_19
REMARK    9  A    between atoms: C_18  and  C_20
REMARK   10  A    between atoms: C_23  and  C_27
REMARK                            x       y       z     vdW  Elec       q    Type
REMARK                         _______ _______ _______ _____ _____    ______ ____
ROOT
ATOM      2  O   UNL     1     -10.949 -11.578  15.224  0.00  0.00    -0.274 OA
ATOM      5  N   UNL     1      -8.339  -9.747  17.002  0.00  0.00    -0.286 NA
ATOM      6  N   UNL     1      -8.791 -11.176  14.629  0.00  0.00    -0.313 N 
ATOM      9  C   UNL     1      -9.594 -10.501  16.887  0.00  0.00    +0.145 C 
ATOM     10  C   UNL     1      -9.938  -8.174  17.487  0.00  0.00    +0.070 C 
ATOM     11  C   UNL     1      -7.207 -10.357  16.313  0.00  0.00    +0.075 C 
ATOM     12  C   UNL     1     -10.689  -9.483  17.238  0.00  0.00    +0.048 C 
ATOM     13  C   UNL     1      -8.647  -8.350  16.701  0.00  0.00    +0.104 C 
ATOM     14  C   UNL     1      -7.509 -10.543  14.835  0.00  0.00    +0.123 C 
ATOM     15  C   UNL     1      -9.844 -11.107  15.509  0.00  0.00    +0.230 C 
ATOM     34  H   UNL     1      -8.964 -11.600  13.723  0.00  0.00    +0.149 HD
ENDROOT
BRANCH  10   7
ATOM      7  N   UNL     1     -10.698  -6.997  17.097  0.00  0.00    -0.308 NA
ATOM     35  H   UNL     1     -11.675  -7.130  17.359  0.00  0.00    +0.123 HD
BRANCH   7  18
ATOM     18  C   UNL     1     -10.623  -6.778  15.658  0.00  0.00    +0.116 C 
BRANCH  18  20
ATOM      1  F   UNL     1     -15.600  -5.281  13.493  0.00  0.00    -0.205 F 
ATOM     20  C   UNL     1     -11.950  -6.378  15.080  0.00  0.00    -0.033 A 
ATOM     21  C   UNL     1     -13.117  -7.005  15.517  0.00  0.00    +0.008 A 
ATOM     22  C   UNL     1     -12.016  -5.381  14.107  0.00  0.00    +0.008 A 
ATOM     24  C   UNL     1     -14.351  -6.634  14.981  0.00  0.00    +0.038 A 
ATOM     25  C   UNL     1     -13.249  -5.011  13.571  0.00  0.00    +0.038 A 
ATOM     26  C   UNL     1     -14.417  -5.637  14.008  0.00  0.00    +0.123 A 
ENDBRANCH  18  20
ENDBRANCH   7  18
ENDBRANCH  10   7
BRANCH  11  16
ATOM     16  C   UNL     1      -5.903  -9.582  16.515  0.00  0.00    +0.029 C 
BRANCH  16  17
ATOM     17  C   UNL     1      -4.835 -10.458  17.153  0.00  0.00    +0.097 C 
BRANCH  17  19
ATOM      3  O   UNL     1      -4.199 -12.499  16.016  0.00  0.00    -0.276 OA
ATOM      8  N   UNL     1      -3.255 -10.488  15.341  0.00  0.00    -0.311 N 
ATOM     19  C   UNL     1      -4.081 -11.281  16.124  0.00  0.00    +0.213 C 
ATOM     36  H   UNL     1      -3.195  -9.489  15.515  0.00  0.00    +0.149 HD
BRANCH   8  23
ATOM     23  C   UNL     1      -2.432 -11.036  14.289  0.00  0.00    +0.139 C 
BRANCH  23  27
ATOM     27  C   UNL     1      -2.792 -10.473  12.944  0.00  0.00    -0.030 A 
ATOM     28  C   UNL     1      -1.787 -10.052  12.072  0.00  0.00    +0.009 A 
ATOM     29  C   UNL     1      -4.129 -10.371  12.566  0.00  0.00    +0.009 A 
ATOM     30  C   UNL     1      -2.121  -9.528  10.823  0.00  0.00    +0.046 A 
ATOM     31  C   UNL     1      -4.464  -9.847  11.317  0.00  0.00    +0.046 A 
ATOM     32  C   UNL     1      -3.460  -9.426  10.446  0.00  0.00    +0.120 A 
BRANCH  32   4
ATOM      4  O   UNL     1      -3.785  -8.917   9.227  0.00  0.00    -0.495 OA
ATOM     33  C   UNL     1      -4.999  -9.378   8.633  0.00  0.00    +0.277 C 
ENDBRANCH  32   4
ENDBRANCH  23  27
ENDBRANCH   8  23
ENDBRANCH  17  19
ENDBRANCH  16  17
ENDBRANCH  11  16
TORSDOF 9
ENDMDL
MODEL 9
REMARK VINA RESULT:      -6.5     18.473     21.370
REMARK  Name = 45360662
REMARK  10 active torsions:
REMARK  status: ('A' for Active; 'I' for Inactive)
REMARK    1  A    between atoms: O_4  and  C_32
REMARK    2  A    between atoms: O_4  and  C_33
REMARK    3  A    between atoms: N_7  and  C_10
REMARK    4  A    between atoms: N_7  and  C_18
REMARK    5  A    between atoms: N_8  and  C_23
REMARK    6  A    between atoms: C_11  and  C_16
REMARK    7  A    between atoms: C_16  and  C_17
REMARK    8  A    between atoms: C_17  and  C_19
REMARK    9  A    between atoms: C_18  and  C_20
REMARK   10  A    between atoms: C_23  and  C_27
REMARK                            x       y       z     vdW  Elec       q    Type
REMARK                         _______ _______ _______ _____ _____    ______ ____
ROOT
ATOM      2  O   UNL     1     -18.328   5.441  19.585  0.00  0.00    -0.274 OA
ATOM      5  N   UNL     1     -17.669   5.718  23.165  0.00  0.00    -0.286 NA
ATOM      6  N   UNL     1     -17.748   3.834  21.087  0.00  0.00    -0.313 N 
ATOM      9  C   UNL     1     -18.236   6.143  21.879  0.00  0.00    +0.145 C 
ATOM     10  C   UNL     1     -16.487   7.624  22.680  0.00  0.00    +0.070 C 
ATOM     11  C   UNL     1     -17.898   4.314  23.488  0.00  0.00    +0.075 C 
ATOM     12  C   UNL     1     -17.487   7.440  21.537  0.00  0.00    +0.048 C 
ATOM     13  C   UNL     1     -16.295   6.212  23.214  0.00  0.00    +0.104 C 
ATOM     14  C   UNL     1     -17.333   3.410  22.404  0.00  0.00    +0.123 C 
ATOM     15  C   UNL     1     -18.087   5.123  20.754  0.00  0.00    +0.230 C 
ATOM     34  H   UNL     1     -17.673   3.159  20.332  0.00  0.00    +0.149 HD
ENDROOT
BRANCH  10   7
ATOM      7  N   UNL     1     -15.248   8.257  22.257  0.00  0.00    -0.308 NA
ATOM     35  H   UNL     1     -15.388   8.685  21.341  0.00  0.00    +0.123 HD
BRANCH   7  18
ATOM     18  C   UNL     1     -14.167   7.283  22.162  0.00  0.00    +0.116 C 
BRANCH  18  20
ATOM      1  F   UNL     1     -11.288   7.793  17.350  0.00  0.00    -0.205 F 
ATOM     20  C   UNL     1     -13.400   7.419  20.878  0.00  0.00    -0.033 A 
ATOM     21  C   UNL     1     -12.077   6.983  20.808  0.00  0.00    +0.008 A 
ATOM     22  C   UNL     1     -14.010   7.982  19.757  0.00  0.00    +0.008 A 
ATOM     24  C   UNL     1     -11.364   7.109  19.616  0.00  0.00    +0.038 A 
ATOM     25  C   UNL     1     -13.296   8.108  18.566  0.00  0.00    +0.038 A 
ATOM     26  C   UNL     1     -11.973   7.672  18.494  0.00  0.00    +0.123 A 
ENDBRANCH  18  20
ENDBRANCH   7  18
ENDBRANCH  10   7
BRANCH  11  16
ATOM     16  C   UNL     1     -17.357   3.926  24.865  0.00  0.00    +0.029 C 
BRANCH  16  17
ATOM     17  C   UNL     1     -16.283   2.854  24.753  0.00  0.00    +0.097 C 
BRANCH  17  19
ATOM      3  O   UNL     1     -16.650   0.506  25.217  0.00  0.00    -0.276 OA
ATOM      8  N   UNL     1     -16.741   2.032  26.965  0.00  0.00    -0.311 N 
ATOM     19  C   UNL     1     -16.574   1.657  25.640  0.00  0.00    +0.213 C 
ATOM     36  H   UNL     1     -16.689   3.012  27.227  0.00  0.00    +0.149 HD
BRANCH   8  23
ATOM     23  C   UNL     1     -17.028   1.074  28.007  0.00  0.00    +0.139 C 
BRANCH  23  27
ATOM     27  C   UNL     1     -16.193   1.311  29.232  0.00  0.00    -0.030 A 
ATOM     28  C   UNL     1     -15.810   2.609  29.575  0.00  0.00    +0.009 A 
ATOM     29  C   UNL     1     -15.801   0.236  30.028  0.00  0.00    +0.009 A 
ATOM     30  C   UNL     1     -15.034   2.829  30.713  0.00  0.00    +0.046 A 
ATOM     31  C   UNL     1     -15.025   0.456  31.166  0.00  0.00    +0.046 A 
ATOM     32  C   UNL     1     -14.642   1.752  31.508  0.00  0.00    +0.120 A 
BRANCH  32   4
ATOM      4  O   UNL     1     -13.887   1.968  32.620  0.00  0.00    -0.495 OA
ATOM     33  C   UNL     1     -14.503   1.720  33.883  0.00  0.00    +0.277 C 
ENDBRANCH  32   4
ENDBRANCH  23  27
ENDBRANCH   8  23
ENDBRANCH  17  19
ENDBRANCH  16  17
ENDBRANCH  11  16
TORSDOF 9
ENDMDL
MODEL 10
REMARK VINA RESULT:      -6.5      3.149      8.262
REMARK  Name = 45360662
REMARK  10 active torsions:
REMARK  status: ('A' for Active; 'I' for Inactive)
REMARK    1  A    between atoms: O_4  and  C_32
REMARK    2  A    between atoms: O_4  and  C_33
REMARK    3  A    between atoms: N_7  and  C_10
REMARK    4  A    between atoms: N_7  and  C_18
REMARK    5  A    between atoms: N_8  and  C_23
REMARK    6  A    between atoms: C_11  and  C_16
REMARK    7  A    between atoms: C_16  and  C_17
REMARK    8  A    between atoms: C_17  and  C_19
REMARK    9  A    between atoms: C_18  and  C_20
REMARK   10  A    between atoms: C_23  and  C_27
REMARK                            x       y       z     vdW  Elec       q    Type
REMARK                         _______ _______ _______ _____ _____    ______ ____
ROOT
ATOM      2  O   UNL     1      -1.454 -10.390  14.903  0.00  0.00    -0.274 OA
ATOM      5  N   UNL     1      -4.153 -12.610  15.955  0.00  0.00    -0.286 NA
ATOM      6  N   UNL     1      -3.331  -9.932  16.102  0.00  0.00    -0.313 N 
ATOM      9  C   UNL     1      -2.792 -12.288  15.510  0.00  0.00    +0.145 C 
ATOM     10  C   UNL     1      -4.066 -13.521  13.850  0.00  0.00    +0.070 C 
ATOM     11  C   UNL     1      -4.641 -11.777  17.049  0.00  0.00    +0.075 C 
ATOM     12  C   UNL     1      -2.686 -12.914  14.110  0.00  0.00    +0.048 C 
ATOM     13  C   UNL     1      -4.985 -12.716  14.757  0.00  0.00    +0.104 C 
ATOM     14  C   UNL     1      -4.608 -10.306  16.665  0.00  0.00    +0.123 C 
ATOM     15  C   UNL     1      -2.480 -10.796  15.458  0.00  0.00    +0.230 C 
ATOM     34  H   UNL     1      -3.101  -8.942  16.078  0.00  0.00    +0.149 HD
ENDROOT
BRANCH  10   7
ATOM      7  N   UNL     1      -4.452 -13.480  12.450  0.00  0.00    -0.308 NA
ATOM     35  H   UNL     1      -4.839 -14.385  12.183  0.00  0.00    +0.123 HD
BRANCH   7  18
ATOM     18  C   UNL     1      -3.305 -13.189  11.598  0.00  0.00    +0.116 C 
BRANCH  18  20
ATOM      1  F   UNL     1      -3.971  -8.388   8.732  0.00  0.00    -0.205 F 
ATOM     20  C   UNL     1      -3.483 -11.909  10.833  0.00  0.00    -0.033 A 
ATOM     21  C   UNL     1      -2.846 -10.746  11.265  0.00  0.00    +0.008 A 
ATOM     22  C   UNL     1      -4.284 -11.883   9.692  0.00  0.00    +0.008 A 
ATOM     24  C   UNL     1      -3.011  -9.556  10.555  0.00  0.00    +0.038 A 
ATOM     25  C   UNL     1      -4.450 -10.694   8.983  0.00  0.00    +0.038 A 
ATOM     26  C   UNL     1      -3.813  -9.530   9.414  0.00  0.00    +0.123 A 
ENDBRANCH  18  20
ENDBRANCH   7  18
ENDBRANCH  10   7
BRANCH  11  16
ATOM     16  C   UNL     1      -6.032 -12.188  17.533  0.00  0.00    +0.029 C 
BRANCH  16  17
ATOM     17  C   UNL     1      -6.777 -11.005  18.135  0.00  0.00    +0.097 C 
BRANCH  17  19
ATOM      3  O   UNL     1      -8.830 -12.098  17.464  0.00  0.00    -0.276 OA
ATOM      8  N   UNL     1      -8.943 -10.221  18.825  0.00  0.00    -0.311 N 
ATOM     19  C   UNL     1      -8.283 -11.193  18.087  0.00  0.00    +0.213 C 
ATOM     36  H   UNL     1      -8.415  -9.489  19.290  0.00  0.00    +0.149 HD
BRANCH   8  23
ATOM     23  C   UNL     1     -10.382 -10.183  18.936  0.00  0.00    +0.139 C 
BRANCH  23  27
ATOM     27  C   UNL     1     -10.992  -9.190  17.987  0.00  0.00    -0.030 A 
ATOM     28  C   UNL     1     -10.228  -8.127  17.503  0.00  0.00    +0.009 A 
ATOM     29  C   UNL     1     -12.320  -9.331  17.590  0.00  0.00    +0.009 A 
ATOM     30  C   UNL     1     -10.794  -7.206  16.623  0.00  0.00    +0.046 A 
ATOM     31  C   UNL     1     -12.887  -8.410  16.710  0.00  0.00    +0.046 A 
ATOM     32  C   UNL     1     -12.123  -7.348  16.226  0.00  0.00    +0.120 A 
BRANCH  32   4
ATOM      4  O   UNL     1     -12.675  -6.449  15.365  0.00  0.00    -0.495 OA
ATOM     33  C   UNL     1     -11.777  -5.671  14.574  0.00  0.00    +0.277 C 
ENDBRANCH  32   4
ENDBRANCH  23  27
ENDBRANCH   8  23
ENDBRANCH  17  19
ENDBRANCH  16  17
ENDBRANCH  11  16
TORSDOF 9
ENDMDL
