MODEL 1
REMARK VINA RESULT:      -6.2      0.000      0.000
REMARK  Name = 25390436
REMARK  9 active torsions:
REMARK  status: ('A' for Active; 'I' for Inactive)
REMARK    1  A    between atoms: S_1  and  N_9
REMARK    2  A    between atoms: S_1  and  C_20
REMARK    3  A    between atoms: O_3  and  C_12
REMARK    4  A    between atoms: O_4  and  C_13
REMARK    5  A    between atoms: N_8  and  C_11
REMARK    6  A    between atoms: N_9  and  C_18
REMARK    7  A    between atoms: C_10  and  C_17
REMARK    8  A    between atoms: C_14  and  C_18
REMARK    9  A    between atoms: C_17  and  C_19
REMARK                            x       y       z     vdW  Elec       q    Type
REMARK                         _______ _______ _______ _____ _____    ______ ____
ROOT
ATOM      2  O   UNL     1      10.635   8.248  20.268  0.00  0.00    -0.366 OA
ATOM     10  C   UNL     1      11.838   7.946  19.539  0.00  0.00    +0.158 C 
ATOM     12  C   UNL     1      12.745   7.231  20.524  0.00  0.00    +0.175 C 
ATOM     13  C   UNL     1      11.746   6.439  21.339  0.00  0.00    +0.175 C 
ATOM     14  C   UNL     1      10.580   7.417  21.449  0.00  0.00    +0.165 C 
ENDROOT
BRANCH  12   3
ATOM      3  O   UNL     1      13.702   6.422  19.872  0.00  0.00    -0.387 OA
ATOM     22  H   UNL     1      13.217   5.758  19.354  0.00  0.00    +0.210 HD
ENDBRANCH  12   3
BRANCH  13   4
ATOM      4  O   UNL     1      11.299   5.299  20.606  0.00  0.00    -0.387 OA
ATOM     23  H   UNL     1      10.650   4.832  21.159  0.00  0.00    +0.210 HD
ENDBRANCH  13   4
BRANCH  10  17
ATOM     17  C   UNL     1      12.436   9.228  18.988  0.00  0.00    +0.130 C 
BRANCH  17  19
ATOM      5  O   UNL     1      13.169   7.987  17.042  0.00  0.00    -0.276 OA
ATOM      8  N   UNL     1      13.063  10.304  16.930  0.00  0.00    -0.312 N 
ATOM     19  C   UNL     1      12.927   9.074  17.560  0.00  0.00    +0.216 C 
ATOM     21  H   UNL     1      12.845  11.157  17.438  0.00  0.00    +0.149 HD
BRANCH   8  11
ATOM     11  C   UNL     1      13.512  10.430  15.574  0.00  0.00    +0.073 C 
ATOM     15  C   UNL     1      14.154  11.695  15.083  0.00  0.00    +0.024 C 
ATOM     16  C   UNL     1      14.974  10.448  15.238  0.00  0.00    +0.024 C 
ENDBRANCH   8  11
ENDBRANCH  17  19
ENDBRANCH  10  17
BRANCH  14  18
ATOM     18  C   UNL     1      10.678   8.326  22.665  0.00  0.00    +0.139 C 
BRANCH  18   9
ATOM      9  N   UNL     1      10.313   9.702  22.281  0.00  0.00    -0.192 NA
ATOM     24  H   UNL     1       9.331   9.936  22.479  0.00  0.00    +0.148 HD
BRANCH   9   1
ATOM      1  S   UNL     1      11.447  10.959  22.507  0.00  0.00    +0.027 S 
ATOM      6  O   UNL     1      11.087  12.099  21.686  0.00  0.00    -0.158 OA
ATOM      7  O   UNL     1      12.780  10.391  22.444  0.00  0.00    -0.158 OA
ATOM     20  C   UNL     1      11.130  11.382  24.203  0.00  0.00    +0.214 C 
ENDBRANCH   9   1
ENDBRANCH  18   9
ENDBRANCH  14  18
TORSDOF 8
ENDMDL
MODEL 2
REMARK VINA RESULT:      -6.1      1.727      2.116
REMARK  Name = 25390436
REMARK  9 active torsions:
REMARK  status: ('A' for Active; 'I' for Inactive)
REMARK    1  A    between atoms: S_1  and  N_9
REMARK    2  A    between atoms: S_1  and  C_20
REMARK    3  A    between atoms: O_3  and  C_12
REMARK    4  A    between atoms: O_4  and  C_13
REMARK    5  A    between atoms: N_8  and  C_11
REMARK    6  A    between atoms: N_9  and  C_18
REMARK    7  A    between atoms: C_10  and  C_17
REMARK    8  A    between atoms: C_14  and  C_18
REMARK    9  A    between atoms: C_17  and  C_19
REMARK                            x       y       z     vdW  Elec       q    Type
REMARK                         _______ _______ _______ _____ _____    ______ ____
ROOT
ATOM      2  O   UNL     1      11.321   8.784  20.348  0.00  0.00    -0.366 OA
ATOM     10  C   UNL     1      11.701   7.403  20.207  0.00  0.00    +0.158 C 
ATOM     12  C   UNL     1      11.845   6.871  21.622  0.00  0.00    +0.175 C 
ATOM     13  C   UNL     1      10.748   7.624  22.343  0.00  0.00    +0.175 C 
ATOM     14  C   UNL     1      10.822   8.998  21.688  0.00  0.00    +0.165 C 
ENDROOT
BRANCH  12   3
ATOM      3  O   UNL     1      11.692   5.468  21.678  0.00  0.00    -0.387 OA
ATOM     22  H   UNL     1      11.027   5.275  22.359  0.00  0.00    +0.210 HD
ENDBRANCH  12   3
BRANCH  13   4
ATOM      4  O   UNL     1       9.474   7.056  22.039  0.00  0.00    -0.387 OA
ATOM     23  H   UNL     1       9.225   6.483  22.784  0.00  0.00    +0.210 HD
ENDBRANCH  13   4
BRANCH  10  17
ATOM     17  C   UNL     1      12.978   7.306  19.392  0.00  0.00    +0.130 C 
BRANCH  17  19
ATOM      5  O   UNL     1      12.355   7.488  17.060  0.00  0.00    -0.276 OA
ATOM      8  N   UNL     1      13.414   9.280  18.090  0.00  0.00    -0.312 N 
ATOM     19  C   UNL     1      12.868   8.005  18.050  0.00  0.00    +0.216 C 
ATOM     21  H   UNL     1      13.825   9.626  18.953  0.00  0.00    +0.149 HD
BRANCH   8  11
ATOM     11  C   UNL     1      13.433  10.147  16.947  0.00  0.00    +0.073 C 
ATOM     15  C   UNL     1      14.561  11.112  16.723  0.00  0.00    +0.024 C 
ATOM     16  C   UNL     1      14.399   9.925  15.820  0.00  0.00    +0.024 C 
ENDBRANCH   8  11
ENDBRANCH  17  19
ENDBRANCH  10  17
BRANCH  14  18
ATOM     18  C   UNL     1      11.779   9.946  22.396  0.00  0.00    +0.139 C 
BRANCH  18   9
ATOM      9  N   UNL     1      11.317  10.170  23.778  0.00  0.00    -0.192 NA
ATOM     24  H   UNL     1      11.500   9.376  24.405  0.00  0.00    +0.148 HD
BRANCH   9   1
ATOM      1  S   UNL     1      11.471  11.725  24.466  0.00  0.00    +0.027 S 
ATOM      6  O   UNL     1      12.351  11.668  25.618  0.00  0.00    -0.158 OA
ATOM      7  O   UNL     1      10.150  12.315  24.570  0.00  0.00    -0.158 OA
ATOM     20  C   UNL     1      12.331  12.574  23.162  0.00  0.00    +0.214 C 
ENDBRANCH   9   1
ENDBRANCH  18   9
ENDBRANCH  14  18
TORSDOF 8
ENDMDL
MODEL 3
REMARK VINA RESULT:      -6.1      3.049      5.633
REMARK  Name = 25390436
REMARK  9 active torsions:
REMARK  status: ('A' for Active; 'I' for Inactive)
REMARK    1  A    between atoms: S_1  and  N_9
REMARK    2  A    between atoms: S_1  and  C_20
REMARK    3  A    between atoms: O_3  and  C_12
REMARK    4  A    between atoms: O_4  and  C_13
REMARK    5  A    between atoms: N_8  and  C_11
REMARK    6  A    between atoms: N_9  and  C_18
REMARK    7  A    between atoms: C_10  and  C_17
REMARK    8  A    between atoms: C_14  and  C_18
REMARK    9  A    between atoms: C_17  and  C_19
REMARK                            x       y       z     vdW  Elec       q    Type
REMARK                         _______ _______ _______ _____ _____    ______ ____
ROOT
ATOM      2  O   UNL     1      12.308   6.601  19.109  0.00  0.00    -0.366 OA
ATOM     10  C   UNL     1      11.605   7.168  20.228  0.00  0.00    +0.158 C 
ATOM     12  C   UNL     1      11.618   8.669  20.003  0.00  0.00    +0.175 C 
ATOM     13  C   UNL     1      11.501   8.752  18.496  0.00  0.00    +0.175 C 
ATOM     14  C   UNL     1      12.365   7.579  18.046  0.00  0.00    +0.165 C 
ENDROOT
BRANCH  12   3
ATOM      3  O   UNL     1      10.563   9.316  20.683  0.00  0.00    -0.387 OA
ATOM     22  H   UNL     1       9.993   9.727  20.011  0.00  0.00    +0.210 HD
ENDBRANCH  12   3
BRANCH  13   4
ATOM      4  O   UNL     1      10.158   8.495  18.088  0.00  0.00    -0.387 OA
ATOM     23  H   UNL     1       9.927   9.156  17.413  0.00  0.00    +0.210 HD
ENDBRANCH  13   4
BRANCH  10  17
ATOM     17  C   UNL     1      12.278   6.745  21.522  0.00  0.00    +0.130 C 
BRANCH  17  19
ATOM      5  O   UNL     1      14.099   8.201  22.174  0.00  0.00    -0.276 OA
ATOM      8  N   UNL     1      14.565   6.297  20.929  0.00  0.00    -0.312 N 
ATOM     19  C   UNL     1      13.729   7.184  21.594  0.00  0.00    +0.216 C 
ATOM     21  H   UNL     1      14.171   5.481  20.470  0.00  0.00    +0.149 HD
BRANCH   8  11
ATOM     11  C   UNL     1      15.985   6.487  20.852  0.00  0.00    +0.073 C 
ATOM     15  C   UNL     1      16.728   6.277  19.565  0.00  0.00    +0.024 C 
ATOM     16  C   UNL     1      16.574   7.660  20.125  0.00  0.00    +0.024 C 
ENDBRANCH   8  11
ENDBRANCH  17  19
ENDBRANCH  10  17
BRANCH  14  18
ATOM     18  C   UNL     1      13.825   7.958  17.839  0.00  0.00    +0.139 C 
BRANCH  18   9
ATOM      9  N   UNL     1      14.117   8.019  16.395  0.00  0.00    -0.192 NA
ATOM     24  H   UNL     1      13.803   7.186  15.878  0.00  0.00    +0.148 HD
BRANCH   9   1
ATOM      1  S   UNL     1      13.972   9.510  15.577  0.00  0.00    +0.027 S 
ATOM      6  O   UNL     1      12.591   9.726  15.187  0.00  0.00    -0.158 OA
ATOM      7  O   UNL     1      15.041   9.606  14.602  0.00  0.00    -0.158 OA
ATOM     20  C   UNL     1      14.351  10.642  16.894  0.00  0.00    +0.214 C 
ENDBRANCH   9   1
ENDBRANCH  18   9
ENDBRANCH  14  18
TORSDOF 8
ENDMDL
MODEL 4
REMARK VINA RESULT:      -6.0      3.375      5.325
REMARK  Name = 25390436
REMARK  9 active torsions:
REMARK  status: ('A' for Active; 'I' for Inactive)
REMARK    1  A    between atoms: S_1  and  N_9
REMARK    2  A    between atoms: S_1  and  C_20
REMARK    3  A    between atoms: O_3  and  C_12
REMARK    4  A    between atoms: O_4  and  C_13
REMARK    5  A    between atoms: N_8  and  C_11
REMARK    6  A    between atoms: N_9  and  C_18
REMARK    7  A    between atoms: C_10  and  C_17
REMARK    8  A    between atoms: C_14  and  C_18
REMARK    9  A    between atoms: C_17  and  C_19
REMARK                            x       y       z     vdW  Elec       q    Type
REMARK                         _______ _______ _______ _____ _____    ______ ____
ROOT
ATOM      2  O   UNL     1      13.329   7.168  20.969  0.00  0.00    -0.366 OA
ATOM     10  C   UNL     1      12.986   8.270  21.828  0.00  0.00    +0.158 C 
ATOM     12  C   UNL     1      12.062   9.156  21.011  0.00  0.00    +0.175 C 
ATOM     13  C   UNL     1      11.292   8.131  20.205  0.00  0.00    +0.175 C 
ATOM     14  C   UNL     1      12.372   7.102  19.887  0.00  0.00    +0.165 C 
ENDROOT
BRANCH  12   3
ATOM      3  O   UNL     1      11.237   9.959  21.829  0.00  0.00    -0.387 OA
ATOM     22  H   UNL     1      10.999   9.430  22.610  0.00  0.00    +0.210 HD
ENDBRANCH  12   3
BRANCH  13   4
ATOM      4  O   UNL     1      10.305   7.500  21.019  0.00  0.00    -0.387 OA
ATOM     23  H   UNL     1      10.037   6.680  20.569  0.00  0.00    +0.210 HD
ENDBRANCH  13   4
BRANCH  10  17
ATOM     17  C   UNL     1      14.251   8.975  22.284  0.00  0.00    +0.130 C 
BRANCH  17  19
ATOM      5  O   UNL     1      15.433   9.652  20.282  0.00  0.00    -0.276 OA
ATOM      8  N   UNL     1      16.270   7.895  21.549  0.00  0.00    -0.312 N 
ATOM     19  C   UNL     1      15.362   8.902  21.253  0.00  0.00    +0.216 C 
ATOM     21  H   UNL     1      16.130   7.317  22.374  0.00  0.00    +0.149 HD
BRANCH   8  11
ATOM     11  C   UNL     1      17.414   7.622  20.728  0.00  0.00    +0.073 C 
ATOM     15  C   UNL     1      18.459   6.633  21.156  0.00  0.00    +0.024 C 
ATOM     16  C   UNL     1      17.554   6.317  20.001  0.00  0.00    +0.024 C 
ENDBRANCH   8  11
ENDBRANCH  17  19
ENDBRANCH  10  17
BRANCH  14  18
ATOM     18  C   UNL     1      13.113   7.396  18.590  0.00  0.00    +0.139 C 
BRANCH  18   9
ATOM      9  N   UNL     1      12.143   7.520  17.487  0.00  0.00    -0.192 NA
ATOM     24  H   UNL     1      11.184   7.256  17.752  0.00  0.00    +0.148 HD
BRANCH   9   1
ATOM      1  S   UNL     1      12.289   8.821  16.391  0.00  0.00    +0.027 S 
ATOM      6  O   UNL     1      10.972   9.270  15.982  0.00  0.00    -0.158 OA
ATOM      7  O   UNL     1      13.296   8.480  15.404  0.00  0.00    -0.158 OA
ATOM     20  C   UNL     1      12.986  10.064  17.453  0.00  0.00    +0.214 C 
ENDBRANCH   9   1
ENDBRANCH  18   9
ENDBRANCH  14  18
TORSDOF 8
ENDMDL
MODEL 5
REMARK VINA RESULT:      -5.7      2.867      5.692
REMARK  Name = 25390436
REMARK  9 active torsions:
REMARK  status: ('A' for Active; 'I' for Inactive)
REMARK    1  A    between atoms: S_1  and  N_9
REMARK    2  A    between atoms: S_1  and  C_20
REMARK    3  A    between atoms: O_3  and  C_12
REMARK    4  A    between atoms: O_4  and  C_13
REMARK    5  A    between atoms: N_8  and  C_11
REMARK    6  A    between atoms: N_9  and  C_18
REMARK    7  A    between atoms: C_10  and  C_17
REMARK    8  A    between atoms: C_14  and  C_18
REMARK    9  A    between atoms: C_17  and  C_19
REMARK                            x       y       z     vdW  Elec       q    Type
REMARK                         _______ _______ _______ _____ _____    ______ ____
ROOT
ATOM      2  O   UNL     1      15.315   8.687  19.781  0.00  0.00    -0.366 OA
ATOM     10  C   UNL     1      15.866   8.294  21.051  0.00  0.00    +0.158 C 
ATOM     12  C   UNL     1      15.565   6.811  21.187  0.00  0.00    +0.175 C 
ATOM     13  C   UNL     1      15.702   6.340  19.755  0.00  0.00    +0.175 C 
ATOM     14  C   UNL     1      15.096   7.504  18.978  0.00  0.00    +0.165 C 
ENDROOT
BRANCH  12   3
ATOM      3  O   UNL     1      16.455   6.170  22.075  0.00  0.00    -0.387 OA
ATOM     22  H   UNL     1      17.258   5.949  21.573  0.00  0.00    +0.210 HD
ENDBRANCH  12   3
BRANCH  13   4
ATOM      4  O   UNL     1      17.080   6.238  19.396  0.00  0.00    -0.387 OA
ATOM     23  H   UNL     1      17.134   5.675  18.605  0.00  0.00    +0.210 HD
ENDBRANCH  13   4
BRANCH  10  17
ATOM     17  C   UNL     1      15.255   9.137  22.155  0.00  0.00    +0.130 C 
BRANCH  17  19
ATOM      5  O   UNL     1      13.604  10.700  21.322  0.00  0.00    -0.276 OA
ATOM      8  N   UNL     1      12.900   8.648  22.150  0.00  0.00    -0.312 N 
ATOM     19  C   UNL     1      13.850   9.605  21.822  0.00  0.00    +0.216 C 
ATOM     21  H   UNL     1      13.194   7.768  22.567  0.00  0.00    +0.149 HD
BRANCH   8  11
ATOM     11  C   UNL     1      11.497   8.849  21.933  0.00  0.00    +0.073 C 
ATOM     15  C   UNL     1      10.773   8.138  20.827  0.00  0.00    +0.024 C 
ATOM     16  C   UNL     1      10.499   7.776  22.257  0.00  0.00    +0.024 C 
ENDBRANCH   8  11
ENDBRANCH  17  19
ENDBRANCH  10  17
BRANCH  14  18
ATOM     18  C   UNL     1      13.597   7.360  18.761  0.00  0.00    +0.139 C 
BRANCH  18   9
ATOM      9  N   UNL     1      13.293   7.495  17.325  0.00  0.00    -0.192 NA
ATOM     24  H   UNL     1      13.216   6.593  16.836  0.00  0.00    +0.148 HD
BRANCH   9   1
ATOM      1  S   UNL     1      12.224   8.723  16.811  0.00  0.00    +0.027 S 
ATOM      6  O   UNL     1      10.885   8.443  17.293  0.00  0.00    -0.158 OA
ATOM      7  O   UNL     1      12.466   8.986  15.406  0.00  0.00    -0.158 OA
ATOM     20  C   UNL     1      12.857  10.108  17.727  0.00  0.00    +0.214 C 
ENDBRANCH   9   1
ENDBRANCH  18   9
ENDBRANCH  14  18
TORSDOF 8
ENDMDL
MODEL 6
REMARK VINA RESULT:      -5.6      2.861      3.787
REMARK  Name = 25390436
REMARK  9 active torsions:
REMARK  status: ('A' for Active; 'I' for Inactive)
REMARK    1  A    between atoms: S_1  and  N_9
REMARK    2  A    between atoms: S_1  and  C_20
REMARK    3  A    between atoms: O_3  and  C_12
REMARK    4  A    between atoms: O_4  and  C_13
REMARK    5  A    between atoms: N_8  and  C_11
REMARK    6  A    between atoms: N_9  and  C_18
REMARK    7  A    between atoms: C_10  and  C_17
REMARK    8  A    between atoms: C_14  and  C_18
REMARK    9  A    between atoms: C_17  and  C_19
REMARK                            x       y       z     vdW  Elec       q    Type
REMARK                         _______ _______ _______ _____ _____    ______ ____
ROOT
ATOM      2  O   UNL     1      11.245   8.968  20.205  0.00  0.00    -0.366 OA
ATOM     10  C   UNL     1      11.892   7.688  20.091  0.00  0.00    +0.158 C 
ATOM     12  C   UNL     1      12.098   7.205  21.516  0.00  0.00    +0.175 C 
ATOM     13  C   UNL     1      10.853   7.732  22.199  0.00  0.00    +0.175 C 
ATOM     14  C   UNL     1      10.675   9.090  21.528  0.00  0.00    +0.165 C 
ENDROOT
BRANCH  12   3
ATOM      3  O   UNL     1      12.222   5.800  21.586  0.00  0.00    -0.387 OA
ATOM     22  H   UNL     1      11.465   5.417  21.110  0.00  0.00    +0.210 HD
ENDBRANCH  12   3
BRANCH  13   4
ATOM      4  O   UNL     1       9.726   6.923  21.868  0.00  0.00    -0.387 OA
ATOM     23  H   UNL     1       9.991   5.994  21.977  0.00  0.00    +0.210 HD
ENDBRANCH  13   4
BRANCH  10  17
ATOM     17  C   UNL     1      13.186   7.838  19.313  0.00  0.00    +0.130 C 
BRANCH  17  19
ATOM      5  O   UNL     1      14.562   9.312  20.653  0.00  0.00    -0.276 OA
ATOM      8  N   UNL     1      15.174   7.083  20.435  0.00  0.00    -0.312 N 
ATOM     19  C   UNL     1      14.365   8.186  20.203  0.00  0.00    +0.216 C 
ATOM     21  H   UNL     1      14.939   6.187  20.017  0.00  0.00    +0.149 HD
BRANCH   8  11
ATOM     11  C   UNL     1      16.355   7.150  21.248  0.00  0.00    +0.073 C 
ATOM     15  C   UNL     1      17.627   6.474  20.826  0.00  0.00    +0.024 C 
ATOM     16  C   UNL     1      17.539   7.972  20.831  0.00  0.00    +0.024 C 
ENDBRANCH   8  11
ENDBRANCH  17  19
ENDBRANCH  10  17
BRANCH  14  18
ATOM     18  C   UNL     1      11.407  10.212  22.250  0.00  0.00    +0.139 C 
BRANCH  18   9
ATOM      9  N   UNL     1      10.527  10.788  23.284  0.00  0.00    -0.192 NA
ATOM     24  H   UNL     1      10.015  10.079  23.826  0.00  0.00    +0.148 HD
BRANCH   9   1
ATOM      1  S   UNL     1      11.048  12.166  24.146  0.00  0.00    +0.027 S 
ATOM      6  O   UNL     1      10.580  12.094  25.517  0.00  0.00    -0.158 OA
ATOM      7  O   UNL     1      10.788  13.341  23.335  0.00  0.00    -0.158 OA
ATOM     20  C   UNL     1      12.805  11.903  24.152  0.00  0.00    +0.214 C 
ENDBRANCH   9   1
ENDBRANCH  18   9
ENDBRANCH  14  18
TORSDOF 8
ENDMDL
MODEL 7
REMARK VINA RESULT:      -5.6     27.774     29.973
REMARK  Name = 25390436
REMARK  9 active torsions:
REMARK  status: ('A' for Active; 'I' for Inactive)
REMARK    1  A    between atoms: S_1  and  N_9
REMARK    2  A    between atoms: S_1  and  C_20
REMARK    3  A    between atoms: O_3  and  C_12
REMARK    4  A    between atoms: O_4  and  C_13
REMARK    5  A    between atoms: N_8  and  C_11
REMARK    6  A    between atoms: N_9  and  C_18
REMARK    7  A    between atoms: C_10  and  C_17
REMARK    8  A    between atoms: C_14  and  C_18
REMARK    9  A    between atoms: C_17  and  C_19
REMARK                            x       y       z     vdW  Elec       q    Type
REMARK                         _______ _______ _______ _____ _____    ______ ____
ROOT
ATOM      2  O   UNL     1     -13.454   3.923  32.678  0.00  0.00    -0.366 OA
ATOM     10  C   UNL     1     -14.615   4.471  33.328  0.00  0.00    +0.158 C 
ATOM     12  C   UNL     1     -15.751   3.515  33.010  0.00  0.00    +0.175 C 
ATOM     13  C   UNL     1     -15.037   2.180  33.014  0.00  0.00    +0.175 C 
ATOM     14  C   UNL     1     -13.702   2.533  32.366  0.00  0.00    +0.165 C 
ENDROOT
BRANCH  12   3
ATOM      3  O   UNL     1     -16.792   3.596  33.961  0.00  0.00    -0.387 OA
ATOM     22  H   UNL     1     -17.064   2.686  34.173  0.00  0.00    +0.210 HD
ENDBRANCH  12   3
BRANCH  13   4
ATOM      4  O   UNL     1     -14.782   1.758  34.353  0.00  0.00    -0.387 OA
ATOM     23  H   UNL     1     -13.945   1.263  34.347  0.00  0.00    +0.210 HD
ENDBRANCH  13   4
BRANCH  10  17
ATOM     17  C   UNL     1     -14.858   5.884  32.832  0.00  0.00    +0.130 C 
BRANCH  17  19
ATOM      5  O   UNL     1     -13.519   6.919  34.563  0.00  0.00    -0.276 OA
ATOM      8  N   UNL     1     -13.360   7.712  32.386  0.00  0.00    -0.312 N 
ATOM     19  C   UNL     1     -13.849   6.877  33.380  0.00  0.00    +0.216 C 
ATOM     21  H   UNL     1     -13.694   7.609  31.431  0.00  0.00    +0.149 HD
BRANCH   8  11
ATOM     11  C   UNL     1     -12.392   8.737  32.648  0.00  0.00    +0.073 C 
ATOM     15  C   UNL     1     -11.145   8.858  31.820  0.00  0.00    +0.024 C 
ATOM     16  C   UNL     1     -12.220   9.900  31.716  0.00  0.00    +0.024 C 
ENDBRANCH   8  11
ENDBRANCH  17  19
ENDBRANCH  10  17
BRANCH  14  18
ATOM     18  C   UNL     1     -13.718   2.391  30.851  0.00  0.00    +0.139 C 
BRANCH  18   9
ATOM      9  N   UNL     1     -13.263   1.038  30.479  0.00  0.00    -0.192 NA
ATOM     24  H   UNL     1     -12.451   0.716  31.023  0.00  0.00    +0.148 HD
BRANCH   9   1
ATOM      1  S   UNL     1     -14.422  -0.150  30.080  0.00  0.00    +0.027 S 
ATOM      6  O   UNL     1     -15.044  -0.656  31.288  0.00  0.00    -0.158 OA
ATOM      7  O   UNL     1     -13.835  -1.058  29.112  0.00  0.00    -0.158 OA
ATOM     20  C   UNL     1     -15.621   0.840  29.220  0.00  0.00    +0.214 C 
ENDBRANCH   9   1
ENDBRANCH  18   9
ENDBRANCH  14  18
TORSDOF 8
ENDMDL
MODEL 8
REMARK VINA RESULT:      -5.6      3.449      4.709
REMARK  Name = 25390436
REMARK  9 active torsions:
REMARK  status: ('A' for Active; 'I' for Inactive)
REMARK    1  A    between atoms: S_1  and  N_9
REMARK    2  A    between atoms: S_1  and  C_20
REMARK    3  A    between atoms: O_3  and  C_12
REMARK    4  A    between atoms: O_4  and  C_13
REMARK    5  A    between atoms: N_8  and  C_11
REMARK    6  A    between atoms: N_9  and  C_18
REMARK    7  A    between atoms: C_10  and  C_17
REMARK    8  A    between atoms: C_14  and  C_18
REMARK    9  A    between atoms: C_17  and  C_19
REMARK                            x       y       z     vdW  Elec       q    Type
REMARK                         _______ _______ _______ _____ _____    ______ ____
ROOT
ATOM      2  O   UNL     1      14.574   8.069  18.850  0.00  0.00    -0.366 OA
ATOM     10  C   UNL     1      14.147   6.834  19.451  0.00  0.00    +0.158 C 
ATOM     12  C   UNL     1      12.682   7.030  19.797  0.00  0.00    +0.175 C 
ATOM     13  C   UNL     1      12.211   7.893  18.646  0.00  0.00    +0.175 C 
ATOM     14  C   UNL     1      13.408   8.812  18.428  0.00  0.00    +0.165 C 
ENDROOT
BRANCH  12   3
ATOM      3  O   UNL     1      11.992   5.803  19.895  0.00  0.00    -0.387 OA
ATOM     22  H   UNL     1      12.095   5.483  20.808  0.00  0.00    +0.210 HD
ENDBRANCH  12   3
BRANCH  13   4
ATOM      4  O   UNL     1      12.040   7.102  17.471  0.00  0.00    -0.387 OA
ATOM     23  H   UNL     1      11.665   6.249  17.746  0.00  0.00    +0.210 HD
ENDBRANCH  13   4
BRANCH  10  17
ATOM     17  C   UNL     1      15.016   6.527  20.658  0.00  0.00    +0.130 C 
BRANCH  17  19
ATOM      5  O   UNL     1      17.257   6.220  19.795  0.00  0.00    -0.276 OA
ATOM      8  N   UNL     1      16.782   8.109  21.058  0.00  0.00    -0.312 N 
ATOM     19  C   UNL     1      16.469   6.906  20.441  0.00  0.00    +0.216 C 
ATOM     21  H   UNL     1      16.067   8.610  21.579  0.00  0.00    +0.149 HD
BRANCH   8  11
ATOM     11  C   UNL     1      18.094   8.687  21.002  0.00  0.00    +0.073 C 
ATOM     15  C   UNL     1      18.527   9.729  21.992  0.00  0.00    +0.024 C 
ATOM     16  C   UNL     1      19.133   8.357  22.032  0.00  0.00    +0.024 C 
ENDBRANCH   8  11
ENDBRANCH  17  19
ENDBRANCH  10  17
BRANCH  14  18
ATOM     18  C   UNL     1      13.341  10.086  19.259  0.00  0.00    +0.139 C 
BRANCH  18   9
ATOM      9  N   UNL     1      14.462  10.108  20.217  0.00  0.00    -0.192 NA
ATOM     24  H   UNL     1      15.326  10.507  19.826  0.00  0.00    +0.148 HD
BRANCH   9   1
ATOM      1  S   UNL     1      14.148  10.450  21.859  0.00  0.00    +0.027 S 
ATOM      6  O   UNL     1      14.347  11.864  22.114  0.00  0.00    -0.158 OA
ATOM      7  O   UNL     1      14.812   9.450  22.673  0.00  0.00    -0.158 OA
ATOM     20  C   UNL     1      12.403  10.122  21.932  0.00  0.00    +0.214 C 
ENDBRANCH   9   1
ENDBRANCH  18   9
ENDBRANCH  14  18
TORSDOF 8
ENDMDL
MODEL 9
REMARK VINA RESULT:      -5.4      2.516      5.861
REMARK  Name = 25390436
REMARK  9 active torsions:
REMARK  status: ('A' for Active; 'I' for Inactive)
REMARK    1  A    between atoms: S_1  and  N_9
REMARK    2  A    between atoms: S_1  and  C_20
REMARK    3  A    between atoms: O_3  and  C_12
REMARK    4  A    between atoms: O_4  and  C_13
REMARK    5  A    between atoms: N_8  and  C_11
REMARK    6  A    between atoms: N_9  and  C_18
REMARK    7  A    between atoms: C_10  and  C_17
REMARK    8  A    between atoms: C_14  and  C_18
REMARK    9  A    between atoms: C_17  and  C_19
REMARK                            x       y       z     vdW  Elec       q    Type
REMARK                         _______ _______ _______ _____ _____    ______ ____
ROOT
ATOM      2  O   UNL     1      13.606   8.932  21.303  0.00  0.00    -0.366 OA
ATOM     10  C   UNL     1      12.497   8.057  21.575  0.00  0.00    +0.158 C 
ATOM     12  C   UNL     1      12.342   7.194  20.335  0.00  0.00    +0.175 C 
ATOM     13  C   UNL     1      13.783   7.016  19.906  0.00  0.00    +0.175 C 
ATOM     14  C   UNL     1      14.376   8.388  20.207  0.00  0.00    +0.165 C 
ENDROOT
BRANCH  12   3
ATOM      3  O   UNL     1      11.687   5.975  20.616  0.00  0.00    -0.387 OA
ATOM     22  H   UNL     1      10.998   6.161  21.276  0.00  0.00    +0.210 HD
ENDBRANCH  12   3
BRANCH  13   4
ATOM      4  O   UNL     1      14.435   6.060  20.741  0.00  0.00    -0.387 OA
ATOM     23  H   UNL     1      14.271   6.319  21.664  0.00  0.00    +0.210 HD
ENDBRANCH  13   4
BRANCH  10  17
ATOM     17  C   UNL     1      11.263   8.880  21.895  0.00  0.00    +0.130 C 
BRANCH  17  19
ATOM      5  O   UNL     1      11.278  11.261  21.459  0.00  0.00    -0.276 OA
ATOM      8  N   UNL     1      12.281  10.461  23.395  0.00  0.00    -0.312 N 
ATOM     19  C   UNL     1      11.592  10.330  22.197  0.00  0.00    +0.216 C 
ATOM     21  H   UNL     1      12.505   9.633  23.941  0.00  0.00    +0.149 HD
BRANCH   8  11
ATOM     11  C   UNL     1      12.707  11.732  23.904  0.00  0.00    +0.073 C 
ATOM     15  C   UNL     1      13.425  11.841  25.218  0.00  0.00    +0.024 C 
ATOM     16  C   UNL     1      14.159  12.109  23.937  0.00  0.00    +0.024 C 
ENDBRANCH   8  11
ENDBRANCH  17  19
ENDBRANCH  10  17
BRANCH  14  18
ATOM     18  C   UNL     1      14.268   9.354  19.036  0.00  0.00    +0.139 C 
BRANCH  18   9
ATOM      9  N   UNL     1      14.284   8.597  17.771  0.00  0.00    -0.192 NA
ATOM     24  H   UNL     1      14.236   7.578  17.903  0.00  0.00    +0.148 HD
BRANCH   9   1
ATOM      1  S   UNL     1      13.452   9.221  16.417  0.00  0.00    +0.027 S 
ATOM      6  O   UNL     1      13.739   8.412  15.247  0.00  0.00    -0.158 OA
ATOM      7  O   UNL     1      13.638  10.660  16.386  0.00  0.00    -0.158 OA
ATOM     20  C   UNL     1      11.769   8.913  16.897  0.00  0.00    +0.214 C 
ENDBRANCH   9   1
ENDBRANCH  18   9
ENDBRANCH  14  18
TORSDOF 8
ENDMDL
MODEL 10
REMARK VINA RESULT:      -5.4     13.177     15.481
REMARK  Name = 25390436
REMARK  9 active torsions:
REMARK  status: ('A' for Active; 'I' for Inactive)
REMARK    1  A    between atoms: S_1  and  N_9
REMARK    2  A    between atoms: S_1  and  C_20
REMARK    3  A    between atoms: O_3  and  C_12
REMARK    4  A    between atoms: O_4  and  C_13
REMARK    5  A    between atoms: N_8  and  C_11
REMARK    6  A    between atoms: N_9  and  C_18
REMARK    7  A    between atoms: C_10  and  C_17
REMARK    8  A    between atoms: C_14  and  C_18
REMARK    9  A    between atoms: C_17  and  C_19
REMARK                            x       y       z     vdW  Elec       q    Type
REMARK                         _______ _______ _______ _____ _____    ______ ____
ROOT
ATOM      2  O   UNL     1       9.718   6.063   5.726  0.00  0.00    -0.366 OA
ATOM     10  C   UNL     1      11.148   5.970   5.608  0.00  0.00    +0.158 C 
ATOM     12  C   UNL     1      11.705   6.557   6.893  0.00  0.00    +0.175 C 
ATOM     13  C   UNL     1      10.671   6.110   7.905  0.00  0.00    +0.175 C 
ATOM     14  C   UNL     1       9.373   6.256   7.117  0.00  0.00    +0.165 C 
ENDROOT
BRANCH  12   3
ATOM      3  O   UNL     1      13.004   6.081   7.174  0.00  0.00    -0.387 OA
ATOM     22  H   UNL     1      13.596   6.852   7.206  0.00  0.00    +0.210 HD
ENDBRANCH  12   3
BRANCH  13   4
ATOM      4  O   UNL     1      10.846   4.729   8.217  0.00  0.00    -0.387 OA
ATOM     23  H   UNL     1      11.668   4.648   8.731  0.00  0.00    +0.210 HD
ENDBRANCH  13   4
BRANCH  10  17
ATOM     17  C   UNL     1      11.607   6.705   4.362  0.00  0.00    +0.130 C 
BRANCH  17  19
ATOM      5  O   UNL     1      10.535   5.539   2.531  0.00  0.00    -0.276 OA
ATOM      8  N   UNL     1      12.842   5.409   2.756  0.00  0.00    -0.312 N 
ATOM     19  C   UNL     1      11.571   5.829   3.123  0.00  0.00    +0.216 C 
ATOM     21  H   UNL     1      13.646   5.693   3.309  0.00  0.00    +0.149 HD
BRANCH   8  11
ATOM     11  C   UNL     1      13.078   4.570   1.617  0.00  0.00    +0.073 C 
ATOM     15  C   UNL     1      14.259   3.645   1.565  0.00  0.00    +0.024 C 
ATOM     16  C   UNL     1      12.872   3.085   1.689  0.00  0.00    +0.024 C 
ENDBRANCH   8  11
ENDBRANCH  17  19
ENDBRANCH  10  17
BRANCH  14  18
ATOM     18  C   UNL     1       8.744   7.635   7.254  0.00  0.00    +0.139 C 
BRANCH  18   9
ATOM      9  N   UNL     1       7.687   7.797   6.239  0.00  0.00    -0.192 NA
ATOM     24  H   UNL     1       6.737   7.800   6.634  0.00  0.00    +0.148 HD
BRANCH   9   1
ATOM      1  S   UNL     1       7.956   8.840   4.915  0.00  0.00    +0.027 S 
ATOM      6  O   UNL     1       6.937   9.872   4.886  0.00  0.00    -0.158 OA
ATOM      7  O   UNL     1       8.227   8.033   3.741  0.00  0.00    -0.158 OA
ATOM     20  C   UNL     1       9.488   9.597   5.404  0.00  0.00    +0.214 C 
ENDBRANCH   9   1
ENDBRANCH  18   9
ENDBRANCH  14  18
TORSDOF 8
ENDMDL
