MODEL 1
REMARK VINA RESULT:      -7.1      0.000      0.000
REMARK  Name = 51137032
REMARK  5 active torsions:
REMARK  status: ('A' for Active; 'I' for Inactive)
REMARK    1  A    between atoms: S_1  and  C_19
REMARK    2  A    between atoms: S_1  and  C_22
REMARK    3  A    between atoms: C_9  and  C_13
REMARK    4  A    between atoms: C_14  and  C_18
REMARK    5  A    between atoms: C_22  and  C_24
REMARK                            x       y       z     vdW  Elec       q    Type
REMARK                         _______ _______ _______ _____ _____    ______ ____
ROOT
ATOM      2  O   UNL     1      15.225   6.960  18.782  0.00  0.00    -0.439 OA
ATOM      7  N   UNL     1      15.599   8.469  20.433  0.00  0.00    -0.213 NA
ATOM     13  C   UNL     1      14.787   8.037  19.492  0.00  0.00    +0.201 A 
ATOM     15  C   UNL     1      16.667   7.609  20.346  0.00  0.00    +0.111 A 
ATOM     16  C   UNL     1      16.442   6.685  19.337  0.00  0.00    +0.155 A 
ATOM     17  C   UNL     1      17.862   7.539  21.076  0.00  0.00    +0.058 A 
ATOM     19  C   UNL     1      18.777   6.528  20.747  0.00  0.00    +0.090 A 
ATOM     20  C   UNL     1      17.323   5.670  18.982  0.00  0.00    +0.050 A 
ATOM     21  C   UNL     1      18.511   5.613  19.720  0.00  0.00    +0.030 A 
ENDROOT
BRANCH  13   9
ATOM      3  O   UNL     1      10.988   8.903  23.049  0.00  0.00    -0.268 OA
ATOM      6  N   UNL     1      12.054   9.020  20.989  0.00  0.00    -0.296 N 
ATOM      9  C   UNL     1      13.427   8.585  19.095  0.00  0.00    +0.094 C 
ATOM     10  C   UNL     1      12.332   7.511  19.197  0.00  0.00    +0.033 C 
ATOM     11  C   UNL     1      12.855   9.706  19.973  0.00  0.00    +0.121 C 
ATOM     12  C   UNL     1      11.840   7.626  20.633  0.00  0.00    +0.109 C 
ATOM     14  C   UNL     1      11.597   9.539  22.191  0.00  0.00    +0.265 C 
BRANCH  14  18
ATOM      8  N   UNL     1      11.022  11.842  21.907  0.00  0.00    -0.250 NA
ATOM     18  C   UNL     1      11.875  10.955  22.469  0.00  0.00    +0.126 A 
ATOM     23  C   UNL     1      12.954  11.313  23.261  0.00  0.00    +0.033 A 
ATOM     25  C   UNL     1      13.171  12.666  23.493  0.00  0.00    +0.004 A 
ATOM     26  C   UNL     1      11.265  13.148  22.154  0.00  0.00    +0.111 A 
ATOM     27  C   UNL     1      12.315  13.608  22.932  0.00  0.00    +0.020 A 
ENDBRANCH  14  18
ENDBRANCH  13   9
BRANCH  19   1
ATOM      1  S   UNL     1      20.280   6.410  21.635  0.00  0.00    -0.003 S 
ATOM      4  O   UNL     1      21.136   7.524  21.257  0.00  0.00    -0.169 OA
ATOM      5  O   UNL     1      19.952   6.188  23.034  0.00  0.00    -0.169 OA
BRANCH   1  22
ATOM     22  C   UNL     1      21.045   4.933  21.009  0.00  0.00    +0.168 C 
ATOM     24  C   UNL     1      21.809   4.202  22.090  0.00  0.00    +0.028 C 
ENDBRANCH   1  22
ENDBRANCH  19   1
TORSDOF 4
ENDMDL
MODEL 2
REMARK VINA RESULT:      -7.0      1.491      2.003
REMARK  Name = 51137032
REMARK  5 active torsions:
REMARK  status: ('A' for Active; 'I' for Inactive)
REMARK    1  A    between atoms: S_1  and  C_19
REMARK    2  A    between atoms: S_1  and  C_22
REMARK    3  A    between atoms: C_9  and  C_13
REMARK    4  A    between atoms: C_14  and  C_18
REMARK    5  A    between atoms: C_22  and  C_24
REMARK                            x       y       z     vdW  Elec       q    Type
REMARK                         _______ _______ _______ _____ _____    ______ ____
ROOT
ATOM      2  O   UNL     1      16.123   8.495  20.482  0.00  0.00    -0.439 OA
ATOM      7  N   UNL     1      16.271   6.613  19.226  0.00  0.00    -0.213 NA
ATOM     13  C   UNL     1      15.567   7.679  19.543  0.00  0.00    +0.201 A 
ATOM     15  C   UNL     1      17.389   6.727  20.015  0.00  0.00    +0.111 A 
ATOM     16  C   UNL     1      17.302   7.877  20.785  0.00  0.00    +0.155 A 
ATOM     17  C   UNL     1      18.520   5.908  20.145  0.00  0.00    +0.058 A 
ATOM     19  C   UNL     1      19.514   6.297  21.054  0.00  0.00    +0.090 A 
ATOM     20  C   UNL     1      18.265   8.295  21.695  0.00  0.00    +0.050 A 
ATOM     21  C   UNL     1      19.388   7.468  21.813  0.00  0.00    +0.030 A 
ENDROOT
BRANCH  13   9
ATOM      3  O   UNL     1      11.392   8.366  22.694  0.00  0.00    -0.268 OA
ATOM      6  N   UNL     1      12.641   8.503  20.741  0.00  0.00    -0.296 N 
ATOM      9  C   UNL     1      14.217   8.115  19.000  0.00  0.00    +0.094 C 
ATOM     10  C   UNL     1      13.195   6.968  19.036  0.00  0.00    +0.033 C 
ATOM     11  C   UNL     1      13.487   9.216  19.782  0.00  0.00    +0.121 C 
ATOM     12  C   UNL     1      12.560   7.087  20.415  0.00  0.00    +0.109 C 
ATOM     14  C   UNL     1      12.036   9.021  21.876  0.00  0.00    +0.265 C 
BRANCH  14  18
ATOM      8  N   UNL     1      13.241  10.814  22.900  0.00  0.00    -0.250 NA
ATOM     18  C   UNL     1      12.187  10.460  22.129  0.00  0.00    +0.126 A 
ATOM     23  C   UNL     1      11.282  11.363  21.592  0.00  0.00    +0.033 A 
ATOM     25  C   UNL     1      11.472  12.713  21.863  0.00  0.00    +0.004 A 
ATOM     26  C   UNL     1      13.393  12.135  23.141  0.00  0.00    +0.111 A 
ATOM     27  C   UNL     1      12.545  13.115  22.651  0.00  0.00    +0.020 A 
ENDBRANCH  14  18
ENDBRANCH  13   9
BRANCH  19   1
ATOM      1  S   UNL     1      20.939   5.300  21.244  0.00  0.00    -0.003 S 
ATOM      4  O   UNL     1      21.248   5.188  22.661  0.00  0.00    -0.169 OA
ATOM      5  O   UNL     1      20.749   4.098  20.446  0.00  0.00    -0.169 OA
BRANCH   1  22
ATOM     22  C   UNL     1      22.244   6.251  20.502  0.00  0.00    +0.168 C 
ATOM     24  C   UNL     1      23.606   5.721  20.887  0.00  0.00    +0.028 C 
ENDBRANCH   1  22
ENDBRANCH  19   1
TORSDOF 4
ENDMDL
MODEL 3
REMARK VINA RESULT:      -6.6     27.498     29.822
REMARK  Name = 51137032
REMARK  5 active torsions:
REMARK  status: ('A' for Active; 'I' for Inactive)
REMARK    1  A    between atoms: S_1  and  C_19
REMARK    2  A    between atoms: S_1  and  C_22
REMARK    3  A    between atoms: C_9  and  C_13
REMARK    4  A    between atoms: C_14  and  C_18
REMARK    5  A    between atoms: C_22  and  C_24
REMARK                            x       y       z     vdW  Elec       q    Type
REMARK                         _______ _______ _______ _____ _____    ______ ____
ROOT
ATOM      2  O   UNL     1      -3.203 -11.243  17.124  0.00  0.00    -0.439 OA
ATOM      7  N   UNL     1      -4.815 -10.728  15.616  0.00  0.00    -0.213 NA
ATOM     13  C   UNL     1      -3.528 -10.847  15.861  0.00  0.00    +0.201 A 
ATOM     15  C   UNL     1      -5.398 -11.073  16.810  0.00  0.00    +0.111 A 
ATOM     16  C   UNL     1      -4.415 -11.388  17.736  0.00  0.00    +0.155 A 
ATOM     17  C   UNL     1      -6.743 -11.145  17.199  0.00  0.00    +0.058 A 
ATOM     19  C   UNL     1      -7.029 -11.537  18.515  0.00  0.00    +0.090 A 
ATOM     20  C   UNL     1      -4.658 -11.780  19.047  0.00  0.00    +0.050 A 
ATOM     21  C   UNL     1      -6.005 -11.848  19.419  0.00  0.00    +0.030 A 
ENDROOT
BRANCH  13   9
ATOM      3  O   UNL     1      -3.229 -13.155  11.127  0.00  0.00    -0.268 OA
ATOM      6  N   UNL     1      -2.674 -11.659  12.814  0.00  0.00    -0.296 N 
ATOM      9  C   UNL     1      -2.360 -10.601  14.922  0.00  0.00    +0.094 C 
ATOM     10  C   UNL     1      -1.445 -11.831  14.821  0.00  0.00    +0.033 C 
ATOM     11  C   UNL     1      -2.707 -10.341  13.450  0.00  0.00    +0.121 C 
ATOM     12  C   UNL     1      -2.049 -12.644  13.684  0.00  0.00    +0.109 C 
ATOM     14  C   UNL     1      -3.217 -12.016  11.589  0.00  0.00    +0.265 C 
BRANCH  14  18
ATOM      8  N   UNL     1      -5.169 -11.085  10.569  0.00  0.00    -0.250 NA
ATOM     18  C   UNL     1      -3.841 -10.954  10.788  0.00  0.00    +0.126 A 
ATOM     23  C   UNL     1      -3.076  -9.903  10.305  0.00  0.00    +0.033 A 
ATOM     25  C   UNL     1      -3.716  -8.924   9.553  0.00  0.00    +0.004 A 
ATOM     26  C   UNL     1      -5.756 -10.115   9.834  0.00  0.00    +0.111 A 
ATOM     27  C   UNL     1      -5.081  -9.025   9.308  0.00  0.00    +0.020 A 
ENDBRANCH  14  18
ENDBRANCH  13   9
BRANCH  19   1
ATOM      1  S   UNL     1      -8.696 -11.637  19.036  0.00  0.00    -0.003 S 
ATOM      4  O   UNL     1      -9.049 -13.038  19.212  0.00  0.00    -0.169 OA
ATOM      5  O   UNL     1      -8.874 -10.701  20.135  0.00  0.00    -0.169 OA
BRANCH   1  22
ATOM     22  C   UNL     1      -9.627 -11.037  17.647  0.00  0.00    +0.168 C 
ATOM     24  C   UNL     1     -10.166  -9.647  17.898  0.00  0.00    +0.028 C 
ENDBRANCH   1  22
ENDBRANCH  19   1
TORSDOF 4
ENDMDL
MODEL 4
REMARK VINA RESULT:      -6.4     27.440     30.757
REMARK  Name = 51137032
REMARK  5 active torsions:
REMARK  status: ('A' for Active; 'I' for Inactive)
REMARK    1  A    between atoms: S_1  and  C_19
REMARK    2  A    between atoms: S_1  and  C_22
REMARK    3  A    between atoms: C_9  and  C_13
REMARK    4  A    between atoms: C_14  and  C_18
REMARK    5  A    between atoms: C_22  and  C_24
REMARK                            x       y       z     vdW  Elec       q    Type
REMARK                         _______ _______ _______ _____ _____    ______ ____
ROOT
ATOM      2  O   UNL     1      -8.630 -10.286  18.682  0.00  0.00    -0.439 OA
ATOM      7  N   UNL     1      -7.602  -9.194  16.982  0.00  0.00    -0.213 NA
ATOM     13  C   UNL     1      -7.469  -9.928  18.065  0.00  0.00    +0.201 A 
ATOM     15  C   UNL     1      -8.963  -9.050  16.863  0.00  0.00    +0.111 A 
ATOM     16  C   UNL     1      -9.596  -9.717  17.902  0.00  0.00    +0.155 A 
ATOM     17  C   UNL     1      -9.745  -8.376  15.915  0.00  0.00    +0.058 A 
ATOM     19  C   UNL     1     -11.139  -8.411  16.065  0.00  0.00    +0.090 A 
ATOM     20  C   UNL     1     -10.972  -9.774  18.085  0.00  0.00    +0.050 A 
ATOM     21  C   UNL     1     -11.738  -9.096  17.129  0.00  0.00    +0.030 A 
ENDROOT
BRANCH  13   9
ATOM      3  O   UNL     1      -4.501 -13.688  15.854  0.00  0.00    -0.268 OA
ATOM      6  N   UNL     1      -5.033 -11.979  17.334  0.00  0.00    -0.296 N 
ATOM      9  C   UNL     1      -6.191 -10.427  18.717  0.00  0.00    +0.094 C 
ATOM     10  C   UNL     1      -6.359 -11.847  19.281  0.00  0.00    +0.033 C 
ATOM     11  C   UNL     1      -4.972 -10.592  17.799  0.00  0.00    +0.121 C 
ATOM     12  C   UNL     1      -5.989 -12.750  18.113  0.00  0.00    +0.109 C 
ATOM     14  C   UNL     1      -4.363 -12.533  16.254  0.00  0.00    +0.265 C 
BRANCH  14  18
ATOM      8  N   UNL     1      -3.752 -11.414  14.232  0.00  0.00    -0.250 NA
ATOM     18  C   UNL     1      -3.427 -11.670  15.519  0.00  0.00    +0.126 A 
ATOM     23  C   UNL     1      -2.295 -11.174  16.147  0.00  0.00    +0.033 A 
ATOM     25  C   UNL     1      -1.444 -10.362  15.406  0.00  0.00    +0.004 A 
ATOM     26  C   UNL     1      -2.901 -10.621  13.544  0.00  0.00    +0.111 A 
ATOM     27  C   UNL     1      -1.745 -10.076  14.079  0.00  0.00    +0.020 A 
ENDBRANCH  14  18
ENDBRANCH  13   9
BRANCH  19   1
ATOM      1  S   UNL     1     -12.147  -7.579  14.902  0.00  0.00    -0.003 S 
ATOM      4  O   UNL     1     -11.873  -8.114  13.577  0.00  0.00    -0.169 OA
ATOM      5  O   UNL     1     -13.508  -7.575  15.416  0.00  0.00    -0.169 OA
BRANCH   1  22
ATOM     22  C   UNL     1     -11.549  -5.905  14.920  0.00  0.00    +0.168 C 
ATOM     24  C   UNL     1     -12.182  -5.078  13.824  0.00  0.00    +0.028 C 
ENDBRANCH   1  22
ENDBRANCH  19   1
TORSDOF 4
ENDMDL
MODEL 5
REMARK VINA RESULT:      -6.2      3.028      4.373
REMARK  Name = 51137032
REMARK  5 active torsions:
REMARK  status: ('A' for Active; 'I' for Inactive)
REMARK    1  A    between atoms: S_1  and  C_19
REMARK    2  A    between atoms: S_1  and  C_22
REMARK    3  A    between atoms: C_9  and  C_13
REMARK    4  A    between atoms: C_14  and  C_18
REMARK    5  A    between atoms: C_22  and  C_24
REMARK                            x       y       z     vdW  Elec       q    Type
REMARK                         _______ _______ _______ _____ _____    ______ ____
ROOT
ATOM      2  O   UNL     1      16.211   7.636  20.217  0.00  0.00    -0.439 OA
ATOM      7  N   UNL     1      16.612   5.875  18.847  0.00  0.00    -0.213 NA
ATOM     13  C   UNL     1      15.781   6.828  19.207  0.00  0.00    +0.201 A 
ATOM     15  C   UNL     1      17.687   6.060  19.682  0.00  0.00    +0.111 A 
ATOM     16  C   UNL     1      17.445   7.137  20.522  0.00  0.00    +0.155 A 
ATOM     17  C   UNL     1      18.901   5.368  19.799  0.00  0.00    +0.058 A 
ATOM     19  C   UNL     1      19.817   5.804  20.767  0.00  0.00    +0.090 A 
ATOM     20  C   UNL     1      18.327   7.598  21.492  0.00  0.00    +0.050 A 
ATOM     21  C   UNL     1      19.534   6.897  21.596  0.00  0.00    +0.030 A 
ENDROOT
BRANCH  13   9
ATOM      3  O   UNL     1      13.840  11.734  19.196  0.00  0.00    -0.268 OA
ATOM      6  N   UNL     1      13.962   9.483  18.640  0.00  0.00    -0.296 N 
ATOM      9  C   UNL     1      14.405   7.144  18.646  0.00  0.00    +0.094 C 
ATOM     10  C   UNL     1      13.403   7.483  19.760  0.00  0.00    +0.033 C 
ATOM     11  C   UNL     1      14.302   8.379  17.740  0.00  0.00    +0.121 C 
ATOM     12  C   UNL     1      13.555   8.986  19.946  0.00  0.00    +0.109 C 
ATOM     14  C   UNL     1      14.068  10.841  18.383  0.00  0.00    +0.265 C 
BRANCH  14  18
ATOM      8  N   UNL     1      13.642  10.961  16.033  0.00  0.00    -0.250 NA
ATOM     18  C   UNL     1      14.502  11.245  17.038  0.00  0.00    +0.126 A 
ATOM     23  C   UNL     1      15.723  11.876  16.858  0.00  0.00    +0.033 A 
ATOM     25  C   UNL     1      16.084  12.238  15.565  0.00  0.00    +0.004 A 
ATOM     26  C   UNL     1      14.027  11.327  14.791  0.00  0.00    +0.111 A 
ATOM     27  C   UNL     1      15.226  11.962  14.506  0.00  0.00    +0.020 A 
ENDBRANCH  14  18
ENDBRANCH  13   9
BRANCH  19   1
ATOM      1  S   UNL     1      21.341   4.965  20.943  0.00  0.00    -0.003 S 
ATOM      4  O   UNL     1      21.111   3.536  20.785  0.00  0.00    -0.169 OA
ATOM      5  O   UNL     1      22.320   5.639  20.104  0.00  0.00    -0.169 OA
BRANCH   1  22
ATOM     22  C   UNL     1      21.797   5.232  22.640  0.00  0.00    +0.168 C 
ATOM     24  C   UNL     1      22.529   4.040  23.213  0.00  0.00    +0.028 C 
ENDBRANCH   1  22
ENDBRANCH  19   1
TORSDOF 4
ENDMDL
MODEL 6
REMARK VINA RESULT:      -6.1     28.679     31.289
REMARK  Name = 51137032
REMARK  5 active torsions:
REMARK  status: ('A' for Active; 'I' for Inactive)
REMARK    1  A    between atoms: S_1  and  C_19
REMARK    2  A    between atoms: S_1  and  C_22
REMARK    3  A    between atoms: C_9  and  C_13
REMARK    4  A    between atoms: C_14  and  C_18
REMARK    5  A    between atoms: C_22  and  C_24
REMARK                            x       y       z     vdW  Elec       q    Type
REMARK                         _______ _______ _______ _____ _____    ______ ____
ROOT
ATOM      2  O   UNL     1     -14.224   6.316  34.598  0.00  0.00    -0.439 OA
ATOM      7  N   UNL     1     -14.177   6.751  32.373  0.00  0.00    -0.213 NA
ATOM     13  C   UNL     1     -14.133   7.235  33.596  0.00  0.00    +0.201 A 
ATOM     15  C   UNL     1     -14.307   5.398  32.573  0.00  0.00    +0.111 A 
ATOM     16  C   UNL     1     -14.336   5.128  33.934  0.00  0.00    +0.155 A 
ATOM     17  C   UNL     1     -14.407   4.332  31.669  0.00  0.00    +0.058 A 
ATOM     19  C   UNL     1     -14.532   3.036  32.189  0.00  0.00    +0.090 A 
ATOM     20  C   UNL     1     -14.459   3.859  34.487  0.00  0.00    +0.050 A 
ATOM     21  C   UNL     1     -14.558   2.806  33.570  0.00  0.00    +0.030 A 
ENDROOT
BRANCH  13   9
ATOM      3  O   UNL     1      -9.660   9.942  32.891  0.00  0.00    -0.268 OA
ATOM      6  N   UNL     1     -11.908   9.617  33.376  0.00  0.00    -0.296 N 
ATOM      9  C   UNL     1     -13.995   8.683  34.034  0.00  0.00    +0.094 C 
ATOM     10  C   UNL     1     -13.081   8.819  35.261  0.00  0.00    +0.033 C 
ATOM     11  C   UNL     1     -13.332   9.641  33.035  0.00  0.00    +0.121 C 
ATOM     12  C   UNL     1     -11.690   8.979  34.665  0.00  0.00    +0.109 C 
ATOM     14  C   UNL     1     -10.848  10.049  32.593  0.00  0.00    +0.265 C 
BRANCH  14  18
ATOM      8  N   UNL     1     -11.123  12.020  31.269  0.00  0.00    -0.250 NA
ATOM     18  C   UNL     1     -11.169  10.669  31.299  0.00  0.00    +0.126 A 
ATOM     23  C   UNL     1     -11.492   9.879  30.207  0.00  0.00    +0.033 A 
ATOM     25  C   UNL     1     -11.786  10.517  29.007  0.00  0.00    +0.004 A 
ATOM     26  C   UNL     1     -11.415  12.605  30.085  0.00  0.00    +0.111 A 
ATOM     27  C   UNL     1     -11.749  11.906  28.937  0.00  0.00    +0.020 A 
ENDBRANCH  14  18
ENDBRANCH  13   9
BRANCH  19   1
ATOM      1  S   UNL     1     -14.662   1.681  31.090  0.00  0.00    -0.003 S 
ATOM      4  O   UNL     1     -13.498   1.673  30.216  0.00  0.00    -0.169 OA
ATOM      5  O   UNL     1     -14.986   0.500  31.876  0.00  0.00    -0.169 OA
BRANCH   1  22
ATOM     22  C   UNL     1     -16.070   2.069  30.077  0.00  0.00    +0.168 C 
ATOM     24  C   UNL     1     -16.377   0.955  29.102  0.00  0.00    +0.028 C 
ENDBRANCH   1  22
ENDBRANCH  19   1
TORSDOF 4
ENDMDL
MODEL 7
REMARK VINA RESULT:      -6.1     28.203     31.207
REMARK  Name = 51137032
REMARK  5 active torsions:
REMARK  status: ('A' for Active; 'I' for Inactive)
REMARK    1  A    between atoms: S_1  and  C_19
REMARK    2  A    between atoms: S_1  and  C_22
REMARK    3  A    between atoms: C_9  and  C_13
REMARK    4  A    between atoms: C_14  and  C_18
REMARK    5  A    between atoms: C_22  and  C_24
REMARK                            x       y       z     vdW  Elec       q    Type
REMARK                         _______ _______ _______ _____ _____    ______ ____
ROOT
ATOM      2  O   UNL     1      -7.109  -9.456  17.513  0.00  0.00    -0.439 OA
ATOM      7  N   UNL     1      -7.651 -11.092  18.986  0.00  0.00    -0.213 NA
ATOM     13  C   UNL     1      -6.696 -10.452  18.347  0.00  0.00    +0.201 A 
ATOM     15  C   UNL     1      -8.796 -10.474  18.545  0.00  0.00    +0.111 A 
ATOM     16  C   UNL     1      -8.468  -9.472  17.644  0.00  0.00    +0.155 A 
ATOM     17  C   UNL     1     -10.146 -10.694  18.852  0.00  0.00    +0.058 A 
ATOM     19  C   UNL     1     -11.104  -9.882  18.228  0.00  0.00    +0.090 A 
ATOM     20  C   UNL     1      -9.388  -8.648  17.006  0.00  0.00    +0.050 A 
ATOM     21  C   UNL     1     -10.731  -8.881  17.323  0.00  0.00    +0.030 A 
ENDROOT
BRANCH  13   9
ATOM      3  O   UNL     1      -4.283 -14.039  15.324  0.00  0.00    -0.268 OA
ATOM      6  N   UNL     1      -4.454 -12.233  16.773  0.00  0.00    -0.296 N 
ATOM      9  C   UNL     1      -5.196 -10.679  18.416  0.00  0.00    +0.094 C 
ATOM     10  C   UNL     1      -4.857 -12.019  19.088  0.00  0.00    +0.033 C 
ATOM     11  C   UNL     1      -4.458 -10.801  17.076  0.00  0.00    +0.121 C 
ATOM     12  C   UNL     1      -4.846 -13.014  17.936  0.00  0.00    +0.109 C 
ATOM     14  C   UNL     1      -4.204 -12.833  15.549  0.00  0.00    +0.265 C 
BRANCH  14  18
ATOM      8  N   UNL     1      -2.511 -11.671  14.324  0.00  0.00    -0.250 NA
ATOM     18  C   UNL     1      -3.828 -11.959  14.428  0.00  0.00    +0.126 A 
ATOM     23  C   UNL     1      -4.797 -11.483  13.559  0.00  0.00    +0.033 A 
ATOM     25  C   UNL     1      -4.387 -10.661  12.515  0.00  0.00    +0.004 A 
ATOM     26  C   UNL     1      -2.150 -10.869  13.298  0.00  0.00    +0.111 A 
ATOM     27  C   UNL     1      -3.040 -10.343  12.376  0.00  0.00    +0.020 A 
ENDBRANCH  14  18
ENDBRANCH  13   9
BRANCH  19   1
ATOM      1  S   UNL     1     -12.799 -10.129  18.586  0.00  0.00    -0.003 S 
ATOM      4  O   UNL     1     -13.585  -9.181  17.810  0.00  0.00    -0.169 OA
ATOM      5  O   UNL     1     -13.073 -11.554  18.481  0.00  0.00    -0.169 OA
BRANCH   1  22
ATOM     22  C   UNL     1     -12.961  -9.663  20.293  0.00  0.00    +0.168 C 
ATOM     24  C   UNL     1     -14.405  -9.417  20.668  0.00  0.00    +0.028 C 
ENDBRANCH   1  22
ENDBRANCH  19   1
TORSDOF 4
ENDMDL
MODEL 8
REMARK VINA RESULT:      -6.1     27.931     30.140
REMARK  Name = 51137032
REMARK  5 active torsions:
REMARK  status: ('A' for Active; 'I' for Inactive)
REMARK    1  A    between atoms: S_1  and  C_19
REMARK    2  A    between atoms: S_1  and  C_22
REMARK    3  A    between atoms: C_9  and  C_13
REMARK    4  A    between atoms: C_14  and  C_18
REMARK    5  A    between atoms: C_22  and  C_24
REMARK                            x       y       z     vdW  Elec       q    Type
REMARK                         _______ _______ _______ _____ _____    ______ ____
ROOT
ATOM      2  O   UNL     1      -3.031 -11.057  15.552  0.00  0.00    -0.439 OA
ATOM      7  N   UNL     1      -4.924 -10.518  14.427  0.00  0.00    -0.213 NA
ATOM     13  C   UNL     1      -3.622 -10.701  14.377  0.00  0.00    +0.201 A 
ATOM     15  C   UNL     1      -5.229 -10.774  15.741  0.00  0.00    +0.111 A 
ATOM     16  C   UNL     1      -4.073 -11.105  16.433  0.00  0.00    +0.155 A 
ATOM     17  C   UNL     1      -6.449 -10.751  16.432  0.00  0.00    +0.058 A 
ATOM     19  C   UNL     1      -6.439 -11.067  17.798  0.00  0.00    +0.090 A 
ATOM     20  C   UNL     1      -4.023 -11.423  17.785  0.00  0.00    +0.050 A 
ATOM     21  C   UNL     1      -5.249 -11.396  18.460  0.00  0.00    +0.030 A 
ENDROOT
BRANCH  13   9
ATOM      3  O   UNL     1      -4.388 -13.436   9.932  0.00  0.00    -0.268 OA
ATOM      6  N   UNL     1      -3.470 -11.804  11.306  0.00  0.00    -0.296 N 
ATOM      9  C   UNL     1      -2.693 -10.564  13.183  0.00  0.00    +0.094 C 
ATOM     10  C   UNL     1      -1.823 -11.817  12.996  0.00  0.00    +0.033 C 
ATOM     11  C   UNL     1      -3.361 -10.433  11.807  0.00  0.00    +0.121 C 
ATOM     12  C   UNL     1      -2.666 -12.718  12.103  0.00  0.00    +0.109 C 
ATOM     14  C   UNL     1      -4.273 -12.260  10.272  0.00  0.00    +0.265 C 
BRANCH  14  18
ATOM      8  N   UNL     1      -4.479 -10.762   8.420  0.00  0.00    -0.250 NA
ATOM     18  C   UNL     1      -5.061 -11.263   9.533  0.00  0.00    +0.126 A 
ATOM     23  C   UNL     1      -6.316 -10.889   9.987  0.00  0.00    +0.033 A 
ATOM     25  C   UNL     1      -7.018  -9.942   9.250  0.00  0.00    +0.004 A 
ATOM     26  C   UNL     1      -5.191  -9.845   7.730  0.00  0.00    +0.111 A 
ATOM     27  C   UNL     1      -6.452  -9.405   8.099  0.00  0.00    +0.020 A 
ENDBRANCH  14  18
ENDBRANCH  13   9
BRANCH  19   1
ATOM      1  S   UNL     1      -7.942 -11.046  18.692  0.00  0.00    -0.003 S 
ATOM      4  O   UNL     1      -7.652 -10.766  20.091  0.00  0.00    -0.169 OA
ATOM      5  O   UNL     1      -8.881 -10.206  17.965  0.00  0.00    -0.169 OA
BRANCH   1  22
ATOM     22  C   UNL     1      -8.527 -12.722  18.609  0.00  0.00    +0.168 C 
ATOM     24  C   UNL     1      -8.623 -13.346  19.983  0.00  0.00    +0.028 C 
ENDBRANCH   1  22
ENDBRANCH  19   1
TORSDOF 4
ENDMDL
MODEL 9
REMARK VINA RESULT:      -5.9      4.428     10.293
REMARK  Name = 51137032
REMARK  5 active torsions:
REMARK  status: ('A' for Active; 'I' for Inactive)
REMARK    1  A    between atoms: S_1  and  C_19
REMARK    2  A    between atoms: S_1  and  C_22
REMARK    3  A    between atoms: C_9  and  C_13
REMARK    4  A    between atoms: C_14  and  C_18
REMARK    5  A    between atoms: C_22  and  C_24
REMARK                            x       y       z     vdW  Elec       q    Type
REMARK                         _______ _______ _______ _____ _____    ______ ____
ROOT
ATOM      2  O   UNL     1      20.175   8.646  22.484  0.00  0.00    -0.439 OA
ATOM      7  N   UNL     1      20.250   6.535  21.660  0.00  0.00    -0.213 NA
ATOM     13  C   UNL     1      20.864   7.479  22.340  0.00  0.00    +0.201 A 
ATOM     15  C   UNL     1      19.053   7.117  21.322  0.00  0.00    +0.111 A 
ATOM     16  C   UNL     1      19.003   8.409  21.825  0.00  0.00    +0.155 A 
ATOM     17  C   UNL     1      17.956   6.629  20.597  0.00  0.00    +0.058 A 
ATOM     19  C   UNL     1      16.856   7.480  20.415  0.00  0.00    +0.090 A 
ATOM     20  C   UNL     1      17.932   9.280  21.665  0.00  0.00    +0.050 A 
ATOM     21  C   UNL     1      16.846   8.778  20.939  0.00  0.00    +0.030 A 
ENDROOT
BRANCH  13   9
ATOM      3  O   UNL     1      22.558   3.258  25.014  0.00  0.00    -0.268 OA
ATOM      6  N   UNL     1      22.715   5.306  23.930  0.00  0.00    -0.296 N 
ATOM      9  C   UNL     1      22.239   7.437  22.984  0.00  0.00    +0.094 C 
ATOM     10  C   UNL     1      22.151   7.520  24.516  0.00  0.00    +0.033 C 
ATOM     11  C   UNL     1      23.052   6.150  22.782  0.00  0.00    +0.121 C 
ATOM     12  C   UNL     1      22.019   6.069  24.954  0.00  0.00    +0.109 C 
ATOM     14  C   UNL     1      22.924   3.941  24.060  0.00  0.00    +0.265 C 
BRANCH  14  18
ATOM      8  N   UNL     1      24.968   3.174  23.086  0.00  0.00    -0.250 NA
ATOM     18  C   UNL     1      23.624   3.254  22.965  0.00  0.00    +0.126 A 
ATOM     23  C   UNL     1      22.910   2.737  21.895  0.00  0.00    +0.033 A 
ATOM     25  C   UNL     1      23.621   2.096  20.887  0.00  0.00    +0.004 A 
ATOM     26  C   UNL     1      25.625   2.544  22.087  0.00  0.00    +0.111 A 
ATOM     27  C   UNL     1      25.005   1.994  20.977  0.00  0.00    +0.020 A 
ENDBRANCH  14  18
ENDBRANCH  13   9
BRANCH  19   1
ATOM      1  S   UNL     1      15.471   6.906  19.514  0.00  0.00    -0.003 S 
ATOM      4  O   UNL     1      15.935   6.043  18.438  0.00  0.00    -0.169 OA
ATOM      5  O   UNL     1      14.492   6.411  20.469  0.00  0.00    -0.169 OA
BRANCH   1  22
ATOM     22  C   UNL     1      14.805   8.369  18.754  0.00  0.00    +0.168 C 
ATOM     24  C   UNL     1      13.481   8.091  18.079  0.00  0.00    +0.028 C 
ENDBRANCH   1  22
ENDBRANCH  19   1
TORSDOF 4
ENDMDL
MODEL 10
REMARK VINA RESULT:      -5.9     14.791     17.468
REMARK  Name = 51137032
REMARK  5 active torsions:
REMARK  status: ('A' for Active; 'I' for Inactive)
REMARK    1  A    between atoms: S_1  and  C_19
REMARK    2  A    between atoms: S_1  and  C_22
REMARK    3  A    between atoms: C_9  and  C_13
REMARK    4  A    between atoms: C_14  and  C_18
REMARK    5  A    between atoms: C_22  and  C_24
REMARK                            x       y       z     vdW  Elec       q    Type
REMARK                         _______ _______ _______ _____ _____    ______ ____
ROOT
ATOM      2  O   UNL     1      14.857   7.489   5.070  0.00  0.00    -0.439 OA
ATOM      7  N   UNL     1      13.186   7.393   3.540  0.00  0.00    -0.213 NA
ATOM     13  C   UNL     1      14.460   7.623   3.773  0.00  0.00    +0.201 A 
ATOM     15  C   UNL     1      12.690   7.078   4.781  0.00  0.00    +0.111 A 
ATOM     16  C   UNL     1      13.709   7.135   5.720  0.00  0.00    +0.155 A 
ATOM     17  C   UNL     1      11.398   6.734   5.204  0.00  0.00    +0.058 A 
ATOM     19  C   UNL     1      11.201   6.461   6.565  0.00  0.00    +0.090 A 
ATOM     20  C   UNL     1      13.553   6.873   7.076  0.00  0.00    +0.050 A 
ATOM     21  C   UNL     1      12.258   6.530   7.481  0.00  0.00    +0.030 A 
ENDROOT
BRANCH  13   9
ATOM      3  O   UNL     1      17.848  11.539   4.786  0.00  0.00    -0.268 OA
ATOM      6  N   UNL     1      16.990   9.689   3.674  0.00  0.00    -0.296 N 
ATOM      9  C   UNL     1      15.545   8.020   2.786  0.00  0.00    +0.094 C 
ATOM     10  C   UNL     1      15.240   9.372   2.123  0.00  0.00    +0.033 C 
ATOM     11  C   UNL     1      16.946   8.259   3.366  0.00  0.00    +0.121 C 
ATOM     12  C   UNL     1      15.872  10.390   3.062  0.00  0.00    +0.109 C 
ATOM     14  C   UNL     1      17.893  10.345   4.497  0.00  0.00    +0.265 C 
BRANCH  14  18
ATOM      8  N   UNL     1      20.060   9.356   4.289  0.00  0.00    -0.250 NA
ATOM     18  C   UNL     1      18.981   9.548   5.081  0.00  0.00    +0.126 A 
ATOM     23  C   UNL     1      18.865   9.045   6.368  0.00  0.00    +0.033 A 
ATOM     25  C   UNL     1      19.924   8.298   6.872  0.00  0.00    +0.004 A 
ATOM     26  C   UNL     1      21.069   8.626   4.813  0.00  0.00    +0.111 A 
ATOM     27  C   UNL     1      21.050   8.080   6.087  0.00  0.00    +0.020 A 
ENDBRANCH  14  18
ENDBRANCH  13   9
BRANCH  19   1
ATOM      1  S   UNL     1       9.602   6.030   7.129  0.00  0.00    -0.003 S 
ATOM      4  O   UNL     1       9.135   7.058   8.047  0.00  0.00    -0.169 OA
ATOM      5  O   UNL     1       8.801   5.677   5.967  0.00  0.00    -0.169 OA
BRANCH   1  22
ATOM     22  C   UNL     1       9.857   4.555   8.088  0.00  0.00    +0.168 C 
ATOM     24  C   UNL     1       9.373   4.726   9.510  0.00  0.00    +0.028 C 
ENDBRANCH   1  22
ENDBRANCH  19   1
TORSDOF 4
ENDMDL
