MODEL 1
REMARK VINA RESULT:      -6.2      0.000      0.000
REMARK  Name = 75536925
REMARK  6 active torsions:
REMARK  status: ('A' for Active; 'I' for Inactive)
REMARK    1  A    between atoms: O_2  and  C_8
REMARK    2  A    between atoms: O_2  and  C_16
REMARK    3  A    between atoms: O_3  and  C_19
REMARK    4  A    between atoms: O_3  and  C_23
REMARK    5  A    between atoms: N_4  and  C_10
REMARK    6  A    between atoms: C_10  and  C_13
REMARK                            x       y       z     vdW  Elec       q    Type
REMARK                         _______ _______ _______ _____ _____    ______ ____
ROOT
ATOM      1  O   UNL     1      11.572   6.788  21.926  0.00  0.00    -0.375 OA
ATOM      4  N   UNL     1      13.614   8.218  20.487  0.00  0.00    -0.292 NA
ATOM      7  C   UNL     1      12.634   9.293  20.646  0.00  0.00    +0.131 C 
ATOM      8  C   UNL     1      11.962   9.222  22.024  0.00  0.00    +0.215 C 
ATOM      9  C   UNL     1      13.055   6.953  19.993  0.00  0.00    +0.113 C 
ATOM     11  C   UNL     1      10.999   8.054  22.224  0.00  0.00    +0.205 C 
ATOM     12  C   UNL     1      11.680   6.561  20.526  0.00  0.00    +0.175 C 
ENDROOT
BRANCH   8   2
ATOM      2  O   UNL     1      11.244  10.440  22.225  0.00  0.00    -0.468 OA
BRANCH   2  16
ATOM      5  N   UNL     1      10.596  11.455  24.214  0.00  0.00    -0.219 NA
ATOM      6  N   UNL     1      13.242  12.300  24.609  0.00  0.00    -0.256 NA
ATOM     16  C   UNL     1      11.576  11.167  23.335  0.00  0.00    +0.234 A 
ATOM     20  C   UNL     1      12.875  11.582  23.529  0.00  0.00    +0.177 A 
ATOM     21  C   UNL     1      10.962  12.173  25.294  0.00  0.00    +0.134 A 
ATOM     22  C   UNL     1      12.261  12.588  25.488  0.00  0.00    +0.130 A 
ENDBRANCH   2  16
ENDBRANCH   8   2
BRANCH   4  10
ATOM     10  C   UNL     1      14.733   8.634  19.641  0.00  0.00    +0.119 C 
BRANCH  10  13
ATOM     13  C   UNL     1      16.038   8.046  20.108  0.00  0.00    -0.033 A 
ATOM     14  C   UNL     1      16.479   6.828  19.590  0.00  0.00    +0.008 A 
ATOM     15  C   UNL     1      16.805   8.718  21.060  0.00  0.00    +0.008 A 
ATOM     17  C   UNL     1      17.688   6.283  20.024  0.00  0.00    +0.046 A 
ATOM     18  C   UNL     1      18.014   8.173  21.493  0.00  0.00    +0.046 A 
ATOM     19  C   UNL     1      18.455   6.956  20.974  0.00  0.00    +0.120 A 
BRANCH  19   3
ATOM      3  O   UNL     1      19.635   6.424  21.396  0.00  0.00    -0.495 OA
ATOM     23  C   UNL     1      19.990   6.635  22.762  0.00  0.00    +0.277 C 
ENDBRANCH  19   3
ENDBRANCH  10  13
ENDBRANCH   4  10
TORSDOF 5
ENDMDL
MODEL 2
REMARK VINA RESULT:      -6.0      3.170      5.562
REMARK  Name = 75536925
REMARK  6 active torsions:
REMARK  status: ('A' for Active; 'I' for Inactive)
REMARK    1  A    between atoms: O_2  and  C_8
REMARK    2  A    between atoms: O_2  and  C_16
REMARK    3  A    between atoms: O_3  and  C_19
REMARK    4  A    between atoms: O_3  and  C_23
REMARK    5  A    between atoms: N_4  and  C_10
REMARK    6  A    between atoms: C_10  and  C_13
REMARK                            x       y       z     vdW  Elec       q    Type
REMARK                         _______ _______ _______ _____ _____    ______ ____
ROOT
ATOM      1  O   UNL     1      13.539  11.142  21.152  0.00  0.00    -0.375 OA
ATOM      4  N   UNL     1      13.997   8.411  20.365  0.00  0.00    -0.292 NA
ATOM      7  C   UNL     1      13.293   8.889  19.175  0.00  0.00    +0.131 C 
ATOM      8  C   UNL     1      13.712  10.325  18.831  0.00  0.00    +0.215 C 
ATOM      9  C   UNL     1      13.348   8.756  21.636  0.00  0.00    +0.113 C 
ATOM     11  C   UNL     1      13.216  11.402  19.792  0.00  0.00    +0.205 C 
ATOM     12  C   UNL     1      12.707  10.138  21.722  0.00  0.00    +0.175 C 
ENDROOT
BRANCH   8   2
ATOM      2  O   UNL     1      13.220  10.624  17.524  0.00  0.00    -0.468 OA
BRANCH   2  16
ATOM      5  N   UNL     1      14.942  11.903  16.622  0.00  0.00    -0.219 NA
ATOM      6  N   UNL     1      15.197  10.036  14.544  0.00  0.00    -0.256 NA
ATOM     16  C   UNL     1      14.159  10.807  16.546  0.00  0.00    +0.234 A 
ATOM     20  C   UNL     1      14.285   9.891  15.525  0.00  0.00    +0.177 A 
ATOM     21  C   UNL     1      15.853  12.047  15.641  0.00  0.00    +0.134 A 
ATOM     22  C   UNL     1      15.979  11.131  14.620  0.00  0.00    +0.130 A 
ENDBRANCH   2  16
ENDBRANCH   8   2
BRANCH   4  10
ATOM     10  C   UNL     1      14.237   6.969  20.301  0.00  0.00    +0.119 C 
BRANCH  10  13
ATOM     13  C   UNL     1      15.707   6.648  20.264  0.00  0.00    -0.033 A 
ATOM     14  C   UNL     1      16.505   6.900  21.380  0.00  0.00    +0.008 A 
ATOM     15  C   UNL     1      16.272   6.097  19.113  0.00  0.00    +0.008 A 
ATOM     17  C   UNL     1      17.868   6.601  21.345  0.00  0.00    +0.046 A 
ATOM     18  C   UNL     1      17.634   5.799  19.078  0.00  0.00    +0.046 A 
ATOM     19  C   UNL     1      18.431   6.051  20.195  0.00  0.00    +0.120 A 
BRANCH  19   3
ATOM      3  O   UNL     1      19.760   5.760  20.162  0.00  0.00    -0.495 OA
ATOM     23  C   UNL     1      20.654   6.746  20.679  0.00  0.00    +0.277 C 
ENDBRANCH  19   3
ENDBRANCH  10  13
ENDBRANCH   4  10
TORSDOF 5
ENDMDL
MODEL 3
REMARK VINA RESULT:      -5.7     27.031     28.894
REMARK  Name = 75536925
REMARK  6 active torsions:
REMARK  status: ('A' for Active; 'I' for Inactive)
REMARK    1  A    between atoms: O_2  and  C_8
REMARK    2  A    between atoms: O_2  and  C_16
REMARK    3  A    between atoms: O_3  and  C_19
REMARK    4  A    between atoms: O_3  and  C_23
REMARK    5  A    between atoms: N_4  and  C_10
REMARK    6  A    between atoms: C_10  and  C_13
REMARK                            x       y       z     vdW  Elec       q    Type
REMARK                         _______ _______ _______ _____ _____    ______ ____
ROOT
ATOM      1  O   UNL     1      -2.983 -13.165  12.362  0.00  0.00    -0.375 OA
ATOM      4  N   UNL     1      -2.798 -11.317  14.562  0.00  0.00    -0.292 NA
ATOM      7  C   UNL     1      -2.527 -10.400  13.454  0.00  0.00    +0.131 C 
ATOM      8  C   UNL     1      -3.400 -10.737  12.238  0.00  0.00    +0.215 C 
ATOM      9  C   UNL     1      -2.022 -12.562  14.526  0.00  0.00    +0.113 C 
ATOM     11  C   UNL     1      -3.041 -12.029  11.509  0.00  0.00    +0.205 C 
ATOM     12  C   UNL     1      -1.799 -13.187  13.151  0.00  0.00    +0.175 C 
ENDROOT
BRANCH   8   2
ATOM      2  O   UNL     1      -3.301  -9.653  11.313  0.00  0.00    -0.468 OA
BRANCH   2  16
ATOM      5  N   UNL     1      -5.552  -9.098  11.127  0.00  0.00    -0.219 NA
ATOM      6  N   UNL     1      -5.343  -9.313   8.338  0.00  0.00    -0.256 NA
ATOM     16  C   UNL     1      -4.393  -9.425  10.521  0.00  0.00    +0.234 A 
ATOM     20  C   UNL     1      -4.291  -9.530   9.151  0.00  0.00    +0.177 A 
ATOM     21  C   UNL     1      -6.603  -8.881  10.314  0.00  0.00    +0.134 A 
ATOM     22  C   UNL     1      -6.501  -8.987   8.944  0.00  0.00    +0.130 A 
ENDBRANCH   2  16
ENDBRANCH   8   2
BRANCH   4  10
ATOM     10  C   UNL     1      -2.626 -10.658  15.857  0.00  0.00    +0.119 C 
BRANCH  10  13
ATOM     13  C   UNL     1      -3.887 -10.698  16.678  0.00  0.00    -0.033 A 
ATOM     14  C   UNL     1      -5.041 -10.062  16.217  0.00  0.00    +0.008 A 
ATOM     15  C   UNL     1      -3.903 -11.370  17.899  0.00  0.00    +0.008 A 
ATOM     17  C   UNL     1      -6.209 -10.099  16.978  0.00  0.00    +0.046 A 
ATOM     18  C   UNL     1      -5.071 -11.408  18.661  0.00  0.00    +0.046 A 
ATOM     19  C   UNL     1      -6.224 -10.772  18.200  0.00  0.00    +0.120 A 
BRANCH  19   3
ATOM      3  O   UNL     1      -7.364 -10.809  18.941  0.00  0.00    -0.495 OA
ATOM     23  C   UNL     1      -7.687 -12.046  19.576  0.00  0.00    +0.277 C 
ENDBRANCH  19   3
ENDBRANCH  10  13
ENDBRANCH   4  10
TORSDOF 5
ENDMDL
MODEL 4
REMARK VINA RESULT:      -5.6     16.894     19.578
REMARK  Name = 75536925
REMARK  6 active torsions:
REMARK  status: ('A' for Active; 'I' for Inactive)
REMARK    1  A    between atoms: O_2  and  C_8
REMARK    2  A    between atoms: O_2  and  C_16
REMARK    3  A    between atoms: O_3  and  C_19
REMARK    4  A    between atoms: O_3  and  C_23
REMARK    5  A    between atoms: N_4  and  C_10
REMARK    6  A    between atoms: C_10  and  C_13
REMARK                            x       y       z     vdW  Elec       q    Type
REMARK                         _______ _______ _______ _____ _____    ______ ____
ROOT
ATOM      1  O   UNL     1      11.158   9.654   2.436  0.00  0.00    -0.375 OA
ATOM      4  N   UNL     1       9.260   7.869   3.661  0.00  0.00    -0.292 NA
ATOM      7  C   UNL     1       9.498   7.146   2.411  0.00  0.00    +0.131 C 
ATOM      8  C   UNL     1      10.974   7.233   2.000  0.00  0.00    +0.215 C 
ATOM      9  C   UNL     1       8.984   9.301   3.493  0.00  0.00    +0.113 C 
ATOM     11  C   UNL     1      11.443   8.604   1.521  0.00  0.00    +0.205 C 
ATOM     12  C   UNL     1       9.785  10.028   2.416  0.00  0.00    +0.175 C 
ENDROOT
BRANCH   8   2
ATOM      2  O   UNL     1      11.195   6.287   0.953  0.00  0.00    -0.468 OA
BRANCH   2  16
ATOM      5  N   UNL     1      11.754   4.104   1.526  0.00  0.00    -0.219 NA
ATOM      6  N   UNL     1      14.468   4.762   1.259  0.00  0.00    -0.256 NA
ATOM     16  C   UNL     1      12.158   5.342   1.178  0.00  0.00    +0.234 A 
ATOM     20  C   UNL     1      13.491   5.665   1.047  0.00  0.00    +0.177 A 
ATOM     21  C   UNL     1      12.732   3.201   1.738  0.00  0.00    +0.134 A 
ATOM     22  C   UNL     1      14.064   3.524   1.607  0.00  0.00    +0.130 A 
ENDBRANCH   2  16
ENDBRANCH   8   2
BRANCH   4  10
ATOM     10  C   UNL     1       8.196   7.243   4.447  0.00  0.00    +0.119 C 
BRANCH  10  13
ATOM     13  C   UNL     1       8.711   6.699   5.752  0.00  0.00    -0.033 A 
ATOM     14  C   UNL     1       9.358   5.463   5.787  0.00  0.00    +0.008 A 
ATOM     15  C   UNL     1       8.540   7.429   6.928  0.00  0.00    +0.008 A 
ATOM     17  C   UNL     1       9.834   4.959   6.998  0.00  0.00    +0.046 A 
ATOM     18  C   UNL     1       9.017   6.925   8.139  0.00  0.00    +0.046 A 
ATOM     19  C   UNL     1       9.664   5.690   8.172  0.00  0.00    +0.120 A 
BRANCH  19   3
ATOM      3  O   UNL     1      10.130   5.198   9.353  0.00  0.00    -0.495 OA
ATOM     23  C   UNL     1       9.178   4.580  10.219  0.00  0.00    +0.277 C 
ENDBRANCH  19   3
ENDBRANCH  10  13
ENDBRANCH   4  10
TORSDOF 5
ENDMDL
MODEL 5
REMARK VINA RESULT:      -5.6     16.892     19.620
REMARK  Name = 75536925
REMARK  6 active torsions:
REMARK  status: ('A' for Active; 'I' for Inactive)
REMARK    1  A    between atoms: O_2  and  C_8
REMARK    2  A    between atoms: O_2  and  C_16
REMARK    3  A    between atoms: O_3  and  C_19
REMARK    4  A    between atoms: O_3  and  C_23
REMARK    5  A    between atoms: N_4  and  C_10
REMARK    6  A    between atoms: C_10  and  C_13
REMARK                            x       y       z     vdW  Elec       q    Type
REMARK                         _______ _______ _______ _____ _____    ______ ____
ROOT
ATOM      1  O   UNL     1      11.341   9.747   2.686  0.00  0.00    -0.375 OA
ATOM      4  N   UNL     1       9.320   8.036   3.815  0.00  0.00    -0.292 NA
ATOM      7  C   UNL     1       9.480   7.391   2.512  0.00  0.00    +0.131 C 
ATOM      8  C   UNL     1      10.953   7.388   2.079  0.00  0.00    +0.215 C 
ATOM      9  C   UNL     1       9.160   9.494   3.757  0.00  0.00    +0.113 C 
ATOM     11  C   UNL     1      11.526   8.749   1.691  0.00  0.00    +0.205 C 
ATOM     12  C   UNL     1      10.003  10.232   2.721  0.00  0.00    +0.175 C 
ENDROOT
BRANCH   8   2
ATOM      2  O   UNL     1      11.081   6.508   0.962  0.00  0.00    -0.468 OA
BRANCH   2  16
ATOM      5  N   UNL     1      13.096   5.422   0.552  0.00  0.00    -0.219 NA
ATOM      6  N   UNL     1      12.199   3.248   2.082  0.00  0.00    -0.256 NA
ATOM     16  C   UNL     1      11.881   5.413   1.136  0.00  0.00    +0.234 A 
ATOM     20  C   UNL     1      11.441   4.345   1.887  0.00  0.00    +0.177 A 
ATOM     21  C   UNL     1      13.854   4.326   0.747  0.00  0.00    +0.134 A 
ATOM     22  C   UNL     1      13.415   3.258   1.498  0.00  0.00    +0.130 A 
ENDBRANCH   2  16
ENDBRANCH   8   2
BRANCH   4  10
ATOM     10  C   UNL     1       8.219   7.442   4.574  0.00  0.00    +0.119 C 
BRANCH  10  13
ATOM     13  C   UNL     1       8.715   6.663   5.763  0.00  0.00    -0.033 A 
ATOM     14  C   UNL     1       8.601   7.199   7.046  0.00  0.00    +0.008 A 
ATOM     15  C   UNL     1       9.288   5.405   5.582  0.00  0.00    +0.008 A 
ATOM     17  C   UNL     1       9.061   6.477   8.148  0.00  0.00    +0.046 A 
ATOM     18  C   UNL     1       9.748   4.682   6.683  0.00  0.00    +0.046 A 
ATOM     19  C   UNL     1       9.633   5.218   7.966  0.00  0.00    +0.120 A 
BRANCH  19   3
ATOM      3  O   UNL     1      10.081   4.514   9.041  0.00  0.00    -0.495 OA
ATOM     23  C   UNL     1       9.310   4.599  10.239  0.00  0.00    +0.277 C 
ENDBRANCH  19   3
ENDBRANCH  10  13
ENDBRANCH   4  10
TORSDOF 5
ENDMDL
MODEL 6
REMARK VINA RESULT:      -5.4     30.334     31.657
REMARK  Name = 75536925
REMARK  6 active torsions:
REMARK  status: ('A' for Active; 'I' for Inactive)
REMARK    1  A    between atoms: O_2  and  C_8
REMARK    2  A    between atoms: O_2  and  C_16
REMARK    3  A    between atoms: O_3  and  C_19
REMARK    4  A    between atoms: O_3  and  C_23
REMARK    5  A    between atoms: N_4  and  C_10
REMARK    6  A    between atoms: C_10  and  C_13
REMARK                            x       y       z     vdW  Elec       q    Type
REMARK                         _______ _______ _______ _____ _____    ______ ____
ROOT
ATOM      1  O   UNL     1     -15.544  -4.360  11.755  0.00  0.00    -0.375 OA
ATOM      4  N   UNL     1     -12.957  -3.857  10.598  0.00  0.00    -0.292 NA
ATOM      7  C   UNL     1     -12.612  -3.743  12.015  0.00  0.00    +0.131 C 
ATOM      8  C   UNL     1     -13.374  -4.782  12.850  0.00  0.00    +0.215 C 
ATOM      9  C   UNL     1     -14.148  -3.099  10.198  0.00  0.00    +0.113 C 
ATOM     11  C   UNL     1     -14.873  -4.535  12.997  0.00  0.00    +0.205 C 
ATOM     12  C   UNL     1     -15.307  -3.076  11.191  0.00  0.00    +0.175 C 
ENDROOT
BRANCH   8   2
ATOM      2  O   UNL     1     -12.790  -4.812  14.153  0.00  0.00    -0.468 OA
BRANCH   2  16
ATOM      5  N   UNL     1     -11.207  -5.845  15.508  0.00  0.00    -0.219 NA
ATOM      6  N   UNL     1     -11.525  -8.206  14.027  0.00  0.00    -0.256 NA
ATOM     16  C   UNL     1     -12.065  -5.927  14.471  0.00  0.00    +0.234 A 
ATOM     20  C   UNL     1     -12.221  -7.087  13.744  0.00  0.00    +0.177 A 
ATOM     21  C   UNL     1     -10.512  -6.963  15.790  0.00  0.00    +0.134 A 
ATOM     22  C   UNL     1     -10.667  -8.123  15.063  0.00  0.00    +0.130 A 
ENDBRANCH   2  16
ENDBRANCH   8   2
BRANCH   4  10
ATOM     10  C   UNL     1     -11.825  -3.500   9.742  0.00  0.00    +0.119 C 
BRANCH  10  13
ATOM     13  C   UNL     1     -11.000  -4.703   9.373  0.00  0.00    -0.033 A 
ATOM     14  C   UNL     1      -9.775  -4.537   8.724  0.00  0.00    +0.008 A 
ATOM     15  C   UNL     1     -11.459  -5.984   9.679  0.00  0.00    +0.008 A 
ATOM     17  C   UNL     1      -9.011  -5.653   8.382  0.00  0.00    +0.046 A 
ATOM     18  C   UNL     1     -10.694  -7.100   9.337  0.00  0.00    +0.046 A 
ATOM     19  C   UNL     1      -9.470  -6.933   8.689  0.00  0.00    +0.120 A 
BRANCH  19   3
ATOM      3  O   UNL     1      -8.723  -8.021   8.356  0.00  0.00    -0.495 OA
ATOM     23  C   UNL     1      -7.699  -8.410   9.271  0.00  0.00    +0.277 C 
ENDBRANCH  19   3
ENDBRANCH  10  13
ENDBRANCH   4  10
TORSDOF 5
ENDMDL
MODEL 7
REMARK VINA RESULT:      -5.4     26.574     28.804
REMARK  Name = 75536925
REMARK  6 active torsions:
REMARK  status: ('A' for Active; 'I' for Inactive)
REMARK    1  A    between atoms: O_2  and  C_8
REMARK    2  A    between atoms: O_2  and  C_16
REMARK    3  A    between atoms: O_3  and  C_19
REMARK    4  A    between atoms: O_3  and  C_23
REMARK    5  A    between atoms: N_4  and  C_10
REMARK    6  A    between atoms: C_10  and  C_13
REMARK                            x       y       z     vdW  Elec       q    Type
REMARK                         _______ _______ _______ _____ _____    ______ ____
ROOT
ATOM      1  O   UNL     1      -2.319 -10.273  16.331  0.00  0.00    -0.375 OA
ATOM      4  N   UNL     1      -3.254 -11.380  13.844  0.00  0.00    -0.292 NA
ATOM      7  C   UNL     1      -3.872 -12.325  14.775  0.00  0.00    +0.131 C 
ATOM      8  C   UNL     1      -4.375 -11.604  16.034  0.00  0.00    +0.215 C 
ATOM      9  C   UNL     1      -1.830 -11.122  14.094  0.00  0.00    +0.113 C 
ATOM     11  C   UNL     1      -3.288 -11.091  16.975  0.00  0.00    +0.205 C 
ATOM     12  C   UNL     1      -1.400 -11.033  15.556  0.00  0.00    +0.175 C 
ENDROOT
BRANCH   8   2
ATOM      2  O   UNL     1      -5.207 -12.511  16.756  0.00  0.00    -0.468 OA
BRANCH   2  16
ATOM      5  N   UNL     1      -6.973 -11.036  17.093  0.00  0.00    -0.219 NA
ATOM      6  N   UNL     1      -7.062 -11.807  19.789  0.00  0.00    -0.256 NA
ATOM     16  C   UNL     1      -6.127 -11.954  17.601  0.00  0.00    +0.234 A 
ATOM     20  C   UNL     1      -6.172 -12.332  18.925  0.00  0.00    +0.177 A 
ATOM     21  C   UNL     1      -7.864 -10.510  17.957  0.00  0.00    +0.134 A 
ATOM     22  C   UNL     1      -7.908 -10.889  19.280  0.00  0.00    +0.130 A 
ENDBRANCH   2  16
ENDBRANCH   8   2
BRANCH   4  10
ATOM     10  C   UNL     1      -3.450 -11.793  12.454  0.00  0.00    +0.119 C 
BRANCH  10  13
ATOM     13  C   UNL     1      -4.085 -10.704  11.631  0.00  0.00    -0.033 A 
ATOM     14  C   UNL     1      -5.214 -10.037  12.108  0.00  0.00    +0.008 A 
ATOM     15  C   UNL     1      -3.544 -10.361  10.392  0.00  0.00    +0.008 A 
ATOM     17  C   UNL     1      -5.802  -9.028  11.344  0.00  0.00    +0.046 A 
ATOM     18  C   UNL     1      -4.132  -9.352   9.629  0.00  0.00    +0.046 A 
ATOM     19  C   UNL     1      -5.260  -8.686  10.106  0.00  0.00    +0.120 A 
BRANCH  19   3
ATOM      3  O   UNL     1      -5.834  -7.701   9.362  0.00  0.00    -0.495 OA
ATOM     23  C   UNL     1      -7.129  -7.965   8.823  0.00  0.00    +0.277 C 
ENDBRANCH  19   3
ENDBRANCH  10  13
ENDBRANCH   4  10
TORSDOF 5
ENDMDL
MODEL 8
REMARK VINA RESULT:      -5.2     15.416     17.858
REMARK  Name = 75536925
REMARK  6 active torsions:
REMARK  status: ('A' for Active; 'I' for Inactive)
REMARK    1  A    between atoms: O_2  and  C_8
REMARK    2  A    between atoms: O_2  and  C_16
REMARK    3  A    between atoms: O_3  and  C_19
REMARK    4  A    between atoms: O_3  and  C_23
REMARK    5  A    between atoms: N_4  and  C_10
REMARK    6  A    between atoms: C_10  and  C_13
REMARK                            x       y       z     vdW  Elec       q    Type
REMARK                         _______ _______ _______ _____ _____    ______ ____
ROOT
ATOM      1  O   UNL     1       9.819  11.005   3.141  0.00  0.00    -0.375 OA
ATOM      4  N   UNL     1       8.902   8.439   4.069  0.00  0.00    -0.292 NA
ATOM      7  C   UNL     1      10.156   8.031   3.435  0.00  0.00    +0.131 C 
ATOM      8  C   UNL     1      11.257   9.073   3.678  0.00  0.00    +0.215 C 
ATOM      9  C   UNL     1       8.060   9.314   3.244  0.00  0.00    +0.113 C 
ATOM     11  C   UNL     1      11.086  10.394   2.931  0.00  0.00    +0.205 C 
ATOM     12  C   UNL     1       8.784  10.364   2.405  0.00  0.00    +0.175 C 
ENDROOT
BRANCH   8   2
ATOM      2  O   UNL     1      12.503   8.494   3.292  0.00  0.00    -0.468 OA
BRANCH   2  16
ATOM      5  N   UNL     1      13.049   8.597   5.550  0.00  0.00    -0.219 NA
ATOM      6  N   UNL     1      15.507   7.370   4.980  0.00  0.00    -0.256 NA
ATOM     16  C   UNL     1      13.395   8.239   4.297  0.00  0.00    +0.234 A 
ATOM     20  C   UNL     1      14.602   7.637   4.018  0.00  0.00    +0.177 A 
ATOM     21  C   UNL     1      13.954   8.330   6.512  0.00  0.00    +0.134 A 
ATOM     22  C   UNL     1      15.161   7.728   6.233  0.00  0.00    +0.130 A 
ENDBRANCH   2  16
ENDBRANCH   8   2
BRANCH   4  10
ATOM     10  C   UNL     1       8.129   7.281   4.519  0.00  0.00    +0.119 C 
BRANCH  10  13
ATOM     13  C   UNL     1       8.661   6.722   5.812  0.00  0.00    -0.033 A 
ATOM     14  C   UNL     1       9.303   5.483   5.825  0.00  0.00    +0.008 A 
ATOM     15  C   UNL     1       8.511   7.443   6.997  0.00  0.00    +0.008 A 
ATOM     17  C   UNL     1       9.795   4.966   7.023  0.00  0.00    +0.046 A 
ATOM     18  C   UNL     1       9.004   6.925   8.195  0.00  0.00    +0.046 A 
ATOM     19  C   UNL     1       9.646   5.687   8.208  0.00  0.00    +0.120 A 
BRANCH  19   3
ATOM      3  O   UNL     1      10.127   5.181   9.376  0.00  0.00    -0.495 OA
ATOM     23  C   UNL     1       9.184   4.569  10.256  0.00  0.00    +0.277 C 
ENDBRANCH  19   3
ENDBRANCH  10  13
ENDBRANCH   4  10
TORSDOF 5
ENDMDL
MODEL 9
REMARK VINA RESULT:      -5.1     15.645     18.527
REMARK  Name = 75536925
REMARK  6 active torsions:
REMARK  status: ('A' for Active; 'I' for Inactive)
REMARK    1  A    between atoms: O_2  and  C_8
REMARK    2  A    between atoms: O_2  and  C_16
REMARK    3  A    between atoms: O_3  and  C_19
REMARK    4  A    between atoms: O_3  and  C_23
REMARK    5  A    between atoms: N_4  and  C_10
REMARK    6  A    between atoms: C_10  and  C_13
REMARK                            x       y       z     vdW  Elec       q    Type
REMARK                         _______ _______ _______ _____ _____    ______ ____
ROOT
ATOM      1  O   UNL     1      15.176   8.741   4.511  0.00  0.00    -0.375 OA
ATOM      4  N   UNL     1      12.494   8.896   5.545  0.00  0.00    -0.292 NA
ATOM      7  C   UNL     1      12.195   8.588   4.146  0.00  0.00    +0.131 C 
ATOM      8  C   UNL     1      13.208   7.584   3.577  0.00  0.00    +0.215 C 
ATOM      9  C   UNL     1      13.465   9.980   5.736  0.00  0.00    +0.113 C 
ATOM     11  C   UNL     1      14.617   8.128   3.357  0.00  0.00    +0.205 C 
ATOM     12  C   UNL     1      14.631  10.033   4.753  0.00  0.00    +0.175 C 
ENDROOT
BRANCH   8   2
ATOM      2  O   UNL     1      12.704   7.113   2.327  0.00  0.00    -0.468 OA
BRANCH   2  16
ATOM      5  N   UNL     1      13.899   5.304   1.486  0.00  0.00    -0.219 NA
ATOM      6  N   UNL     1      11.824   3.598   2.294  0.00  0.00    -0.256 NA
ATOM     16  C   UNL     1      12.793   5.767   2.102  0.00  0.00    +0.234 A 
ATOM     20  C   UNL     1      11.774   4.928   2.498  0.00  0.00    +0.177 A 
ATOM     21  C   UNL     1      13.950   3.973   1.282  0.00  0.00    +0.134 A 
ATOM     22  C   UNL     1      12.931   3.135   1.679  0.00  0.00    +0.130 A 
ENDBRANCH   2  16
ENDBRANCH   8   2
BRANCH   4  10
ATOM     10  C   UNL     1      11.275   9.176   6.303  0.00  0.00    +0.119 C 
BRANCH  10  13
ATOM     13  C   UNL     1      10.749   7.946   6.994  0.00  0.00    -0.033 A 
ATOM     14  C   UNL     1      11.578   6.837   7.171  0.00  0.00    +0.008 A 
ATOM     15  C   UNL     1       9.434   7.915   7.458  0.00  0.00    +0.008 A 
ATOM     17  C   UNL     1      11.091   5.698   7.811  0.00  0.00    +0.046 A 
ATOM     18  C   UNL     1       8.947   6.775   8.098  0.00  0.00    +0.046 A 
ATOM     19  C   UNL     1       9.776   5.667   8.275  0.00  0.00    +0.120 A 
BRANCH  19   3
ATOM      3  O   UNL     1       9.302   4.555   8.900  0.00  0.00    -0.495 OA
ATOM     23  C   UNL     1       8.912   4.696  10.267  0.00  0.00    +0.277 C 
ENDBRANCH  19   3
ENDBRANCH  10  13
ENDBRANCH   4  10
TORSDOF 5
ENDMDL
MODEL 10
REMARK VINA RESULT:      -5.1     14.462     16.426
REMARK  Name = 75536925
REMARK  6 active torsions:
REMARK  status: ('A' for Active; 'I' for Inactive)
REMARK    1  A    between atoms: O_2  and  C_8
REMARK    2  A    between atoms: O_2  and  C_16
REMARK    3  A    between atoms: O_3  and  C_19
REMARK    4  A    between atoms: O_3  and  C_23
REMARK    5  A    between atoms: N_4  and  C_10
REMARK    6  A    between atoms: C_10  and  C_13
REMARK                            x       y       z     vdW  Elec       q    Type
REMARK                         _______ _______ _______ _____ _____    ______ ____
ROOT
ATOM      1  O   UNL     1       7.070  11.538   5.042  0.00  0.00    -0.375 OA
ATOM      4  N   UNL     1       8.039   8.838   4.800  0.00  0.00    -0.292 NA
ATOM      7  C   UNL     1       9.316   9.551   4.834  0.00  0.00    +0.131 C 
ATOM      8  C   UNL     1       9.264  10.724   5.822  0.00  0.00    +0.215 C 
ATOM      9  C   UNL     1       7.055   9.398   3.865  0.00  0.00    +0.113 C 
ATOM     11  C   UNL     1       8.398  11.906   5.392  0.00  0.00    +0.205 C 
ATOM     12  C   UNL     1       7.001  10.920   3.762  0.00  0.00    +0.175 C 
ENDROOT
BRANCH   8   2
ATOM      2  O   UNL     1      10.598  11.191   6.022  0.00  0.00    -0.468 OA
BRANCH   2  16
ATOM      5  N   UNL     1      11.479  12.791   7.462  0.00  0.00    -0.219 NA
ATOM      6  N   UNL     1      11.005  11.064   9.621  0.00  0.00    -0.256 NA
ATOM     16  C   UNL     1      10.927  11.572   7.294  0.00  0.00    +0.234 A 
ATOM     20  C   UNL     1      10.695  10.725   8.355  0.00  0.00    +0.177 A 
ATOM     21  C   UNL     1      11.789  13.130   8.728  0.00  0.00    +0.134 A 
ATOM     22  C   UNL     1      11.556  12.283   9.789  0.00  0.00    +0.130 A 
ENDBRANCH   2  16
ENDBRANCH   8   2
BRANCH   4  10
ATOM     10  C   UNL     1       8.228   7.413   4.533  0.00  0.00    +0.119 C 
BRANCH  10  13
ATOM     13  C   UNL     1       8.727   6.677   5.747  0.00  0.00    -0.033 A 
ATOM     14  C   UNL     1       8.480   7.186   7.023  0.00  0.00    +0.008 A 
ATOM     15  C   UNL     1       9.437   5.485   5.598  0.00  0.00    +0.008 A 
ATOM     17  C   UNL     1       8.943   6.503   8.148  0.00  0.00    +0.046 A 
ATOM     18  C   UNL     1       9.900   4.803   6.723  0.00  0.00    +0.046 A 
ATOM     19  C   UNL     1       9.652   5.312   7.998  0.00  0.00    +0.120 A 
BRANCH  19   3
ATOM      3  O   UNL     1      10.102   4.647   9.096  0.00  0.00    -0.495 OA
ATOM     23  C   UNL     1       9.233   4.598  10.228  0.00  0.00    +0.277 C 
ENDBRANCH  19   3
ENDBRANCH  10  13
ENDBRANCH   4  10
TORSDOF 5
ENDMDL
