MODEL 1
REMARK VINA RESULT:      -7.2      0.000      0.000
REMARK  Name = 11882862
REMARK  10 active torsions:
REMARK  status: ('A' for Active; 'I' for Inactive)
REMARK    1  A    between atoms: O_3  and  C_15
REMARK    2  A    between atoms: O_4  and  C_20
REMARK    3  A    between atoms: N_8  and  C_26
REMARK    4  A    between atoms: C_10  and  C_18
REMARK    5  A    between atoms: C_12  and  C_20
REMARK    6  A    between atoms: C_12  and  C_21
REMARK    7  A    between atoms: C_13  and  C_23
REMARK    8  A    between atoms: C_23  and  C_24
REMARK    9  A    between atoms: C_26  and  C_28
REMARK   10  A    between atoms: C_27  and  C_29
REMARK                            x       y       z     vdW  Elec       q    Type
REMARK                         _______ _______ _______ _____ _____    ______ ____
ROOT
ATOM      1  S   UNL     1      15.484   8.181   6.140  0.00  0.00    -0.057 S 
ATOM      6  O   UNL     1      12.764   6.736   2.650  0.00  0.00    -0.270 OA
ATOM      7  N   UNL     1      15.416   7.620   3.615  0.00  0.00    -0.229 NA
ATOM      9  N   UNL     1      13.358   7.362   4.843  0.00  0.00    -0.261 N 
ATOM     10  C   UNL     1      19.040   8.912   3.363  0.00  0.00    -0.019 C 
ATOM     11  C   UNL     1      19.386   8.469   4.853  0.00  0.00    +0.011 C 
ATOM     12  C   UNL     1      20.807   8.869   5.407  0.00  0.00    +0.021 C 
ATOM     13  C   UNL     1      17.787   8.051   2.870  0.00  0.00    +0.054 C 
ATOM     14  C   UNL     1      20.245   8.594   2.438  0.00  0.00    +0.010 C 
ATOM     15  C   UNL     1      21.887   8.527   4.342  0.00  0.00    +0.123 C 
ATOM     16  C   UNL     1      18.217   8.796   5.828  0.00  0.00    +0.049 C 
ATOM     17  C   UNL     1      21.578   9.105   2.966  0.00  0.00    +0.032 C 
ATOM     18  C   UNL     1      18.708  10.420   3.244  0.00  0.00    +0.012 C 
ATOM     19  C   UNL     1      16.704   8.024   3.917  0.00  0.00    +0.058 A 
ATOM     21  C   UNL     1      21.116   8.018   6.671  0.00  0.00    +0.016 C 
ATOM     22  C   UNL     1      16.922   8.344   5.242  0.00  0.00    +0.015 A 
ATOM     25  C   UNL     1      14.686   7.670   4.708  0.00  0.00    +0.165 A 
ATOM     27  C   UNL     1      12.490   6.921   3.831  0.00  0.00    +0.250 C 
ATOM     43  H   UNL     1      13.019   7.437   5.798  0.00  0.00    +0.157 HD
ENDROOT
BRANCH  27  29
ATOM      2  F   UNL     1       7.238   5.814   5.482  0.00  0.00    -0.205 F 
ATOM     29  C   UNL     1      11.100   6.628   4.267  0.00  0.00    +0.037 A 
ATOM     32  C   UNL     1      10.815   5.440   4.941  0.00  0.00    +0.016 A 
ATOM     33  C   UNL     1      10.078   7.541   4.004  0.00  0.00    +0.016 A 
ATOM     37  C   UNL     1       9.511   5.165   5.351  0.00  0.00    +0.039 A 
ATOM     38  C   UNL     1       8.774   7.267   4.414  0.00  0.00    +0.039 A 
ATOM     39  C   UNL     1       8.490   6.078   5.088  0.00  0.00    +0.123 A 
ENDBRANCH  27  29
BRANCH  15   3
ATOM      3  O   UNL     1      23.170   8.994   4.760  0.00  0.00    -0.391 OA
ATOM     40  H   UNL     1      23.695   9.166   3.960  0.00  0.00    +0.210 HD
ENDBRANCH  15   3
BRANCH  12  20
ATOM     20  C   UNL     1      20.927  10.342   5.860  0.00  0.00    +0.165 C 
BRANCH  20   4
ATOM      4  O   UNL     1      21.845  10.391   6.929  0.00  0.00    -0.394 OA
ATOM     41  H   UNL     1      22.229   9.503   7.022  0.00  0.00    +0.209 HD
ENDBRANCH  20   4
ENDBRANCH  12  20
BRANCH  13  23
ATOM     23  C   UNL     1      17.233   8.459   1.498  0.00  0.00    +0.106 C 
BRANCH  23  24
ATOM      5  O   UNL     1      18.249   7.338  -0.390  0.00  0.00    -0.276 OA
ATOM      8  N   UNL     1      16.406   6.382   0.655  0.00  0.00    -0.311 N 
ATOM     24  C   UNL     1      17.379   7.355   0.477  0.00  0.00    +0.214 C 
ATOM     42  H   UNL     1      15.717   6.500   1.392  0.00  0.00    +0.149 HD
BRANCH   8  26
ATOM     26  C   UNL     1      16.301   5.208  -0.181  0.00  0.00    +0.139 C 
BRANCH  26  28
ATOM     28  C   UNL     1      15.037   4.442   0.083  0.00  0.00    -0.030 A 
ATOM     30  C   UNL     1      14.720   4.046   1.382  0.00  0.00    +0.005 A 
ATOM     31  C   UNL     1      14.180   4.126  -0.971  0.00  0.00    +0.005 A 
ATOM     34  C   UNL     1      13.545   3.334   1.627  0.00  0.00    +0.000 A 
ATOM     35  C   UNL     1      13.006   3.414  -0.727  0.00  0.00    +0.000 A 
ATOM     36  C   UNL     1      12.689   3.018   0.572  0.00  0.00    +0.000 A 
ENDBRANCH  26  28
ENDBRANCH   8  26
ENDBRANCH  23  24
ENDBRANCH  13  23
TORSDOF 8
ENDMDL
MODEL 2
REMARK VINA RESULT:      -7.0     26.858     30.070
REMARK  Name = 11882862
REMARK  10 active torsions:
REMARK  status: ('A' for Active; 'I' for Inactive)
REMARK    1  A    between atoms: O_3  and  C_15
REMARK    2  A    between atoms: O_4  and  C_20
REMARK    3  A    between atoms: N_8  and  C_26
REMARK    4  A    between atoms: C_10  and  C_18
REMARK    5  A    between atoms: C_12  and  C_20
REMARK    6  A    between atoms: C_12  and  C_21
REMARK    7  A    between atoms: C_13  and  C_23
REMARK    8  A    between atoms: C_23  and  C_24
REMARK    9  A    between atoms: C_26  and  C_28
REMARK   10  A    between atoms: C_27  and  C_29
REMARK                            x       y       z     vdW  Elec       q    Type
REMARK                         _______ _______ _______ _____ _____    ______ ____
ROOT
ATOM      1  S   UNL     1      -8.996  -9.526  12.467  0.00  0.00    -0.057 S 
ATOM      6  O   UNL     1      -4.775 -10.283  14.277  0.00  0.00    -0.270 OA
ATOM      7  N   UNL     1      -6.482  -9.789  11.913  0.00  0.00    -0.229 NA
ATOM      9  N   UNL     1      -7.112  -9.977  14.232  0.00  0.00    -0.261 N 
ATOM     10  C   UNL     1      -7.422  -9.643   8.177  0.00  0.00    -0.019 C 
ATOM     11  C   UNL     1      -8.671  -8.691   8.447  0.00  0.00    +0.011 C 
ATOM     12  C   UNL     1      -9.591  -8.351   7.212  0.00  0.00    +0.021 C 
ATOM     13  C   UNL     1      -6.415  -9.496   9.408  0.00  0.00    +0.054 C 
ATOM     14  C   UNL     1      -6.690  -9.179   6.890  0.00  0.00    +0.010 C 
ATOM     15  C   UNL     1      -8.699  -7.953   6.002  0.00  0.00    +0.123 C 
ATOM     16  C   UNL     1      -9.459  -9.134   9.714  0.00  0.00    +0.049 C 
ATOM     17  C   UNL     1      -7.612  -8.976   5.696  0.00  0.00    +0.032 C 
ATOM     18  C   UNL     1      -7.823 -11.129   8.012  0.00  0.00    +0.012 C 
ATOM     19  C   UNL     1      -7.151  -9.575  10.722  0.00  0.00    +0.058 A 
ATOM     21  C   UNL     1     -10.473  -7.118   7.562  0.00  0.00    +0.016 C 
ATOM     22  C   UNL     1      -8.513  -9.392  10.839  0.00  0.00    +0.015 A 
ATOM     25  C   UNL     1      -7.355  -9.790  12.898  0.00  0.00    +0.165 A 
ATOM     27  C   UNL     1      -5.864 -10.208  14.835  0.00  0.00    +0.250 C 
ATOM     43  H   UNL     1      -7.941  -9.893  14.812  0.00  0.00    +0.157 HD
ENDROOT
BRANCH  27  29
ATOM      2  F   UNL     1      -5.956 -10.724  20.427  0.00  0.00    -0.205 F 
ATOM     29  C   UNL     1      -5.888 -10.344  16.315  0.00  0.00    +0.037 A 
ATOM     32  C   UNL     1      -7.039 -10.007  17.029  0.00  0.00    +0.016 A 
ATOM     33  C   UNL     1      -4.760 -10.808  16.992  0.00  0.00    +0.016 A 
ATOM     37  C   UNL     1      -7.062 -10.135  18.417  0.00  0.00    +0.039 A 
ATOM     38  C   UNL     1      -4.782 -10.937  18.381  0.00  0.00    +0.039 A 
ATOM     39  C   UNL     1      -5.933 -10.600  19.093  0.00  0.00    +0.123 A 
ENDBRANCH  27  29
BRANCH  15   3
ATOM      3  O   UNL     1      -9.495  -7.763   4.832  0.00  0.00    -0.391 OA
ATOM     40  H   UNL     1      -9.278  -8.477   4.209  0.00  0.00    +0.210 HD
ENDBRANCH  15   3
BRANCH  12  20
ATOM     20  C   UNL     1     -10.581  -9.471   6.823  0.00  0.00    +0.165 C 
BRANCH  20   4
ATOM      4  O   UNL     1     -11.760  -8.860   6.350  0.00  0.00    -0.394 OA
ATOM     41  H   UNL     1     -12.510  -9.381   6.682  0.00  0.00    +0.209 HD
ENDBRANCH  20   4
ENDBRANCH  12  20
BRANCH  13  23
ATOM     23  C   UNL     1      -5.221 -10.461   9.375  0.00  0.00    +0.106 C 
BRANCH  23  24
ATOM      5  O   UNL     1      -3.507  -8.761   9.213  0.00  0.00    -0.276 OA
ATOM      8  N   UNL     1      -3.300 -10.451  10.795  0.00  0.00    -0.311 N 
ATOM     24  C   UNL     1      -3.930  -9.777   9.759  0.00  0.00    +0.214 C 
ATOM     42  H   UNL     1      -3.724 -11.297  11.165  0.00  0.00    +0.149 HD
BRANCH   8  26
ATOM     26  C   UNL     1      -2.043 -10.025  11.366  0.00  0.00    +0.139 C 
BRANCH  26  28
ATOM     28  C   UNL     1      -1.847 -10.561  12.755  0.00  0.00    -0.030 A 
ATOM     30  C   UNL     1      -1.460  -9.704  13.785  0.00  0.00    +0.005 A 
ATOM     31  C   UNL     1      -2.051 -11.916  13.014  0.00  0.00    +0.005 A 
ATOM     34  C   UNL     1      -1.277 -10.203  15.075  0.00  0.00    +0.000 A 
ATOM     35  C   UNL     1      -1.868 -12.415  14.304  0.00  0.00    +0.000 A 
ATOM     36  C   UNL     1      -1.481 -11.558  15.334  0.00  0.00    +0.000 A 
ENDBRANCH  26  28
ENDBRANCH   8  26
ENDBRANCH  23  24
ENDBRANCH  13  23
TORSDOF 8
ENDMDL
MODEL 3
REMARK VINA RESULT:      -7.0     31.606     35.896
REMARK  Name = 11882862
REMARK  10 active torsions:
REMARK  status: ('A' for Active; 'I' for Inactive)
REMARK    1  A    between atoms: O_3  and  C_15
REMARK    2  A    between atoms: O_4  and  C_20
REMARK    3  A    between atoms: N_8  and  C_26
REMARK    4  A    between atoms: C_10  and  C_18
REMARK    5  A    between atoms: C_12  and  C_20
REMARK    6  A    between atoms: C_12  and  C_21
REMARK    7  A    between atoms: C_13  and  C_23
REMARK    8  A    between atoms: C_23  and  C_24
REMARK    9  A    between atoms: C_26  and  C_28
REMARK   10  A    between atoms: C_27  and  C_29
REMARK                            x       y       z     vdW  Elec       q    Type
REMARK                         _______ _______ _______ _____ _____    ______ ____
ROOT
ATOM      1  S   UNL     1     -15.260  -8.209  16.907  0.00  0.00    -0.057 S 
ATOM      6  O   UNL     1     -11.688  -6.380  14.549  0.00  0.00    -0.270 OA
ATOM      7  N   UNL     1     -12.692  -8.267  16.593  0.00  0.00    -0.229 NA
ATOM      9  N   UNL     1     -13.923  -6.717  15.217  0.00  0.00    -0.261 N 
ATOM     10  C   UNL     1     -12.511 -10.696  19.581  0.00  0.00    -0.019 C 
ATOM     11  C   UNL     1     -13.942 -11.320  19.263  0.00  0.00    +0.011 C 
ATOM     12  C   UNL     1     -14.510 -12.370  20.293  0.00  0.00    +0.021 C 
ATOM     13  C   UNL     1     -11.954 -10.029  18.240  0.00  0.00    +0.054 C 
ATOM     14  C   UNL     1     -11.539 -11.829  20.003  0.00  0.00    +0.010 C 
ATOM     15  C   UNL     1     -13.397 -13.400  20.641  0.00  0.00    +0.123 C 
ATOM     16  C   UNL     1     -14.966 -10.216  18.863  0.00  0.00    +0.049 C 
ATOM     17  C   UNL     1     -12.093 -12.747  21.084  0.00  0.00    +0.032 C 
ATOM     18  C   UNL     1     -12.554  -9.634  20.707  0.00  0.00    +0.012 C 
ATOM     19  C   UNL     1     -13.012  -9.185  17.577  0.00  0.00    +0.058 A 
ATOM     21  C   UNL     1     -15.674 -13.156  19.625  0.00  0.00    +0.016 C 
ATOM     22  C   UNL     1     -14.358  -9.297  17.858  0.00  0.00    +0.015 A 
ATOM     25  C   UNL     1     -13.797  -7.689  16.174  0.00  0.00    +0.165 A 
ATOM     27  C   UNL     1     -12.885  -6.130  14.474  0.00  0.00    +0.250 C 
ATOM     43  H   UNL     1     -14.885  -6.453  15.030  0.00  0.00    +0.157 HD
ENDROOT
BRANCH  27  29
ATOM      2  F   UNL     1     -14.503  -2.305  10.693  0.00  0.00    -0.205 F 
ATOM     29  C   UNL     1     -13.314  -5.117  13.473  0.00  0.00    +0.037 A 
ATOM     32  C   UNL     1     -12.362  -4.322  12.834  0.00  0.00    +0.016 A 
ATOM     33  C   UNL     1     -14.667  -4.962  13.173  0.00  0.00    +0.016 A 
ATOM     37  C   UNL     1     -12.764  -3.372  11.895  0.00  0.00    +0.039 A 
ATOM     38  C   UNL     1     -15.069  -4.012  12.233  0.00  0.00    +0.039 A 
ATOM     39  C   UNL     1     -14.117  -3.217  11.595  0.00  0.00    +0.123 A 
ENDBRANCH  27  29
BRANCH  15   3
ATOM      3  O   UNL     1     -13.838 -14.289  21.667  0.00  0.00    -0.391 OA
ATOM     40  H   UNL     1     -13.648 -13.868  22.523  0.00  0.00    +0.210 HD
ENDBRANCH  15   3
BRANCH  12  20
ATOM     20  C   UNL     1     -15.109 -11.752  21.576  0.00  0.00    +0.165 C 
BRANCH  20   4
ATOM      4  O   UNL     1     -16.214 -12.539  21.958  0.00  0.00    -0.394 OA
ATOM     41  H   UNL     1     -16.652 -12.085  22.698  0.00  0.00    +0.209 HD
ENDBRANCH  20   4
ENDBRANCH  12  20
BRANCH  13  23
ATOM     23  C   UNL     1     -10.642  -9.253  18.411  0.00  0.00    +0.106 C 
BRANCH  23  24
ATOM      5  O   UNL     1      -9.784 -10.521  16.538  0.00  0.00    -0.276 OA
ATOM      8  N   UNL     1      -8.352  -9.139  17.739  0.00  0.00    -0.311 N 
ATOM     24  C   UNL     1      -9.576  -9.724  17.449  0.00  0.00    +0.214 C 
ATOM     42  H   UNL     1      -8.281  -8.506  18.530  0.00  0.00    +0.149 HD
BRANCH   8  26
ATOM     26  C   UNL     1      -7.150  -9.408  16.984  0.00  0.00    +0.139 C 
BRANCH  26  28
ATOM     28  C   UNL     1      -6.186 -10.269  17.748  0.00  0.00    -0.030 A 
ATOM     30  C   UNL     1      -6.512 -10.711  19.030  0.00  0.00    +0.005 A 
ATOM     31  C   UNL     1      -4.966 -10.628  17.175  0.00  0.00    +0.005 A 
ATOM     34  C   UNL     1      -5.617 -11.512  19.740  0.00  0.00    +0.000 A 
ATOM     35  C   UNL     1      -4.071 -11.428  17.885  0.00  0.00    +0.000 A 
ATOM     36  C   UNL     1      -4.396 -11.870  19.167  0.00  0.00    +0.000 A 
ENDBRANCH  26  28
ENDBRANCH   8  26
ENDBRANCH  23  24
ENDBRANCH  13  23
TORSDOF 8
ENDMDL
MODEL 4
REMARK VINA RESULT:      -7.0     31.608     35.492
REMARK  Name = 11882862
REMARK  10 active torsions:
REMARK  status: ('A' for Active; 'I' for Inactive)
REMARK    1  A    between atoms: O_3  and  C_15
REMARK    2  A    between atoms: O_4  and  C_20
REMARK    3  A    between atoms: N_8  and  C_26
REMARK    4  A    between atoms: C_10  and  C_18
REMARK    5  A    between atoms: C_12  and  C_20
REMARK    6  A    between atoms: C_12  and  C_21
REMARK    7  A    between atoms: C_13  and  C_23
REMARK    8  A    between atoms: C_23  and  C_24
REMARK    9  A    between atoms: C_26  and  C_28
REMARK   10  A    between atoms: C_27  and  C_29
REMARK                            x       y       z     vdW  Elec       q    Type
REMARK                         _______ _______ _______ _____ _____    ______ ____
ROOT
ATOM      1  S   UNL     1     -11.684 -10.562  18.995  0.00  0.00    -0.057 S 
ATOM      6  O   UNL     1      -7.910  -8.971  16.783  0.00  0.00    -0.270 OA
ATOM      7  N   UNL     1     -10.842  -8.939  17.164  0.00  0.00    -0.229 NA
ATOM      9  N   UNL     1      -9.174 -10.250  18.307  0.00  0.00    -0.261 N 
ATOM     10  C   UNL     1     -14.528  -8.193  16.314  0.00  0.00    -0.019 C 
ATOM     11  C   UNL     1     -15.006  -8.433  17.815  0.00  0.00    +0.011 C 
ATOM     12  C   UNL     1     -16.557  -8.378  18.090  0.00  0.00    +0.021 C 
ATOM     13  C   UNL     1     -12.967  -7.856  16.341  0.00  0.00    +0.054 C 
ATOM     14  C   UNL     1     -15.282  -6.972  15.723  0.00  0.00    +0.010 C 
ATOM     15  C   UNL     1     -17.158  -7.125  17.391  0.00  0.00    +0.123 C 
ATOM     16  C   UNL     1     -14.300  -9.669  18.445  0.00  0.00    +0.049 C 
ATOM     17  C   UNL     1     -16.790  -7.027  15.916  0.00  0.00    +0.032 C 
ATOM     18  C   UNL     1     -14.776  -9.418  15.401  0.00  0.00    +0.012 C 
ATOM     19  C   UNL     1     -12.219  -8.824  17.222  0.00  0.00    +0.058 A 
ATOM     21  C   UNL     1     -16.796  -8.215  19.618  0.00  0.00    +0.016 C 
ATOM     22  C   UNL     1     -12.835  -9.614  18.172  0.00  0.00    +0.015 A 
ATOM     25  C   UNL     1     -10.452  -9.832  18.048  0.00  0.00    +0.165 A 
ATOM     27  C   UNL     1      -8.000  -9.807  17.675  0.00  0.00    +0.250 C 
ATOM     43  H   UNL     1      -9.112 -10.921  19.067  0.00  0.00    +0.157 HD
ENDROOT
BRANCH  27  29
ATOM      2  F   UNL     1      -3.237 -12.093  19.580  0.00  0.00    -0.205 F 
ATOM     29  C   UNL     1      -6.739 -10.412  18.179  0.00  0.00    +0.037 A 
ATOM     32  C   UNL     1      -6.642 -10.816  19.511  0.00  0.00    +0.016 A 
ATOM     33  C   UNL     1      -5.652 -10.576  17.321  0.00  0.00    +0.016 A 
ATOM     37  C   UNL     1      -5.459 -11.383  19.984  0.00  0.00    +0.039 A 
ATOM     38  C   UNL     1      -4.468 -11.144  17.794  0.00  0.00    +0.039 A 
ATOM     39  C   UNL     1      -4.373 -11.548  19.126  0.00  0.00    +0.123 A 
ENDBRANCH  27  29
BRANCH  15   3
ATOM      3  O   UNL     1     -18.580  -7.115  17.513  0.00  0.00    -0.391 OA
ATOM     40  H   UNL     1     -18.915  -6.364  16.995  0.00  0.00    +0.210 HD
ENDBRANCH  15   3
BRANCH  12  20
ATOM     20  C   UNL     1     -17.326  -9.656  17.684  0.00  0.00    +0.165 C 
BRANCH  20   4
ATOM      4  O   UNL     1     -18.345  -9.866  18.634  0.00  0.00    -0.394 OA
ATOM     41  H   UNL     1     -18.132 -10.685  19.113  0.00  0.00    +0.209 HD
ENDBRANCH  20   4
ENDBRANCH  12  20
BRANCH  13  23
ATOM     23  C   UNL     1     -12.315  -7.740  14.956  0.00  0.00    +0.106 C 
BRANCH  23  24
ATOM      5  O   UNL     1     -10.750  -5.927  15.303  0.00  0.00    -0.276 OA
ATOM      8  N   UNL     1     -12.468  -5.678  13.758  0.00  0.00    -0.311 N 
ATOM     24  C   UNL     1     -11.737  -6.364  14.716  0.00  0.00    +0.214 C 
ATOM     42  H   UNL     1     -13.283  -6.123  13.345  0.00  0.00    +0.149 HD
BRANCH   8  26
ATOM     26  C   UNL     1     -12.146  -4.337  13.329  0.00  0.00    +0.139 C 
BRANCH  26  28
ATOM     28  C   UNL     1     -13.067  -3.857  12.244  0.00  0.00    -0.030 A 
ATOM     30  C   UNL     1     -12.644  -3.866  10.915  0.00  0.00    +0.005 A 
ATOM     31  C   UNL     1     -14.345  -3.402  12.567  0.00  0.00    +0.005 A 
ATOM     34  C   UNL     1     -13.501  -3.420   9.908  0.00  0.00    +0.000 A 
ATOM     35  C   UNL     1     -15.202  -2.956  11.560  0.00  0.00    +0.000 A 
ATOM     36  C   UNL     1     -14.779  -2.965  10.231  0.00  0.00    +0.000 A 
ENDBRANCH  26  28
ENDBRANCH   8  26
ENDBRANCH  23  24
ENDBRANCH  13  23
TORSDOF 8
ENDMDL
MODEL 5
REMARK VINA RESULT:      -6.9     17.195     21.062
REMARK  Name = 11882862
REMARK  10 active torsions:
REMARK  status: ('A' for Active; 'I' for Inactive)
REMARK    1  A    between atoms: O_3  and  C_15
REMARK    2  A    between atoms: O_4  and  C_20
REMARK    3  A    between atoms: N_8  and  C_26
REMARK    4  A    between atoms: C_10  and  C_18
REMARK    5  A    between atoms: C_12  and  C_20
REMARK    6  A    between atoms: C_12  and  C_21
REMARK    7  A    between atoms: C_13  and  C_23
REMARK    8  A    between atoms: C_23  and  C_24
REMARK    9  A    between atoms: C_26  and  C_28
REMARK   10  A    between atoms: C_27  and  C_29
REMARK                            x       y       z     vdW  Elec       q    Type
REMARK                         _______ _______ _______ _____ _____    ______ ____
ROOT
ATOM      1  S   UNL     1      18.038   6.408  20.463  0.00  0.00    -0.057 S 
ATOM      6  O   UNL     1      20.637   9.004  23.322  0.00  0.00    -0.270 OA
ATOM      7  N   UNL     1      18.091   8.572  21.880  0.00  0.00    -0.229 NA
ATOM      9  N   UNL     1      20.077   7.206  21.905  0.00  0.00    -0.261 N 
ATOM     10  C   UNL     1      14.656   9.481  20.385  0.00  0.00    -0.019 C 
ATOM     11  C   UNL     1      14.228   7.954  20.237  0.00  0.00    +0.011 C 
ATOM     12  C   UNL     1      12.854   7.663  19.519  0.00  0.00    +0.021 C 
ATOM     13  C   UNL     1      15.805   9.566  21.492  0.00  0.00    +0.054 C 
ATOM     14  C   UNL     1      13.441  10.311  20.880  0.00  0.00    +0.010 C 
ATOM     15  C   UNL     1      11.763   8.607  20.099  0.00  0.00    +0.123 C 
ATOM     16  C   UNL     1      15.407   7.083  19.713  0.00  0.00    +0.049 C 
ATOM     17  C   UNL     1      12.168  10.076  20.078  0.00  0.00    +0.032 C 
ATOM     18  C   UNL     1      15.169  10.095  19.060  0.00  0.00    +0.012 C 
ATOM     19  C   UNL     1      16.856   8.509  21.263  0.00  0.00    +0.058 A 
ATOM     21  C   UNL     1      12.418   6.203  19.834  0.00  0.00    +0.016 C 
ATOM     22  C   UNL     1      16.650   7.395  20.475  0.00  0.00    +0.015 A 
ATOM     25  C   UNL     1      18.799   7.522  21.526  0.00  0.00    +0.165 A 
ATOM     27  C   UNL     1      20.907   7.947  22.763  0.00  0.00    +0.250 C 
ATOM     43  H   UNL     1      20.402   6.318  21.536  0.00  0.00    +0.157 HD
ENDROOT
BRANCH  27  29
ATOM      2  F   UNL     1      25.951   5.694  23.767  0.00  0.00    -0.205 F 
ATOM     29  C   UNL     1      22.242   7.351  23.028  0.00  0.00    +0.037 A 
ATOM     32  C   UNL     1      23.100   7.945  23.955  0.00  0.00    +0.016 A 
ATOM     33  C   UNL     1      22.638   6.197  22.352  0.00  0.00    +0.016 A 
ATOM     37  C   UNL     1      24.353   7.385  24.204  0.00  0.00    +0.039 A 
ATOM     38  C   UNL     1      23.891   5.637  22.601  0.00  0.00    +0.039 A 
ATOM     39  C   UNL     1      24.748   6.231  23.527  0.00  0.00    +0.123 A 
ENDBRANCH  27  29
BRANCH  15   3
ATOM      3  O   UNL     1      10.537   8.458  19.382  0.00  0.00    -0.391 OA
ATOM     40  H   UNL     1       9.894   9.077  19.767  0.00  0.00    +0.210 HD
ENDBRANCH  15   3
BRANCH  12  20
ATOM     20  C   UNL     1      12.902   7.757  17.978  0.00  0.00    +0.165 C 
BRANCH  20   4
ATOM      4  O   UNL     1      11.865   6.953  17.464  0.00  0.00    -0.394 OA
ATOM     41  H   UNL     1      11.234   6.796  18.186  0.00  0.00    +0.209 HD
ENDBRANCH  20   4
ENDBRANCH  12  20
BRANCH  13  23
ATOM     23  C   UNL     1      16.434  10.957  21.654  0.00  0.00    +0.106 C 
BRANCH  23  24
ATOM      5  O   UNL     1      17.073  12.216  23.619  0.00  0.00    -0.276 OA
ATOM      8  N   UNL     1      15.042  11.086  23.591  0.00  0.00    -0.311 N 
ATOM     24  C   UNL     1      16.250  11.502  23.051  0.00  0.00    +0.214 C 
ATOM     42  H   UNL     1      14.439  10.478  23.045  0.00  0.00    +0.149 HD
BRANCH   8  26
ATOM     26  C   UNL     1      14.601  11.453  24.917  0.00  0.00    +0.139 C 
BRANCH  26  28
ATOM     28  C   UNL     1      13.195  11.979  24.917  0.00  0.00    -0.030 A 
ATOM     30  C   UNL     1      12.858  13.072  25.714  0.00  0.00    +0.005 A 
ATOM     31  C   UNL     1      12.225  11.373  24.118  0.00  0.00    +0.005 A 
ATOM     34  C   UNL     1      11.551  13.560  25.713  0.00  0.00    +0.000 A 
ATOM     35  C   UNL     1      10.918  11.860  24.117  0.00  0.00    +0.000 A 
ATOM     36  C   UNL     1      10.581  12.954  24.915  0.00  0.00    +0.000 A 
ENDBRANCH  26  28
ENDBRANCH   8  26
ENDBRANCH  23  24
ENDBRANCH  13  23
TORSDOF 8
ENDMDL
MODEL 6
REMARK VINA RESULT:      -6.9     28.750     31.769
REMARK  Name = 11882862
REMARK  10 active torsions:
REMARK  status: ('A' for Active; 'I' for Inactive)
REMARK    1  A    between atoms: O_3  and  C_15
REMARK    2  A    between atoms: O_4  and  C_20
REMARK    3  A    between atoms: N_8  and  C_26
REMARK    4  A    between atoms: C_10  and  C_18
REMARK    5  A    between atoms: C_12  and  C_20
REMARK    6  A    between atoms: C_12  and  C_21
REMARK    7  A    between atoms: C_13  and  C_23
REMARK    8  A    between atoms: C_23  and  C_24
REMARK    9  A    between atoms: C_26  and  C_28
REMARK   10  A    between atoms: C_27  and  C_29
REMARK                            x       y       z     vdW  Elec       q    Type
REMARK                         _______ _______ _______ _____ _____    ______ ____
ROOT
ATOM      1  S   UNL     1      -6.126 -10.597  12.264  0.00  0.00    -0.057 S 
ATOM      6  O   UNL     1      -9.315  -8.096   9.975  0.00  0.00    -0.270 OA
ATOM      7  N   UNL     1      -8.333  -9.269  12.506  0.00  0.00    -0.229 NA
ATOM      9  N   UNL     1      -7.371  -9.388  10.300  0.00  0.00    -0.261 N 
ATOM     10  C   UNL     1      -8.494 -10.456  16.171  0.00  0.00    -0.019 C 
ATOM     11  C   UNL     1      -6.908 -10.509  16.307  0.00  0.00    +0.011 C 
ATOM     12  C   UNL     1      -6.324 -11.080  17.656  0.00  0.00    +0.021 C 
ATOM     13  C   UNL     1      -8.854  -9.469  14.967  0.00  0.00    +0.054 C 
ATOM     14  C   UNL     1      -9.104  -9.877  17.475  0.00  0.00    +0.010 C 
ATOM     15  C   UNL     1      -7.074 -10.431  18.854  0.00  0.00    +0.123 C 
ATOM     16  C   UNL     1      -6.249 -11.113  15.032  0.00  0.00    +0.049 C 
ATOM     17  C   UNL     1      -8.590 -10.543  18.744  0.00  0.00    +0.032 C 
ATOM     18  C   UNL     1      -9.122 -11.846  15.905  0.00  0.00    +0.012 C 
ATOM     19  C   UNL     1      -8.004  -9.762  13.756  0.00  0.00    +0.058 A 
ATOM     21  C   UNL     1      -4.827 -10.673  17.772  0.00  0.00    +0.016 C 
ATOM     22  C   UNL     1      -6.831 -10.486  13.811  0.00  0.00    +0.015 A 
ATOM     25  C   UNL     1      -7.418  -9.653  11.642  0.00  0.00    +0.165 A 
ATOM     27  C   UNL     1      -8.300  -8.641   9.557  0.00  0.00    +0.250 C 
ATOM     43  H   UNL     1      -6.542  -9.755   9.842  0.00  0.00    +0.157 HD
ENDROOT
BRANCH  27  29
ATOM      2  F   UNL     1      -7.099  -8.049   4.103  0.00  0.00    -0.205 F 
ATOM     29  C   UNL     1      -7.982  -8.485   8.113  0.00  0.00    +0.037 A 
ATOM     32  C   UNL     1      -8.599  -7.480   7.367  0.00  0.00    +0.016 A 
ATOM     33  C   UNL     1      -7.067  -9.343   7.503  0.00  0.00    +0.016 A 
ATOM     37  C   UNL     1      -8.300  -7.333   6.013  0.00  0.00    +0.039 A 
ATOM     38  C   UNL     1      -6.768  -9.196   6.148  0.00  0.00    +0.039 A 
ATOM     39  C   UNL     1      -7.385  -8.191   5.404  0.00  0.00    +0.123 A 
ENDBRANCH  27  29
BRANCH  15   3
ATOM      3  O   UNL     1      -6.658 -11.020  20.086  0.00  0.00    -0.391 OA
ATOM     40  H   UNL     1      -6.344 -11.920  19.891  0.00  0.00    +0.210 HD
ENDBRANCH  15   3
BRANCH  12  20
ATOM     20  C   UNL     1      -6.344 -12.621  17.762  0.00  0.00    +0.165 C 
BRANCH  20   4
ATOM      4  O   UNL     1      -5.270 -13.010  18.589  0.00  0.00    -0.394 OA
ATOM     41  H   UNL     1      -4.762 -13.684  18.107  0.00  0.00    +0.209 HD
ENDBRANCH  20   4
ENDBRANCH  12  20
BRANCH  13  23
ATOM     23  C   UNL     1     -10.345  -9.418  14.607  0.00  0.00    +0.106 C 
BRANCH  23  24
ATOM      5  O   UNL     1     -10.396  -7.172  15.505  0.00  0.00    -0.276 OA
ATOM      8  N   UNL     1     -12.147  -7.913  14.169  0.00  0.00    -0.311 N 
ATOM     24  C   UNL     1     -10.934  -8.044  14.828  0.00  0.00    +0.214 C 
ATOM     42  H   UNL     1     -12.516  -8.703  13.649  0.00  0.00    +0.149 HD
BRANCH   8  26
ATOM     26  C   UNL     1     -12.939  -6.704  14.205  0.00  0.00    +0.139 C 
BRANCH  26  28
ATOM     28  C   UNL     1     -12.609  -5.783  13.066  0.00  0.00    -0.030 A 
ATOM     30  C   UNL     1     -12.332  -6.306  11.804  0.00  0.00    +0.005 A 
ATOM     31  C   UNL     1     -12.580  -4.403  13.272  0.00  0.00    +0.005 A 
ATOM     34  C   UNL     1     -12.026  -5.449  10.746  0.00  0.00    +0.000 A 
ATOM     35  C   UNL     1     -12.274  -3.547  12.214  0.00  0.00    +0.000 A 
ATOM     36  C   UNL     1     -11.997  -4.070  10.952  0.00  0.00    +0.000 A 
ENDBRANCH  26  28
ENDBRANCH   8  26
ENDBRANCH  23  24
ENDBRANCH  13  23
TORSDOF 8
ENDMDL
MODEL 7
REMARK VINA RESULT:      -6.8     16.993     20.470
REMARK  Name = 11882862
REMARK  10 active torsions:
REMARK  status: ('A' for Active; 'I' for Inactive)
REMARK    1  A    between atoms: O_3  and  C_15
REMARK    2  A    between atoms: O_4  and  C_20
REMARK    3  A    between atoms: N_8  and  C_26
REMARK    4  A    between atoms: C_10  and  C_18
REMARK    5  A    between atoms: C_12  and  C_20
REMARK    6  A    between atoms: C_12  and  C_21
REMARK    7  A    between atoms: C_13  and  C_23
REMARK    8  A    between atoms: C_23  and  C_24
REMARK    9  A    between atoms: C_26  and  C_28
REMARK   10  A    between atoms: C_27  and  C_29
REMARK                            x       y       z     vdW  Elec       q    Type
REMARK                         _______ _______ _______ _____ _____    ______ ____
ROOT
ATOM      1  S   UNL     1      17.352   5.516  19.820  0.00  0.00    -0.057 S 
ATOM      6  O   UNL     1      21.437   7.104  21.387  0.00  0.00    -0.270 OA
ATOM      7  N   UNL     1      18.542   7.516  20.950  0.00  0.00    -0.229 NA
ATOM      9  N   UNL     1      19.906   5.607  20.402  0.00  0.00    -0.261 N 
ATOM     10  C   UNL     1      15.236   9.480  20.659  0.00  0.00    -0.019 C 
ATOM     11  C   UNL     1      14.350   8.163  20.792  0.00  0.00    +0.011 C 
ATOM     12  C   UNL     1      12.791   8.328  20.618  0.00  0.00    +0.021 C 
ATOM     13  C   UNL     1      16.671   9.175  21.291  0.00  0.00    +0.054 C 
ATOM     14  C   UNL     1      14.578  10.627  21.471  0.00  0.00    +0.010 C 
ATOM     15  C   UNL     1      12.308   9.544  21.458  0.00  0.00    +0.123 C 
ATOM     16  C   UNL     1      14.953   6.987  19.969  0.00  0.00    +0.049 C 
ATOM     17  C   UNL     1      13.097  10.818  21.178  0.00  0.00    +0.032 C 
ATOM     18  C   UNL     1      15.406   9.944  19.192  0.00  0.00    +0.012 C 
ATOM     19  C   UNL     1      17.209   7.854  20.802  0.00  0.00    +0.058 A 
ATOM     21  C   UNL     1      12.082   7.064  21.183  0.00  0.00    +0.016 C 
ATOM     22  C   UNL     1      16.417   6.880  20.229  0.00  0.00    +0.015 A 
ATOM     25  C   UNL     1      18.733   6.310  20.461  0.00  0.00    +0.165 A 
ATOM     27  C   UNL     1      21.165   6.032  20.858  0.00  0.00    +0.250 C 
ATOM     43  H   UNL     1      19.801   4.673  20.017  0.00  0.00    +0.157 HD
ENDROOT
BRANCH  27  29
ATOM      2  F   UNL     1      25.327   2.311  20.247  0.00  0.00    -0.205 F 
ATOM     29  C   UNL     1      22.266   5.047  20.696  0.00  0.00    +0.037 A 
ATOM     32  C   UNL     1      23.520   5.468  20.250  0.00  0.00    +0.016 A 
ATOM     33  C   UNL     1      22.048   3.701  20.990  0.00  0.00    +0.016 A 
ATOM     37  C   UNL     1      24.553   4.544  20.098  0.00  0.00    +0.039 A 
ATOM     38  C   UNL     1      23.082   2.776  20.839  0.00  0.00    +0.039 A 
ATOM     39  C   UNL     1      24.334   3.198  20.392  0.00  0.00    +0.123 A 
ENDBRANCH  27  29
BRANCH  15   3
ATOM      3  O   UNL     1      10.923   9.799  21.222  0.00  0.00    -0.391 OA
ATOM     40  H   UNL     1      10.455   8.948  21.267  0.00  0.00    +0.210 HD
ENDBRANCH  15   3
BRANCH  12  20
ATOM     20  C   UNL     1      12.319   8.448  19.152  0.00  0.00    +0.165 C 
BRANCH  20   4
ATOM      4  O   UNL     1      10.960   8.079  19.105  0.00  0.00    -0.394 OA
ATOM     41  H   UNL     1      10.815   7.610  18.266  0.00  0.00    +0.209 HD
ENDBRANCH  20   4
ENDBRANCH  12  20
BRANCH  13  23
ATOM     23  C   UNL     1      17.699  10.300  21.112  0.00  0.00    +0.106 C 
BRANCH  23  24
ATOM      5  O   UNL     1      17.871  11.662  23.105  0.00  0.00    -0.276 OA
ATOM      8  N   UNL     1      19.394   9.941  22.757  0.00  0.00    -0.311 N 
ATOM     24  C   UNL     1      18.302  10.731  22.429  0.00  0.00    +0.214 C 
ATOM     42  H   UNL     1      19.683   9.207  22.118  0.00  0.00    +0.149 HD
BRANCH   8  26
ATOM     26  C   UNL     1      20.170  10.127  23.962  0.00  0.00    +0.139 C 
BRANCH  26  28
ATOM     28  C   UNL     1      21.083   8.965  24.227  0.00  0.00    -0.030 A 
ATOM     30  C   UNL     1      22.463   9.118  24.097  0.00  0.00    +0.005 A 
ATOM     31  C   UNL     1      20.550   7.732  24.604  0.00  0.00    +0.005 A 
ATOM     34  C   UNL     1      23.311   8.038  24.344  0.00  0.00    +0.000 A 
ATOM     35  C   UNL     1      21.398   6.651  24.850  0.00  0.00    +0.000 A 
ATOM     36  C   UNL     1      22.778   6.805  24.720  0.00  0.00    +0.000 A 
ENDBRANCH  26  28
ENDBRANCH   8  26
ENDBRANCH  23  24
ENDBRANCH  13  23
TORSDOF 8
ENDMDL
MODEL 8
REMARK VINA RESULT:      -6.6     25.597     28.409
REMARK  Name = 11882862
REMARK  10 active torsions:
REMARK  status: ('A' for Active; 'I' for Inactive)
REMARK    1  A    between atoms: O_3  and  C_15
REMARK    2  A    between atoms: O_4  and  C_20
REMARK    3  A    between atoms: N_8  and  C_26
REMARK    4  A    between atoms: C_10  and  C_18
REMARK    5  A    between atoms: C_12  and  C_20
REMARK    6  A    between atoms: C_12  and  C_21
REMARK    7  A    between atoms: C_13  and  C_23
REMARK    8  A    between atoms: C_23  and  C_24
REMARK    9  A    between atoms: C_26  and  C_28
REMARK   10  A    between atoms: C_27  and  C_29
REMARK                            x       y       z     vdW  Elec       q    Type
REMARK                         _______ _______ _______ _____ _____    ______ ____
ROOT
ATOM      1  S   UNL     1      17.445  -2.612  30.365  0.00  0.00    -0.057 S 
ATOM      6  O   UNL     1      19.695  -3.231  26.338  0.00  0.00    -0.270 OA
ATOM      7  N   UNL     1      17.688  -4.156  28.303  0.00  0.00    -0.229 NA
ATOM      9  N   UNL     1      19.096  -2.201  28.371  0.00  0.00    -0.261 N 
ATOM     10  C   UNL     1      15.271  -6.619  30.024  0.00  0.00    -0.019 C 
ATOM     11  C   UNL     1      14.489  -5.451  30.773  0.00  0.00    +0.011 C 
ATOM     12  C   UNL     1      13.371  -5.882  31.798  0.00  0.00    +0.021 C 
ATOM     13  C   UNL     1      16.009  -5.984  28.756  0.00  0.00    +0.054 C 
ATOM     14  C   UNL     1      14.255  -7.676  29.517  0.00  0.00    +0.010 C 
ATOM     15  C   UNL     1      12.475  -6.975  31.150  0.00  0.00    +0.123 C 
ATOM     16  C   UNL     1      15.469  -4.376  31.329  0.00  0.00    +0.049 C 
ATOM     17  C   UNL     1      13.271  -8.143  30.580  0.00  0.00    +0.032 C 
ATOM     18  C   UNL     1      16.312  -7.323  30.928  0.00  0.00    +0.012 C 
ATOM     19  C   UNL     1      16.731  -4.714  29.131  0.00  0.00    +0.058 A 
ATOM     21  C   UNL     1      12.462  -4.657  32.101  0.00  0.00    +0.016 C 
ATOM     22  C   UNL     1      16.461  -4.000  30.280  0.00  0.00    +0.015 A 
ATOM     25  C   UNL     1      18.138  -3.050  28.856  0.00  0.00    +0.165 A 
ATOM     27  C   UNL     1      19.805  -2.334  27.166  0.00  0.00    +0.250 C 
ATOM     43  H   UNL     1      19.248  -1.384  28.955  0.00  0.00    +0.157 HD
ENDROOT
BRANCH  27  29
ATOM      2  F   UNL     1      23.448   1.793  26.052  0.00  0.00    -0.205 F 
ATOM     29  C   UNL     1      20.770  -1.242  26.871  0.00  0.00    +0.037 A 
ATOM     32  C   UNL     1      20.834  -0.695  25.589  0.00  0.00    +0.016 A 
ATOM     33  C   UNL     1      21.611  -0.763  27.876  0.00  0.00    +0.016 A 
ATOM     37  C   UNL     1      21.739   0.330  25.312  0.00  0.00    +0.039 A 
ATOM     38  C   UNL     1      22.515   0.262  27.600  0.00  0.00    +0.039 A 
ATOM     39  C   UNL     1      22.579   0.808  26.318  0.00  0.00    +0.123 A 
ENDBRANCH  27  29
BRANCH  15   3
ATOM      3  O   UNL     1      11.532  -7.478  32.096  0.00  0.00    -0.391 OA
ATOM     40  H   UNL     1      11.389  -8.419  31.897  0.00  0.00    +0.210 HD
ENDBRANCH  15   3
BRANCH  12  20
ATOM     20  C   UNL     1      13.905  -6.350  33.171  0.00  0.00    +0.165 C 
BRANCH  20   4
ATOM      4  O   UNL     1      13.468  -5.427  34.142  0.00  0.00    -0.394 OA
ATOM     41  H   UNL     1      12.797  -5.873  34.685  0.00  0.00    +0.209 HD
ENDBRANCH  20   4
ENDBRANCH  12  20
BRANCH  13  23
ATOM     23  C   UNL     1      16.931  -6.953  28.003  0.00  0.00    +0.106 C 
BRANCH  23  24
ATOM      5  O   UNL     1      15.825  -7.744  26.002  0.00  0.00    -0.276 OA
ATOM      8  N   UNL     1      17.395  -6.038  25.846  0.00  0.00    -0.311 N 
ATOM     24  C   UNL     1      16.634  -6.980  26.522  0.00  0.00    +0.214 C 
ATOM     42  H   UNL     1      18.053  -5.466  26.367  0.00  0.00    +0.149 HD
BRANCH   8  26
ATOM     26  C   UNL     1      17.322  -5.842  24.416  0.00  0.00    +0.139 C 
BRANCH  26  28
ATOM     28  C   UNL     1      17.327  -4.386  24.048  0.00  0.00    -0.030 A 
ATOM     30  C   UNL     1      18.069  -3.947  22.951  0.00  0.00    +0.005 A 
ATOM     31  C   UNL     1      16.590  -3.474  24.802  0.00  0.00    +0.005 A 
ATOM     34  C   UNL     1      18.074  -2.594  22.609  0.00  0.00    +0.000 A 
ATOM     35  C   UNL     1      16.595  -2.121  24.461  0.00  0.00    +0.000 A 
ATOM     36  C   UNL     1      17.337  -1.682  23.364  0.00  0.00    +0.000 A 
ENDBRANCH  26  28
ENDBRANCH   8  26
ENDBRANCH  23  24
ENDBRANCH  13  23
TORSDOF 8
ENDMDL
MODEL 9
REMARK VINA RESULT:      -6.2      5.953      8.766
REMARK  Name = 11882862
REMARK  10 active torsions:
REMARK  status: ('A' for Active; 'I' for Inactive)
REMARK    1  A    between atoms: O_3  and  C_15
REMARK    2  A    between atoms: O_4  and  C_20
REMARK    3  A    between atoms: N_8  and  C_26
REMARK    4  A    between atoms: C_10  and  C_18
REMARK    5  A    between atoms: C_12  and  C_20
REMARK    6  A    between atoms: C_12  and  C_21
REMARK    7  A    between atoms: C_13  and  C_23
REMARK    8  A    between atoms: C_23  and  C_24
REMARK    9  A    between atoms: C_26  and  C_28
REMARK   10  A    between atoms: C_27  and  C_29
REMARK                            x       y       z     vdW  Elec       q    Type
REMARK                         _______ _______ _______ _____ _____    ______ ____
ROOT
ATOM      1  S   UNL     1       9.412   8.799   0.716  0.00  0.00    -0.057 S 
ATOM      6  O   UNL     1       7.660   8.803   5.029  0.00  0.00    -0.270 OA
ATOM      7  N   UNL     1       9.460   7.605   3.011  0.00  0.00    -0.229 NA
ATOM      9  N   UNL     1       7.987   9.501   2.801  0.00  0.00    -0.261 N 
ATOM     10  C   UNL     1      11.747   4.934   1.429  0.00  0.00    -0.019 C 
ATOM     11  C   UNL     1      12.398   5.978   0.416  0.00  0.00    +0.011 C 
ATOM     12  C   UNL     1      13.405   5.405  -0.653  0.00  0.00    +0.021 C 
ATOM     13  C   UNL     1      11.137   5.754   2.658  0.00  0.00    +0.054 C 
ATOM     14  C   UNL     1      12.850   3.988   1.972  0.00  0.00    +0.010 C 
ATOM     15  C   UNL     1      14.407   4.445   0.050  0.00  0.00    +0.123 C 
ATOM     16  C   UNL     1      11.324   6.934  -0.182  0.00  0.00    +0.049 C 
ATOM     17  C   UNL     1      13.722   3.371   0.888  0.00  0.00    +0.032 C 
ATOM     18  C   UNL     1      10.634   4.077   0.777  0.00  0.00    +0.012 C 
ATOM     19  C   UNL     1      10.334   6.935   2.175  0.00  0.00    +0.058 A 
ATOM     21  C   UNL     1      14.232   6.579  -1.250  0.00  0.00    +0.016 C 
ATOM     22  C   UNL     1      10.447   7.459   0.903  0.00  0.00    +0.015 A 
ATOM     25  C   UNL     1       8.912   8.599   2.347  0.00  0.00    +0.165 A 
ATOM     27  C   UNL     1       7.425   9.553   4.088  0.00  0.00    +0.250 C 
ATOM     43  H   UNL     1       7.741  10.210   2.117  0.00  0.00    +0.157 HD
ENDROOT
BRANCH  27  29
ATOM      2  F   UNL     1       3.792  13.746   4.959  0.00  0.00    -0.205 F 
ATOM     29  C   UNL     1       6.464  10.663   4.318  0.00  0.00    +0.037 A 
ATOM     32  C   UNL     1       5.177  10.595   3.782  0.00  0.00    +0.016 A 
ATOM     33  C   UNL     1       6.847  11.773   5.071  0.00  0.00    +0.016 A 
ATOM     37  C   UNL     1       4.275  11.637   3.998  0.00  0.00    +0.039 A 
ATOM     38  C   UNL     1       5.945  12.815   5.288  0.00  0.00    +0.039 A 
ATOM     39  C   UNL     1       4.659  12.746   4.751  0.00  0.00    +0.123 A 
ENDBRANCH  27  29
BRANCH  15   3
ATOM      3  O   UNL     1      15.252   3.810  -0.909  0.00  0.00    -0.391 OA
ATOM     40  H   UNL     1      14.892   2.922  -1.077  0.00  0.00    +0.210 HD
ENDBRANCH  15   3
BRANCH  12  20
ATOM     20  C   UNL     1      12.734   4.713  -1.860  0.00  0.00    +0.165 C 
BRANCH  20   4
ATOM      4  O   UNL     1      13.511   4.991  -3.003  0.00  0.00    -0.394 OA
ATOM     41  H   UNL     1      13.071   5.712  -3.485  0.00  0.00    +0.209 HD
ENDBRANCH  20   4
ENDBRANCH  12  20
BRANCH  13  23
ATOM     23  C   UNL     1      10.341   4.905   3.658  0.00  0.00    +0.106 C 
BRANCH  23  24
ATOM      5  O   UNL     1       9.829   5.014   6.020  0.00  0.00    -0.276 OA
ATOM      8  N   UNL     1      11.579   6.283   5.167  0.00  0.00    -0.311 N 
ATOM     24  C   UNL     1      10.527   5.382   5.080  0.00  0.00    +0.214 C 
ATOM     42  H   UNL     1      12.084   6.538   4.323  0.00  0.00    +0.149 HD
BRANCH   8  26
ATOM     26  C   UNL     1      11.985   6.906   6.406  0.00  0.00    +0.139 C 
BRANCH  26  28
ATOM     28  C   UNL     1      11.159   8.120   6.720  0.00  0.00    -0.030 A 
ATOM     30  C   UNL     1      11.349   9.298   5.999  0.00  0.00    +0.005 A 
ATOM     31  C   UNL     1      10.202   8.069   7.734  0.00  0.00    +0.005 A 
ATOM     34  C   UNL     1      10.582  10.426   6.291  0.00  0.00    +0.000 A 
ATOM     35  C   UNL     1       9.435   9.197   8.027  0.00  0.00    +0.000 A 
ATOM     36  C   UNL     1       9.625  10.375   7.305  0.00  0.00    +0.000 A 
ENDBRANCH  26  28
ENDBRANCH   8  26
ENDBRANCH  23  24
ENDBRANCH  13  23
TORSDOF 8
ENDMDL
MODEL 10
REMARK VINA RESULT:      -6.2     28.212     31.439
REMARK  Name = 11882862
REMARK  10 active torsions:
REMARK  status: ('A' for Active; 'I' for Inactive)
REMARK    1  A    between atoms: O_3  and  C_15
REMARK    2  A    between atoms: O_4  and  C_20
REMARK    3  A    between atoms: N_8  and  C_26
REMARK    4  A    between atoms: C_10  and  C_18
REMARK    5  A    between atoms: C_12  and  C_20
REMARK    6  A    between atoms: C_12  and  C_21
REMARK    7  A    between atoms: C_13  and  C_23
REMARK    8  A    between atoms: C_23  and  C_24
REMARK    9  A    between atoms: C_26  and  C_28
REMARK   10  A    between atoms: C_27  and  C_29
REMARK                            x       y       z     vdW  Elec       q    Type
REMARK                         _______ _______ _______ _____ _____    ______ ____
ROOT
ATOM      1  S   UNL     1      -9.613 -10.284  13.399  0.00  0.00    -0.057 S 
ATOM      6  O   UNL     1      -5.911  -9.061  10.856  0.00  0.00    -0.270 OA
ATOM      7  N   UNL     1      -7.034 -10.084  13.394  0.00  0.00    -0.229 NA
ATOM      9  N   UNL     1      -8.181  -9.426  11.379  0.00  0.00    -0.261 N 
ATOM     10  C   UNL     1      -7.081 -11.038  17.130  0.00  0.00    -0.019 C 
ATOM     11  C   UNL     1      -8.383 -11.940  16.964  0.00  0.00    +0.011 C 
ATOM     12  C   UNL     1      -9.000 -12.555  18.278  0.00  0.00    +0.021 C 
ATOM     13  C   UNL     1      -6.393 -10.897  15.694  0.00  0.00    +0.054 C 
ATOM     14  C   UNL     1      -6.083 -11.745  18.083  0.00  0.00    +0.010 C 
ATOM     15  C   UNL     1      -7.862 -13.178  19.136  0.00  0.00    +0.123 C 
ATOM     16  C   UNL     1      -9.433 -11.259  16.037  0.00  0.00    +0.049 C 
ATOM     17  C   UNL     1      -6.706 -12.217  19.389  0.00  0.00    +0.032 C 
ATOM     18  C   UNL     1      -7.393  -9.629  17.693  0.00  0.00    +0.012 C 
ATOM     19  C   UNL     1      -7.412 -10.560  14.636  0.00  0.00    +0.058 A 
ATOM     21  C   UNL     1      -9.971 -13.707  17.892  0.00  0.00    +0.016 C 
ATOM     22  C   UNL     1      -8.769 -10.747  14.804  0.00  0.00    +0.015 A 
ATOM     25  C   UNL     1      -8.111  -9.896  12.663  0.00  0.00    +0.165 A 
ATOM     27  C   UNL     1      -7.102  -9.044  10.564  0.00  0.00    +0.250 C 
ATOM     43  H   UNL     1      -9.124  -9.405  11.004  0.00  0.00    +0.157 HD
ENDROOT
BRANCH  27  29
ATOM      2  F   UNL     1      -8.479  -7.365   5.385  0.00  0.00    -0.205 F 
ATOM     29  C   UNL     1      -7.466  -8.599   9.193  0.00  0.00    +0.037 A 
ATOM     32  C   UNL     1      -6.916  -9.240   8.082  0.00  0.00    +0.016 A 
ATOM     33  C   UNL     1      -8.358  -7.541   9.017  0.00  0.00    +0.016 A 
ATOM     37  C   UNL     1      -7.258  -8.823   6.796  0.00  0.00    +0.039 A 
ATOM     38  C   UNL     1      -8.701  -7.124   7.730  0.00  0.00    +0.039 A 
ATOM     39  C   UNL     1      -8.150  -7.765   6.620  0.00  0.00    +0.123 A 
ENDBRANCH  27  29
BRANCH  15   3
ATOM      3  O   UNL     1      -8.368 -13.630  20.392  0.00  0.00    -0.391 OA
ATOM     40  H   UNL     1      -7.606 -13.846  20.956  0.00  0.00    +0.210 HD
ENDBRANCH  15   3
BRANCH  12  20
ATOM     20  C   UNL     1      -9.842 -11.567  19.115  0.00  0.00    +0.165 C 
BRANCH  20   4
ATOM      4  O   UNL     1     -11.165 -12.049  19.151  0.00  0.00    -0.394 OA
ATOM     41  H   UNL     1     -11.502 -12.042  18.239  0.00  0.00    +0.209 HD
ENDBRANCH  20   4
ENDBRANCH  12  20
BRANCH  13  23
ATOM     23  C   UNL     1      -5.199  -9.933  15.652  0.00  0.00    +0.106 C 
BRANCH  23  24
ATOM      5  O   UNL     1      -3.198 -11.289  15.754  0.00  0.00    -0.276 OA
ATOM      8  N   UNL     1      -3.808 -10.296  13.743  0.00  0.00    -0.311 N 
ATOM     24  C   UNL     1      -3.960 -10.591  15.090  0.00  0.00    +0.214 C 
ATOM     42  H   UNL     1      -4.486  -9.690  13.290  0.00  0.00    +0.149 HD
BRANCH   8  26
ATOM     26  C   UNL     1      -2.709 -10.789  12.946  0.00  0.00    +0.139 C 
BRANCH  26  28
ATOM     28  C   UNL     1      -3.164 -11.779  11.912  0.00  0.00    -0.030 A 
ATOM     30  C   UNL     1      -3.487 -11.346  10.627  0.00  0.00    +0.005 A 
ATOM     31  C   UNL     1      -3.263 -13.131  12.239  0.00  0.00    +0.005 A 
ATOM     34  C   UNL     1      -3.910 -12.266   9.667  0.00  0.00    +0.000 A 
ATOM     35  C   UNL     1      -3.685 -14.051  11.279  0.00  0.00    +0.000 A 
ATOM     36  C   UNL     1      -4.009 -13.618   9.993  0.00  0.00    +0.000 A 
ENDBRANCH  26  28
ENDBRANCH   8  26
ENDBRANCH  23  24
ENDBRANCH  13  23
TORSDOF 8
ENDMDL
