MODEL 1
REMARK VINA RESULT:      -8.4      0.000      0.000
REMARK  Name = 45360656
REMARK  9 active torsions:
REMARK  status: ('A' for Active; 'I' for Inactive)
REMARK    1  A    between atoms: N_5  and  C_10
REMARK    2  A    between atoms: N_5  and  C_18
REMARK    3  A    between atoms: N_7  and  C_27
REMARK    4  A    between atoms: N_8  and  C_26
REMARK    5  A    between atoms: C_12  and  C_16
REMARK    6  A    between atoms: C_16  and  C_17
REMARK    7  A    between atoms: C_17  and  C_20
REMARK    8  A    between atoms: C_18  and  C_19
REMARK    9  A    between atoms: C_26  and  C_30
REMARK                            x       y       z     vdW  Elec       q    Type
REMARK                         _______ _______ _______ _____ _____    ______ ____
ROOT
ATOM      2  O   UNL     1     -17.528   1.392  22.141  0.00  0.00    -0.274 OA
ATOM      4  N   UNL     1     -17.552   3.143  25.344  0.00  0.00    -0.286 NA
ATOM      6  N   UNL     1     -17.483   0.557  24.256  0.00  0.00    -0.313 N 
ATOM      9  C   UNL     1     -17.792   3.002  23.901  0.00  0.00    +0.145 C 
ATOM     10  C   UNL     1     -16.046   4.609  24.420  0.00  0.00    +0.070 C 
ATOM     11  C   UNL     1     -16.818   3.996  23.251  0.00  0.00    +0.048 C 
ATOM     12  C   UNL     1     -18.033   2.023  26.144  0.00  0.00    +0.075 C 
ATOM     13  C   UNL     1     -16.160   3.552  25.511  0.00  0.00    +0.104 C 
ATOM     14  C   UNL     1     -17.396   0.720  25.689  0.00  0.00    +0.123 C 
ATOM     15  C   UNL     1     -17.567   1.594  23.358  0.00  0.00    +0.230 C 
ATOM     37  H   UNL     1     -17.355  -0.378  23.881  0.00  0.00    +0.149 HD
ENDROOT
BRANCH  10   5
ATOM      5  N   UNL     1     -14.673   4.947  24.082  0.00  0.00    -0.308 NA
ATOM     36  H   UNL     1     -14.407   5.796  24.581  0.00  0.00    +0.123 HD
BRANCH   5  18
ATOM     18  C   UNL     1     -14.528   5.174  22.650  0.00  0.00    +0.118 C 
BRANCH  18  19
ATOM      7  N   UNL     1     -14.575   8.827  22.252  0.00  0.00    -0.349 N 
ATOM     19  C   UNL     1     -14.311   6.625  22.330  0.00  0.00    -0.008 A 
ATOM     21  C   UNL     1     -13.261   7.171  21.540  0.00  0.00    +0.004 A 
ATOM     22  C   UNL     1     -15.103   7.668  22.753  0.00  0.00    +0.091 A 
ATOM     23  C   UNL     1     -13.450   8.554  21.506  0.00  0.00    +0.049 A 
ATOM     24  C   UNL     1     -12.165   6.619  20.848  0.00  0.00    +0.010 A 
ATOM     25  C   UNL     1     -12.594   9.417  20.813  0.00  0.00    +0.026 A 
ATOM     27  C   UNL     1     -15.134  10.143  22.478  0.00  0.00    +0.149 C 
ATOM     28  C   UNL     1     -11.300   7.469  20.151  0.00  0.00    +0.001 A 
ATOM     29  C   UNL     1     -11.513   8.846  20.134  0.00  0.00    +0.002 A 
ENDBRANCH  18  19
ENDBRANCH   5  18
ENDBRANCH  10   5
BRANCH  12  16
ATOM     16  C   UNL     1     -17.831   2.237  27.645  0.00  0.00    +0.029 C 
BRANCH  16  17
ATOM     17  C   UNL     1     -16.946   1.149  28.241  0.00  0.00    +0.097 C 
BRANCH  17  20
ATOM      3  O   UNL     1     -15.314   2.878  28.693  0.00  0.00    -0.276 OA
ATOM      8  N   UNL     1     -14.978   0.752  29.563  0.00  0.00    -0.311 N 
ATOM     20  C   UNL     1     -15.671   1.713  28.842  0.00  0.00    +0.213 C 
ATOM     38  H   UNL     1     -15.330  -0.200  29.612  0.00  0.00    +0.149 HD
BRANCH   8  26
ATOM     26  C   UNL     1     -13.732   1.040  30.231  0.00  0.00    +0.139 C 
BRANCH  26  30
ATOM      1  F   UNL     1     -14.485   4.210  34.822  0.00  0.00    -0.205 F 
ATOM     30  C   UNL     1     -13.933   1.885  31.455  0.00  0.00    -0.030 A 
ATOM     31  C   UNL     1     -13.370   3.159  31.522  0.00  0.00    +0.008 A 
ATOM     32  C   UNL     1     -14.681   1.396  32.525  0.00  0.00    +0.008 A 
ATOM     33  C   UNL     1     -13.556   3.945  32.659  0.00  0.00    +0.038 A 
ATOM     34  C   UNL     1     -14.868   2.181  33.663  0.00  0.00    +0.038 A 
ATOM     35  C   UNL     1     -14.305   3.456  33.730  0.00  0.00    +0.123 A 
ENDBRANCH  26  30
ENDBRANCH   8  26
ENDBRANCH  17  20
ENDBRANCH  16  17
ENDBRANCH  12  16
TORSDOF 8
ENDMDL
MODEL 2
REMARK VINA RESULT:      -8.3     27.166     31.194
REMARK  Name = 45360656
REMARK  9 active torsions:
REMARK  status: ('A' for Active; 'I' for Inactive)
REMARK    1  A    between atoms: N_5  and  C_10
REMARK    2  A    between atoms: N_5  and  C_18
REMARK    3  A    between atoms: N_7  and  C_27
REMARK    4  A    between atoms: N_8  and  C_26
REMARK    5  A    between atoms: C_12  and  C_16
REMARK    6  A    between atoms: C_16  and  C_17
REMARK    7  A    between atoms: C_17  and  C_20
REMARK    8  A    between atoms: C_18  and  C_19
REMARK    9  A    between atoms: C_26  and  C_30
REMARK                            x       y       z     vdW  Elec       q    Type
REMARK                         _______ _______ _______ _____ _____    ______ ____
ROOT
ATOM      2  O   UNL     1      13.252   7.265  17.285  0.00  0.00    -0.274 OA
ATOM      4  N   UNL     1      12.314   9.040  20.334  0.00  0.00    -0.286 NA
ATOM      6  N   UNL     1      12.461   6.453  19.256  0.00  0.00    -0.313 N 
ATOM      9  C   UNL     1      12.578   8.913  18.894  0.00  0.00    +0.145 C 
ATOM     10  C   UNL     1      14.205  10.307  20.038  0.00  0.00    +0.070 C 
ATOM     11  C   UNL     1      13.824   9.778  18.654  0.00  0.00    +0.048 C 
ATOM     12  C   UNL     1      11.459   7.993  20.882  0.00  0.00    +0.075 C 
ATOM     13  C   UNL     1      13.597   9.282  20.987  0.00  0.00    +0.104 C 
ATOM     14  C   UNL     1      12.061   6.619  20.635  0.00  0.00    +0.123 C 
ATOM     15  C   UNL     1      12.814   7.483  18.419  0.00  0.00    +0.230 C 
ATOM     37  H   UNL     1      12.603   5.505  18.920  0.00  0.00    +0.149 HD
ENDROOT
BRANCH  10   5
ATOM      5  N   UNL     1      15.639  10.476  20.209  0.00  0.00    -0.308 NA
ATOM     36  H   UNL     1      16.125   9.964  19.473  0.00  0.00    +0.123 HD
BRANCH   5  18
ATOM     18  C   UNL     1      16.074   9.969  21.504  0.00  0.00    +0.118 C 
BRANCH  18  19
ATOM      7  N   UNL     1      19.233   8.094  21.621  0.00  0.00    -0.349 N 
ATOM     19  C   UNL     1      17.231   9.020  21.376  0.00  0.00    -0.008 A 
ATOM     21  C   UNL     1      17.264   7.822  20.609  0.00  0.00    +0.004 A 
ATOM     22  C   UNL     1      18.456   9.161  21.987  0.00  0.00    +0.091 A 
ATOM     23  C   UNL     1      18.531   7.261  20.779  0.00  0.00    +0.049 A 
ATOM     24  C   UNL     1      16.335   7.160  19.782  0.00  0.00    +0.010 A 
ATOM     25  C   UNL     1      18.917   6.066  20.163  0.00  0.00    +0.026 A 
ATOM     27  C   UNL     1      20.597   7.890  22.062  0.00  0.00    +0.149 C 
ATOM     28  C   UNL     1      16.707   5.964  19.159  0.00  0.00    +0.001 A 
ATOM     29  C   UNL     1      17.978   5.426  19.348  0.00  0.00    +0.002 A 
ENDBRANCH  18  19
ENDBRANCH   5  18
ENDBRANCH  10   5
BRANCH  12  16
ATOM     16  C   UNL     1      11.148   8.197  22.366  0.00  0.00    +0.029 C 
BRANCH  16  17
ATOM     17  C   UNL     1      10.172   9.347  22.570  0.00  0.00    +0.097 C 
BRANCH  17  20
ATOM      3  O   UNL     1      11.153  10.644  24.364  0.00  0.00    -0.276 OA
ATOM      8  N   UNL     1      11.050  11.560  22.233  0.00  0.00    -0.311 N 
ATOM     20  C   UNL     1      10.843  10.566  23.178  0.00  0.00    +0.213 C 
ATOM     38  H   UNL     1      10.737  11.425  21.276  0.00  0.00    +0.149 HD
BRANCH   8  26
ATOM     26  C   UNL     1      11.672  12.820  22.563  0.00  0.00    +0.139 C 
BRANCH  26  30
ATOM      1  F   UNL     1      15.267  14.507  18.573  0.00  0.00    -0.205 F 
ATOM     30  C   UNL     1      12.630  13.270  21.499  0.00  0.00    -0.030 A 
ATOM     31  C   UNL     1      13.945  13.592  21.836  0.00  0.00    +0.008 A 
ATOM     32  C   UNL     1      12.206  13.367  20.174  0.00  0.00    +0.008 A 
ATOM     33  C   UNL     1      14.836  14.010  20.848  0.00  0.00    +0.038 A 
ATOM     34  C   UNL     1      13.097  13.785  19.185  0.00  0.00    +0.038 A 
ATOM     35  C   UNL     1      14.412  14.106  19.522  0.00  0.00    +0.123 A 
ENDBRANCH  26  30
ENDBRANCH   8  26
ENDBRANCH  17  20
ENDBRANCH  16  17
ENDBRANCH  12  16
TORSDOF 8
ENDMDL
MODEL 3
REMARK VINA RESULT:      -8.1     28.084     31.338
REMARK  Name = 45360656
REMARK  9 active torsions:
REMARK  status: ('A' for Active; 'I' for Inactive)
REMARK    1  A    between atoms: N_5  and  C_10
REMARK    2  A    between atoms: N_5  and  C_18
REMARK    3  A    between atoms: N_7  and  C_27
REMARK    4  A    between atoms: N_8  and  C_26
REMARK    5  A    between atoms: C_12  and  C_16
REMARK    6  A    between atoms: C_16  and  C_17
REMARK    7  A    between atoms: C_17  and  C_20
REMARK    8  A    between atoms: C_18  and  C_19
REMARK    9  A    between atoms: C_26  and  C_30
REMARK                            x       y       z     vdW  Elec       q    Type
REMARK                         _______ _______ _______ _____ _____    ______ ____
ROOT
ATOM      2  O   UNL     1      11.767   7.525  17.634  0.00  0.00    -0.274 OA
ATOM      4  N   UNL     1      13.522   6.983  20.789  0.00  0.00    -0.286 NA
ATOM      6  N   UNL     1      13.999   7.461  18.066  0.00  0.00    -0.313 N 
ATOM      9  C   UNL     1      12.378   6.904  19.870  0.00  0.00    +0.145 C 
ATOM     10  C   UNL     1      11.983   8.391  21.750  0.00  0.00    +0.070 C 
ATOM     11  C   UNL     1      11.313   7.814  20.502  0.00  0.00    +0.048 C 
ATOM     12  C   UNL     1      14.790   6.561  20.206  0.00  0.00    +0.075 C 
ATOM     13  C   UNL     1      13.469   8.295  21.429  0.00  0.00    +0.104 C 
ATOM     14  C   UNL     1      15.120   7.388  18.974  0.00  0.00    +0.123 C 
ATOM     15  C   UNL     1      12.683   7.344  18.442  0.00  0.00    +0.230 C 
ATOM     37  H   UNL     1      14.190   7.734  17.106  0.00  0.00    +0.149 HD
ENDROOT
BRANCH  10   5
ATOM      5  N   UNL     1      11.543   9.741  22.061  0.00  0.00    -0.308 NA
ATOM     36  H   UNL     1      10.948  10.079  21.304  0.00  0.00    +0.123 HD
BRANCH   5  18
ATOM     18  C   UNL     1      12.680  10.640  22.206  0.00  0.00    +0.118 C 
BRANCH  18  19
ATOM      7  N   UNL     1      12.171  13.671  20.190  0.00  0.00    -0.349 N 
ATOM     19  C   UNL     1      12.651  11.753  21.197  0.00  0.00    -0.008 A 
ATOM     21  C   UNL     1      13.350  11.792  19.959  0.00  0.00    +0.004 A 
ATOM     22  C   UNL     1      11.934  12.922  21.312  0.00  0.00    +0.091 A 
ATOM     23  C   UNL     1      13.031  13.006  19.346  0.00  0.00    +0.049 A 
ATOM     24  C   UNL     1      14.225  10.908  19.298  0.00  0.00    +0.010 A 
ATOM     25  C   UNL     1      13.547  13.382  18.102  0.00  0.00    +0.026 A 
ATOM     27  C   UNL     1      11.589  14.973  19.942  0.00  0.00    +0.149 C 
ATOM     28  C   UNL     1      14.749  11.271  18.052  0.00  0.00    +0.001 A 
ATOM     29  C   UNL     1      14.414  12.489  17.464  0.00  0.00    +0.002 A 
ENDBRANCH  18  19
ENDBRANCH   5  18
ENDBRANCH  10   5
BRANCH  12  16
ATOM     16  C   UNL     1      15.943   6.589  21.211  0.00  0.00    +0.029 C 
BRANCH  16  17
ATOM     17  C   UNL     1      17.290   6.544  20.503  0.00  0.00    +0.097 C 
BRANCH  17  20
ATOM      3  O   UNL     1      19.459   7.497  21.001  0.00  0.00    -0.276 OA
ATOM      8  N   UNL     1      17.549   8.737  21.452  0.00  0.00    -0.311 N 
ATOM     20  C   UNL     1      18.237   7.620  21.002  0.00  0.00    +0.213 C 
ATOM     38  H   UNL     1      16.533   8.746  21.444  0.00  0.00    +0.149 HD
BRANCH   8  26
ATOM     26  C   UNL     1      18.225   9.898  21.978  0.00  0.00    +0.139 C 
BRANCH  26  30
ATOM      1  F   UNL     1      16.097  14.688  19.922  0.00  0.00    -0.205 F 
ATOM     30  C   UNL     1      17.658  11.175  21.429  0.00  0.00    -0.030 A 
ATOM     31  C   UNL     1      16.714  11.892  22.166  0.00  0.00    +0.008 A 
ATOM     32  C   UNL     1      18.073  11.645  20.184  0.00  0.00    +0.008 A 
ATOM     33  C   UNL     1      16.187  13.078  21.657  0.00  0.00    +0.038 A 
ATOM     34  C   UNL     1      17.546  12.832  19.674  0.00  0.00    +0.038 A 
ATOM     35  C   UNL     1      16.603  13.549  20.411  0.00  0.00    +0.123 A 
ENDBRANCH  26  30
ENDBRANCH   8  26
ENDBRANCH  17  20
ENDBRANCH  16  17
ENDBRANCH  12  16
TORSDOF 8
ENDMDL
MODEL 4
REMARK VINA RESULT:      -8.0     27.485     31.463
REMARK  Name = 45360656
REMARK  9 active torsions:
REMARK  status: ('A' for Active; 'I' for Inactive)
REMARK    1  A    between atoms: N_5  and  C_10
REMARK    2  A    between atoms: N_5  and  C_18
REMARK    3  A    between atoms: N_7  and  C_27
REMARK    4  A    between atoms: N_8  and  C_26
REMARK    5  A    between atoms: C_12  and  C_16
REMARK    6  A    between atoms: C_16  and  C_17
REMARK    7  A    between atoms: C_17  and  C_20
REMARK    8  A    between atoms: C_18  and  C_19
REMARK    9  A    between atoms: C_26  and  C_30
REMARK                            x       y       z     vdW  Elec       q    Type
REMARK                         _______ _______ _______ _____ _____    ______ ____
ROOT
ATOM      2  O   UNL     1      12.417  14.511  22.677  0.00  0.00    -0.274 OA
ATOM      4  N   UNL     1      12.809  10.966  23.452  0.00  0.00    -0.286 NA
ATOM      6  N   UNL     1      11.473  12.693  21.690  0.00  0.00    -0.313 N 
ATOM      9  C   UNL     1      12.851  12.405  23.743  0.00  0.00    +0.145 C 
ATOM     10  C   UNL     1      15.055  11.386  23.681  0.00  0.00    +0.070 C 
ATOM     11  C   UNL     1      14.343  12.716  23.934  0.00  0.00    +0.048 C 
ATOM     12  C   UNL     1      11.575  10.517  22.819  0.00  0.00    +0.075 C 
ATOM     13  C   UNL     1      14.072  10.621  22.804  0.00  0.00    +0.104 C 
ATOM     14  C   UNL     1      11.332  11.265  21.518  0.00  0.00    +0.123 C 
ATOM     15  C   UNL     1      12.252  13.288  22.652  0.00  0.00    +0.230 C 
ATOM     37  H   UNL     1      11.062  13.294  20.982  0.00  0.00    +0.149 HD
ENDROOT
BRANCH  10   5
ATOM      5  N   UNL     1      16.367  11.547  23.077  0.00  0.00    -0.308 NA
ATOM     36  H   UNL     1      16.638  12.528  23.127  0.00  0.00    +0.123 HD
BRANCH   5  18
ATOM     18  C   UNL     1      16.353  11.131  21.680  0.00  0.00    +0.118 C 
BRANCH  18  19
ATOM      7  N   UNL     1      18.787   8.381  21.525  0.00  0.00    -0.349 N 
ATOM     19  C   UNL     1      17.148   9.875  21.459  0.00  0.00    -0.008 A 
ATOM     21  C   UNL     1      16.737   8.732  20.718  0.00  0.00    +0.004 A 
ATOM     22  C   UNL     1      18.412   9.630  21.943  0.00  0.00    +0.091 A 
ATOM     23  C   UNL     1      17.784   7.809  20.774  0.00  0.00    +0.049 A 
ATOM     24  C   UNL     1      15.572   8.393  20.001  0.00  0.00    +0.010 A 
ATOM     25  C   UNL     1      17.723   6.560  20.148  0.00  0.00    +0.026 A 
ATOM     27  C   UNL     1      20.060   7.766  21.833  0.00  0.00    +0.149 C 
ATOM     28  C   UNL     1      15.497   7.147  19.371  0.00  0.00    +0.001 A 
ATOM     29  C   UNL     1      16.557   6.245  19.444  0.00  0.00    +0.002 A 
ENDBRANCH  18  19
ENDBRANCH   5  18
ENDBRANCH  10   5
BRANCH  12  16
ATOM     16  C   UNL     1      11.538   9.004  22.596  0.00  0.00    +0.029 C 
BRANCH  16  17
ATOM     17  C   UNL     1      10.554   8.635  21.494  0.00  0.00    +0.097 C 
BRANCH  17  20
ATOM      3  O   UNL     1      11.483   6.658  20.451  0.00  0.00    -0.276 OA
ATOM      8  N   UNL     1      11.477   8.659  19.274  0.00  0.00    -0.311 N 
ATOM     20  C   UNL     1      11.217   7.854  20.373  0.00  0.00    +0.213 C 
ATOM     38  H   UNL     1      11.250   9.649  19.303  0.00  0.00    +0.149 HD
BRANCH   8  26
ATOM     26  C   UNL     1      12.105   8.151  18.078  0.00  0.00    +0.139 C 
BRANCH  26  30
ATOM      1  F   UNL     1      15.509  11.957  15.707  0.00  0.00    -0.205 F 
ATOM     30  C   UNL     1      13.013   9.166  17.446  0.00  0.00    -0.030 A 
ATOM     31  C   UNL     1      13.207  10.404  18.057  0.00  0.00    +0.008 A 
ATOM     32  C   UNL     1      13.661   8.871  16.247  0.00  0.00    +0.008 A 
ATOM     33  C   UNL     1      14.050  11.347  17.471  0.00  0.00    +0.038 A 
ATOM     34  C   UNL     1      14.505   9.814  15.659  0.00  0.00    +0.038 A 
ATOM     35  C   UNL     1      14.700  11.052  16.272  0.00  0.00    +0.123 A 
ENDBRANCH  26  30
ENDBRANCH   8  26
ENDBRANCH  17  20
ENDBRANCH  16  17
ENDBRANCH  12  16
TORSDOF 8
ENDMDL
MODEL 5
REMARK VINA RESULT:      -7.9     28.256     31.874
REMARK  Name = 45360656
REMARK  9 active torsions:
REMARK  status: ('A' for Active; 'I' for Inactive)
REMARK    1  A    between atoms: N_5  and  C_10
REMARK    2  A    between atoms: N_5  and  C_18
REMARK    3  A    between atoms: N_7  and  C_27
REMARK    4  A    between atoms: N_8  and  C_26
REMARK    5  A    between atoms: C_12  and  C_16
REMARK    6  A    between atoms: C_16  and  C_17
REMARK    7  A    between atoms: C_17  and  C_20
REMARK    8  A    between atoms: C_18  and  C_19
REMARK    9  A    between atoms: C_26  and  C_30
REMARK                            x       y       z     vdW  Elec       q    Type
REMARK                         _______ _______ _______ _____ _____    ______ ____
ROOT
ATOM      2  O   UNL     1      11.345   8.087  18.093  0.00  0.00    -0.274 OA
ATOM      4  N   UNL     1      13.422   6.907  20.853  0.00  0.00    -0.286 NA
ATOM      6  N   UNL     1      13.599   8.200  18.369  0.00  0.00    -0.313 N 
ATOM      9  C   UNL     1      12.217   6.941  20.013  0.00  0.00    +0.145 C 
ATOM     10  C   UNL     1      11.826   7.764  22.264  0.00  0.00    +0.070 C 
ATOM     11  C   UNL     1      11.117   7.482  20.939  0.00  0.00    +0.048 C 
ATOM     12  C   UNL     1      14.672   6.840  20.107  0.00  0.00    +0.075 C 
ATOM     13  C   UNL     1      13.279   7.962  21.853  0.00  0.00    +0.104 C 
ATOM     14  C   UNL     1      14.798   8.021  19.156  0.00  0.00    +0.123 C 
ATOM     15  C   UNL     1      12.343   7.806  18.763  0.00  0.00    +0.230 C 
ATOM     37  H   UNL     1      13.672   8.757  17.523  0.00  0.00    +0.149 HD
ENDROOT
BRANCH  10   5
ATOM      5  N   UNL     1      11.267   8.899  22.980  0.00  0.00    -0.308 NA
ATOM     36  H   UNL     1      10.553   8.565  23.628  0.00  0.00    +0.123 HD
BRANCH   5  18
ATOM     18  C   UNL     1      10.660   9.850  22.059  0.00  0.00    +0.118 C 
BRANCH  18  19
ATOM      7  N   UNL     1      12.538  12.976  21.595  0.00  0.00    -0.349 N 
ATOM     19  C   UNL     1      11.320  11.198  22.126  0.00  0.00    -0.008 A 
ATOM     21  C   UNL     1      11.219  12.139  23.188  0.00  0.00    +0.004 A 
ATOM     22  C   UNL     1      12.138  11.740  21.161  0.00  0.00    +0.091 A 
ATOM     23  C   UNL     1      11.992  13.246  22.830  0.00  0.00    +0.049 A 
ATOM     24  C   UNL     1      10.542  12.156  24.423  0.00  0.00    +0.010 A 
ATOM     25  C   UNL     1      12.122  14.373  23.649  0.00  0.00    +0.026 A 
ATOM     27  C   UNL     1      13.412  13.858  20.852  0.00  0.00    +0.149 C 
ATOM     28  C   UNL     1      10.662  13.276  25.252  0.00  0.00    +0.001 A 
ATOM     29  C   UNL     1      11.440  14.367  24.870  0.00  0.00    +0.002 A 
ENDBRANCH  18  19
ENDBRANCH   5  18
ENDBRANCH  10   5
BRANCH  12  16
ATOM     16  C   UNL     1      15.900   6.735  21.014  0.00  0.00    +0.029 C 
BRANCH  16  17
ATOM     17  C   UNL     1      17.153   7.227  20.302  0.00  0.00    +0.097 C 
BRANCH  17  20
ATOM      3  O   UNL     1      17.647   5.576  18.601  0.00  0.00    -0.276 OA
ATOM      8  N   UNL     1      19.014   5.714  20.473  0.00  0.00    -0.311 N 
ATOM     20  C   UNL     1      17.941   6.089  19.678  0.00  0.00    +0.213 C 
ATOM     38  H   UNL     1      19.170   6.173  21.366  0.00  0.00    +0.149 HD
BRANCH   8  26
ATOM     26  C   UNL     1      19.916   4.652  20.098  0.00  0.00    +0.139 C 
BRANCH  26  30
ATOM      1  F   UNL     1      24.998   5.285  22.436  0.00  0.00    -0.205 F 
ATOM     30  C   UNL     1      21.271   4.821  20.721  0.00  0.00    -0.030 A 
ATOM     31  C   UNL     1      22.024   5.964  20.454  0.00  0.00    +0.008 A 
ATOM     32  C   UNL     1      21.778   3.834  21.567  0.00  0.00    +0.008 A 
ATOM     33  C   UNL     1      23.283   6.121  21.033  0.00  0.00    +0.038 A 
ATOM     34  C   UNL     1      23.037   3.991  22.147  0.00  0.00    +0.038 A 
ATOM     35  C   UNL     1      23.790   5.135  21.880  0.00  0.00    +0.123 A 
ENDBRANCH  26  30
ENDBRANCH   8  26
ENDBRANCH  17  20
ENDBRANCH  16  17
ENDBRANCH  12  16
TORSDOF 8
ENDMDL
MODEL 6
REMARK VINA RESULT:      -7.9     28.130     31.689
REMARK  Name = 45360656
REMARK  9 active torsions:
REMARK  status: ('A' for Active; 'I' for Inactive)
REMARK    1  A    between atoms: N_5  and  C_10
REMARK    2  A    between atoms: N_5  and  C_18
REMARK    3  A    between atoms: N_7  and  C_27
REMARK    4  A    between atoms: N_8  and  C_26
REMARK    5  A    between atoms: C_12  and  C_16
REMARK    6  A    between atoms: C_16  and  C_17
REMARK    7  A    between atoms: C_17  and  C_20
REMARK    8  A    between atoms: C_18  and  C_19
REMARK    9  A    between atoms: C_26  and  C_30
REMARK                            x       y       z     vdW  Elec       q    Type
REMARK                         _______ _______ _______ _____ _____    ______ ____
ROOT
ATOM      2  O   UNL     1      11.017   8.451  18.109  0.00  0.00    -0.274 OA
ATOM      4  N   UNL     1      13.108   7.138  20.798  0.00  0.00    -0.286 NA
ATOM      6  N   UNL     1      13.274   8.195  18.204  0.00  0.00    -0.313 N 
ATOM      9  C   UNL     1      11.855   7.317  20.051  0.00  0.00    +0.145 C 
ATOM     10  C   UNL     1      11.807   8.358  22.244  0.00  0.00    +0.070 C 
ATOM     11  C   UNL     1      10.946   8.106  21.006  0.00  0.00    +0.048 C 
ATOM     12  C   UNL     1      14.259   6.803  19.968  0.00  0.00    +0.075 C 
ATOM     13  C   UNL     1      13.231   8.273  21.709  0.00  0.00    +0.104 C 
ATOM     14  C   UNL     1      14.492   7.871  18.911  0.00  0.00    +0.123 C 
ATOM     15  C   UNL     1      12.011   8.053  18.724  0.00  0.00    +0.230 C 
ATOM     37  H   UNL     1      13.363   8.668  17.309  0.00  0.00    +0.149 HD
ENDROOT
BRANCH  10   5
ATOM      5  N   UNL     1      11.509   9.622  22.899  0.00  0.00    -0.308 NA
ATOM     36  H   UNL     1      10.673  10.026  22.476  0.00  0.00    +0.123 HD
BRANCH   5  18
ATOM     18  C   UNL     1      12.614  10.560  22.751  0.00  0.00    +0.118 C 
BRANCH  18  19
ATOM      7  N   UNL     1      13.109  12.835  25.595  0.00  0.00    -0.349 N 
ATOM     19  C   UNL     1      12.589  11.629  23.806  0.00  0.00    -0.008 A 
ATOM     21  C   UNL     1      11.666  12.708  23.898  0.00  0.00    +0.004 A 
ATOM     22  C   UNL     1      13.464  11.733  24.863  0.00  0.00    +0.091 A 
ATOM     23  C   UNL     1      12.014  13.449  25.029  0.00  0.00    +0.049 A 
ATOM     24  C   UNL     1      10.565  13.125  23.126  0.00  0.00    +0.010 A 
ATOM     25  C   UNL     1      11.314  14.593  25.428  0.00  0.00    +0.026 A 
ATOM     27  C   UNL     1      13.795  13.275  26.791  0.00  0.00    +0.149 C 
ATOM     28  C   UNL     1       9.855  14.267  23.512  0.00  0.00    +0.001 A 
ATOM     29  C   UNL     1      10.224  14.988  24.645  0.00  0.00    +0.002 A 
ENDBRANCH  18  19
ENDBRANCH   5  18
ENDBRANCH  10   5
BRANCH  12  16
ATOM     16  C   UNL     1      15.527   6.556  20.786  0.00  0.00    +0.029 C 
BRANCH  16  17
ATOM     17  C   UNL     1      16.766   6.581  19.900  0.00  0.00    +0.097 C 
BRANCH  17  20
ATOM      3  O   UNL     1      17.948   8.298  21.131  0.00  0.00    -0.276 OA
ATOM      8  N   UNL     1      19.058   6.335  20.580  0.00  0.00    -0.311 N 
ATOM     20  C   UNL     1      17.964   7.187  20.608  0.00  0.00    +0.213 C 
ATOM     38  H   UNL     1      18.996   5.442  20.100  0.00  0.00    +0.149 HD
BRANCH   8  26
ATOM     26  C   UNL     1      20.321   6.683  21.186  0.00  0.00    +0.139 C 
BRANCH  26  30
ATOM      1  F   UNL     1      23.216   2.129  22.791  0.00  0.00    -0.205 F 
ATOM     30  C   UNL     1      21.093   5.469  21.613  0.00  0.00    -0.030 A 
ATOM     31  C   UNL     1      21.830   5.492  22.797  0.00  0.00    +0.008 A 
ATOM     32  C   UNL     1      21.074   4.317  20.827  0.00  0.00    +0.008 A 
ATOM     33  C   UNL     1      22.547   4.365  23.196  0.00  0.00    +0.038 A 
ATOM     34  C   UNL     1      21.791   3.188  21.225  0.00  0.00    +0.038 A 
ATOM     35  C   UNL     1      22.527   3.212  22.410  0.00  0.00    +0.123 A 
ENDBRANCH  26  30
ENDBRANCH   8  26
ENDBRANCH  17  20
ENDBRANCH  16  17
ENDBRANCH  12  16
TORSDOF 8
ENDMDL
MODEL 7
REMARK VINA RESULT:      -7.8     18.182     21.382
REMARK  Name = 45360656
REMARK  9 active torsions:
REMARK  status: ('A' for Active; 'I' for Inactive)
REMARK    1  A    between atoms: N_5  and  C_10
REMARK    2  A    between atoms: N_5  and  C_18
REMARK    3  A    between atoms: N_7  and  C_27
REMARK    4  A    between atoms: N_8  and  C_26
REMARK    5  A    between atoms: C_12  and  C_16
REMARK    6  A    between atoms: C_16  and  C_17
REMARK    7  A    between atoms: C_17  and  C_20
REMARK    8  A    between atoms: C_18  and  C_19
REMARK    9  A    between atoms: C_26  and  C_30
REMARK                            x       y       z     vdW  Elec       q    Type
REMARK                         _______ _______ _______ _____ _____    ______ ____
ROOT
ATOM      2  O   UNL     1      -7.237 -12.217  20.007  0.00  0.00    -0.274 OA
ATOM      4  N   UNL     1      -5.468 -10.597  17.255  0.00  0.00    -0.286 NA
ATOM      6  N   UNL     1      -5.929 -13.125  18.383  0.00  0.00    -0.313 N 
ATOM      9  C   UNL     1      -6.126 -10.650  18.567  0.00  0.00    +0.145 C 
ATOM     10  C   UNL     1      -7.358  -9.332  16.941  0.00  0.00    +0.070 C 
ATOM     11  C   UNL     1      -7.384  -9.784  18.402  0.00  0.00    +0.048 C 
ATOM     12  C   UNL     1      -4.501 -11.664  17.025  0.00  0.00    +0.075 C 
ATOM     13  C   UNL     1      -6.515 -10.400  16.256  0.00  0.00    +0.104 C 
ATOM     14  C   UNL     1      -5.157 -13.028  17.165  0.00  0.00    +0.123 C 
ATOM     15  C   UNL     1      -6.496 -12.056  19.032  0.00  0.00    +0.230 C 
ATOM     37  H   UNL     1      -6.167 -14.055  18.715  0.00  0.00    +0.149 HD
ENDROOT
BRANCH  10   5
ATOM      5  N   UNL     1      -8.685  -9.184  16.366  0.00  0.00    -0.308 NA
ATOM     36  H   UNL     1      -8.596  -8.858  15.404  0.00  0.00    +0.123 HD
BRANCH   5  18
ATOM     18  C   UNL     1      -9.476  -8.220  17.120  0.00  0.00    +0.118 C 
BRANCH  18  19
ATOM      7  N   UNL     1     -13.065  -8.882  16.683  0.00  0.00    -0.349 N 
ATOM     19  C   UNL     1     -10.923  -8.618  17.197  0.00  0.00    -0.008 A 
ATOM     21  C   UNL     1     -11.552  -9.320  18.263  0.00  0.00    +0.004 A 
ATOM     22  C   UNL     1     -11.878  -8.362  16.241  0.00  0.00    +0.091 A 
ATOM     23  C   UNL     1     -12.896  -9.473  17.915  0.00  0.00    +0.049 A 
ATOM     24  C   UNL     1     -11.107  -9.841  19.493  0.00  0.00    +0.010 A 
ATOM     25  C   UNL     1     -13.820 -10.124  18.739  0.00  0.00    +0.026 A 
ATOM     27  C   UNL     1     -14.311  -8.810  15.949  0.00  0.00    +0.149 C 
ATOM     28  C   UNL     1     -12.020 -10.495  20.328  0.00  0.00    +0.001 A 
ATOM     29  C   UNL     1     -13.355 -10.633  19.955  0.00  0.00    +0.002 A 
ENDBRANCH  18  19
ENDBRANCH   5  18
ENDBRANCH  10   5
BRANCH  12  16
ATOM     16  C   UNL     1      -3.785 -11.536  15.680  0.00  0.00    +0.029 C 
BRANCH  16  17
ATOM     17  C   UNL     1      -2.356 -11.040  15.862  0.00  0.00    +0.097 C 
BRANCH  17  20
ATOM      3  O   UNL     1      -0.974  -9.499  14.607  0.00  0.00    -0.276 OA
ATOM      8  N   UNL     1      -2.357 -10.968  13.459  0.00  0.00    -0.311 N 
ATOM     20  C   UNL     1      -1.805 -10.404  14.599  0.00  0.00    +0.213 C 
ATOM     38  H   UNL     1      -3.062 -11.696  13.542  0.00  0.00    +0.149 HD
BRANCH   8  26
ATOM     26  C   UNL     1      -1.996 -10.534  12.131  0.00  0.00    +0.139 C 
BRANCH  26  30
ATOM      1  F   UNL     1      -6.406  -8.444   9.326  0.00  0.00    -0.205 F 
ATOM     30  C   UNL     1      -3.171  -9.977  11.383  0.00  0.00    -0.030 A 
ATOM     31  C   UNL     1      -4.458 -10.117  11.902  0.00  0.00    +0.008 A 
ATOM     32  C   UNL     1      -2.977  -9.319  10.169  0.00  0.00    +0.008 A 
ATOM     33  C   UNL     1      -5.551  -9.600  11.208  0.00  0.00    +0.038 A 
ATOM     34  C   UNL     1      -4.070  -8.800   9.473  0.00  0.00    +0.038 A 
ATOM     35  C   UNL     1      -5.357  -8.941   9.994  0.00  0.00    +0.123 A 
ENDBRANCH  26  30
ENDBRANCH   8  26
ENDBRANCH  17  20
ENDBRANCH  16  17
ENDBRANCH  12  16
TORSDOF 8
ENDMDL
MODEL 8
REMARK VINA RESULT:      -7.8     27.347     31.236
REMARK  Name = 45360656
REMARK  9 active torsions:
REMARK  status: ('A' for Active; 'I' for Inactive)
REMARK    1  A    between atoms: N_5  and  C_10
REMARK    2  A    between atoms: N_5  and  C_18
REMARK    3  A    between atoms: N_7  and  C_27
REMARK    4  A    between atoms: N_8  and  C_26
REMARK    5  A    between atoms: C_12  and  C_16
REMARK    6  A    between atoms: C_16  and  C_17
REMARK    7  A    between atoms: C_17  and  C_20
REMARK    8  A    between atoms: C_18  and  C_19
REMARK    9  A    between atoms: C_26  and  C_30
REMARK                            x       y       z     vdW  Elec       q    Type
REMARK                         _______ _______ _______ _____ _____    ______ ____
ROOT
ATOM      2  O   UNL     1      14.752  10.364  15.592  0.00  0.00    -0.274 OA
ATOM      4  N   UNL     1      13.349   9.753  18.906  0.00  0.00    -0.286 NA
ATOM      6  N   UNL     1      13.817   8.478  16.451  0.00  0.00    -0.313 N 
ATOM      9  C   UNL     1      13.778  10.586  17.774  0.00  0.00    +0.145 C 
ATOM     10  C   UNL     1      15.156  10.891  19.750  0.00  0.00    +0.070 C 
ATOM     11  C   UNL     1      14.971  11.388  18.316  0.00  0.00    +0.048 C 
ATOM     12  C   UNL     1      12.525   8.611  18.532  0.00  0.00    +0.075 C 
ATOM     13  C   UNL     1      14.531   9.503  19.727  0.00  0.00    +0.104 C 
ATOM     14  C   UNL     1      13.257   7.716  17.544  0.00  0.00    +0.123 C 
ATOM     15  C   UNL     1      14.177   9.801  16.528  0.00  0.00    +0.230 C 
ATOM     37  H   UNL     1      14.069   7.972  15.607  0.00  0.00    +0.149 HD
ENDROOT
BRANCH  10   5
ATOM      5  N   UNL     1      16.544  10.895  20.181  0.00  0.00    -0.308 NA
ATOM     36  H   UNL     1      17.096  10.339  19.527  0.00  0.00    +0.123 HD
BRANCH   5  18
ATOM     18  C   UNL     1      16.679  10.326  21.516  0.00  0.00    +0.118 C 
BRANCH  18  19
ATOM      7  N   UNL     1      19.947   8.801  22.225  0.00  0.00    -0.349 N 
ATOM     19  C   UNL     1      17.916   9.485  21.647  0.00  0.00    -0.008 A 
ATOM     21  C   UNL     1      18.134   8.201  21.072  0.00  0.00    +0.004 A 
ATOM     22  C   UNL     1      19.049   9.827  22.349  0.00  0.00    +0.091 A 
ATOM     23  C   UNL     1      19.415   7.795  21.450  0.00  0.00    +0.049 A 
ATOM     24  C   UNL     1      17.361   7.345  20.264  0.00  0.00    +0.010 A 
ATOM     25  C   UNL     1      19.964   6.569  21.059  0.00  0.00    +0.026 A 
ATOM     27  C   UNL     1      21.264   8.793  22.826  0.00  0.00    +0.149 C 
ATOM     28  C   UNL     1      17.897   6.115  19.866  0.00  0.00    +0.001 A 
ATOM     29  C   UNL     1      19.178   5.735  20.258  0.00  0.00    +0.002 A 
ENDBRANCH  18  19
ENDBRANCH   5  18
ENDBRANCH  10   5
BRANCH  12  16
ATOM     16  C   UNL     1      12.039   7.809  19.741  0.00  0.00    +0.029 C 
BRANCH  16  17
ATOM     17  C   UNL     1      10.806   8.448  20.365  0.00  0.00    +0.097 C 
BRANCH  17  20
ATOM      3  O   UNL     1      10.708   8.679  22.773  0.00  0.00    -0.276 OA
ATOM      8  N   UNL     1      11.898  10.242  21.535  0.00  0.00    -0.311 N 
ATOM     20  C   UNL     1      11.114   9.109  21.696  0.00  0.00    +0.213 C 
ATOM     38  H   UNL     1      12.168  10.545  20.603  0.00  0.00    +0.149 HD
BRANCH   8  26
ATOM     26  C   UNL     1      12.326  11.048  22.652  0.00  0.00    +0.139 C 
BRANCH  26  30
ATOM      1  F   UNL     1       8.828  15.356  23.605  0.00  0.00    -0.205 F 
ATOM     30  C   UNL     1      11.393  12.197  22.906  0.00  0.00    -0.030 A 
ATOM     31  C   UNL     1      10.865  12.398  24.181  0.00  0.00    +0.008 A 
ATOM     32  C   UNL     1      11.054  13.063  21.867  0.00  0.00    +0.008 A 
ATOM     33  C   UNL     1       9.999  13.464  24.418  0.00  0.00    +0.038 A 
ATOM     34  C   UNL     1      10.187  14.131  22.103  0.00  0.00    +0.038 A 
ATOM     35  C   UNL     1       9.660  14.331  23.379  0.00  0.00    +0.123 A 
ENDBRANCH  26  30
ENDBRANCH   8  26
ENDBRANCH  17  20
ENDBRANCH  16  17
ENDBRANCH  12  16
TORSDOF 8
ENDMDL
MODEL 9
REMARK VINA RESULT:      -7.8     28.651     32.417
REMARK  Name = 45360656
REMARK  9 active torsions:
REMARK  status: ('A' for Active; 'I' for Inactive)
REMARK    1  A    between atoms: N_5  and  C_10
REMARK    2  A    between atoms: N_5  and  C_18
REMARK    3  A    between atoms: N_7  and  C_27
REMARK    4  A    between atoms: N_8  and  C_26
REMARK    5  A    between atoms: C_12  and  C_16
REMARK    6  A    between atoms: C_16  and  C_17
REMARK    7  A    between atoms: C_17  and  C_20
REMARK    8  A    between atoms: C_18  and  C_19
REMARK    9  A    between atoms: C_26  and  C_30
REMARK                            x       y       z     vdW  Elec       q    Type
REMARK                         _______ _______ _______ _____ _____    ______ ____
ROOT
ATOM      2  O   UNL     1      13.839   7.416  17.546  0.00  0.00    -0.274 OA
ATOM      4  N   UNL     1      13.446   8.570  20.987  0.00  0.00    -0.286 NA
ATOM      6  N   UNL     1      12.123   7.092  19.003  0.00  0.00    -0.313 N 
ATOM      9  C   UNL     1      14.002   8.600  19.627  0.00  0.00    +0.145 C 
ATOM     10  C   UNL     1      15.642   7.985  21.309  0.00  0.00    +0.070 C 
ATOM     11  C   UNL     1      15.485   8.242  19.810  0.00  0.00    +0.048 C 
ATOM     12  C   UNL     1      11.993   8.454  21.039  0.00  0.00    +0.075 C 
ATOM     13  C   UNL     1      14.235   7.609  21.753  0.00  0.00    +0.104 C 
ATOM     14  C   UNL     1      11.525   7.202  20.314  0.00  0.00    +0.123 C 
ATOM     15  C   UNL     1      13.332   7.640  18.650  0.00  0.00    +0.230 C 
ATOM     37  H   UNL     1      11.676   6.470  18.335  0.00  0.00    +0.149 HD
ENDROOT
BRANCH  10   5
ATOM      5  N   UNL     1      16.636   6.968  21.612  0.00  0.00    -0.308 NA
ATOM     36  H   UNL     1      17.321   7.355  22.260  0.00  0.00    +0.123 HD
BRANCH   5  18
ATOM     18  C   UNL     1      17.323   6.533  20.402  0.00  0.00    +0.118 C 
BRANCH  18  19
ATOM      7  N   UNL     1      20.919   5.813  20.648  0.00  0.00    -0.349 N 
ATOM     19  C   UNL     1      18.815   6.514  20.579  0.00  0.00    -0.008 A 
ATOM     21  C   UNL     1      19.635   7.608  20.972  0.00  0.00    +0.004 A 
ATOM     22  C   UNL     1      19.632   5.424  20.387  0.00  0.00    +0.091 A 
ATOM     23  C   UNL     1      20.951   7.141  21.008  0.00  0.00    +0.049 A 
ATOM     24  C   UNL     1      19.384   8.954  21.302  0.00  0.00    +0.010 A 
ATOM     25  C   UNL     1      22.032   7.957  21.359  0.00  0.00    +0.026 A 
ATOM     27  C   UNL     1      22.069   4.938  20.558  0.00  0.00    +0.149 C 
ATOM     28  C   UNL     1      20.456   9.782  21.655  0.00  0.00    +0.001 A 
ATOM     29  C   UNL     1      21.759   9.289  21.682  0.00  0.00    +0.002 A 
ENDBRANCH  18  19
ENDBRANCH   5  18
ENDBRANCH  10   5
BRANCH  12  16
ATOM     16  C   UNL     1      11.446   8.497  22.467  0.00  0.00    +0.029 C 
BRANCH  16  17
ATOM     17  C   UNL     1      10.560   9.718  22.678  0.00  0.00    +0.097 C 
BRANCH  17  20
ATOM      3  O   UNL     1      10.958  12.043  22.137  0.00  0.00    -0.276 OA
ATOM      8  N   UNL     1      12.565  10.870  23.334  0.00  0.00    -0.311 N 
ATOM     20  C   UNL     1      11.354  11.011  22.672  0.00  0.00    +0.213 C 
ATOM     38  H   UNL     1      12.829   9.970  23.725  0.00  0.00    +0.149 HD
BRANCH   8  26
ATOM     26  C   UNL     1      13.503  11.959  23.465  0.00  0.00    +0.139 C 
BRANCH  26  30
ATOM      1  F   UNL     1      17.777  11.505  19.828  0.00  0.00    -0.205 F 
ATOM     30  C   UNL     1      14.642  11.838  22.495  0.00  0.00    -0.030 A 
ATOM     31  C   UNL     1      15.912  11.486  22.952  0.00  0.00    +0.008 A 
ATOM     32  C   UNL     1      14.431  12.079  21.137  0.00  0.00    +0.008 A 
ATOM     33  C   UNL     1      16.971  11.373  22.052  0.00  0.00    +0.038 A 
ATOM     34  C   UNL     1      15.490  11.966  20.236  0.00  0.00    +0.038 A 
ATOM     35  C   UNL     1      16.760  11.613  20.693  0.00  0.00    +0.123 A 
ENDBRANCH  26  30
ENDBRANCH   8  26
ENDBRANCH  17  20
ENDBRANCH  16  17
ENDBRANCH  12  16
TORSDOF 8
ENDMDL
MODEL 10
REMARK VINA RESULT:      -7.7     20.541     22.473
REMARK  Name = 45360656
REMARK  9 active torsions:
REMARK  status: ('A' for Active; 'I' for Inactive)
REMARK    1  A    between atoms: N_5  and  C_10
REMARK    2  A    between atoms: N_5  and  C_18
REMARK    3  A    between atoms: N_7  and  C_27
REMARK    4  A    between atoms: N_8  and  C_26
REMARK    5  A    between atoms: C_12  and  C_16
REMARK    6  A    between atoms: C_16  and  C_17
REMARK    7  A    between atoms: C_17  and  C_20
REMARK    8  A    between atoms: C_18  and  C_19
REMARK    9  A    between atoms: C_26  and  C_30
REMARK                            x       y       z     vdW  Elec       q    Type
REMARK                         _______ _______ _______ _____ _____    ______ ____
ROOT
ATOM      2  O   UNL     1      -7.633 -10.408  12.105  0.00  0.00    -0.274 OA
ATOM      4  N   UNL     1      -4.014  -9.985  11.880  0.00  0.00    -0.286 NA
ATOM      6  N   UNL     1      -5.966 -11.904  12.498  0.00  0.00    -0.313 N 
ATOM      9  C   UNL     1      -5.402  -9.526  12.025  0.00  0.00    +0.145 C 
ATOM     10  C   UNL     1      -4.389  -8.837   9.928  0.00  0.00    +0.070 C 
ATOM     11  C   UNL     1      -5.677  -8.724  10.744  0.00  0.00    +0.048 C 
ATOM     12  C   UNL     1      -3.660 -11.105  12.744  0.00  0.00    +0.075 C 
ATOM     13  C   UNL     1      -3.751 -10.118  10.450  0.00  0.00    +0.104 C 
ATOM     14  C   UNL     1      -4.574 -12.293  12.491  0.00  0.00    +0.123 C 
ATOM     15  C   UNL     1      -6.425 -10.647  12.188  0.00  0.00    +0.230 C 
ATOM     37  H   UNL     1      -6.658 -12.637  12.626  0.00  0.00    +0.149 HD
ENDROOT
BRANCH  10   5
ATOM      5  N   UNL     1      -4.621  -8.848   8.493  0.00  0.00    -0.308 NA
ATOM     36  H   UNL     1      -4.862  -7.905   8.188  0.00  0.00    +0.123 HD
BRANCH   5  18
ATOM     18  C   UNL     1      -5.713  -9.749   8.148  0.00  0.00    +0.118 C 
BRANCH  18  19
ATOM      7  N   UNL     1      -7.581  -8.654   5.178  0.00  0.00    -0.349 N 
ATOM     19  C   UNL     1      -6.633  -9.152   7.122  0.00  0.00    -0.008 A 
ATOM     21  C   UNL     1      -7.710  -8.256   7.370  0.00  0.00    +0.004 A 
ATOM     22  C   UNL     1      -6.578  -9.378   5.766  0.00  0.00    +0.091 A 
ATOM     23  C   UNL     1      -8.288  -7.959   6.134  0.00  0.00    +0.049 A 
ATOM     24  C   UNL     1      -8.250  -7.667   8.530  0.00  0.00    +0.010 A 
ATOM     25  C   UNL     1      -9.384  -7.100   6.000  0.00  0.00    +0.026 A 
ATOM     27  C   UNL     1      -7.845  -8.631   3.755  0.00  0.00    +0.149 C 
ATOM     28  C   UNL     1      -9.346  -6.806   8.411  0.00  0.00    +0.001 A 
ATOM     29  C   UNL     1      -9.903  -6.528   7.165  0.00  0.00    +0.002 A 
ENDBRANCH  18  19
ENDBRANCH   5  18
ENDBRANCH  10   5
BRANCH  12  16
ATOM     16  C   UNL     1      -2.190 -11.510  12.618  0.00  0.00    +0.029 C 
BRANCH  16  17
ATOM     17  C   UNL     1      -1.722 -12.273  13.850  0.00  0.00    +0.097 C 
BRANCH  17  20
ATOM      3  O   UNL     1      -0.970 -10.557  15.382  0.00  0.00    -0.276 OA
ATOM      8  N   UNL     1      -2.885 -11.766  15.892  0.00  0.00    -0.311 N 
ATOM     20  C   UNL     1      -1.792 -11.427  15.109  0.00  0.00    +0.213 C 
ATOM     38  H   UNL     1      -3.502 -12.521  15.606  0.00  0.00    +0.149 HD
BRANCH   8  26
ATOM     26  C   UNL     1      -3.170 -11.106  17.143  0.00  0.00    +0.139 C 
BRANCH  26  30
ATOM      1  F   UNL     1      -8.498  -9.307  17.407  0.00  0.00    -0.205 F 
ATOM     30  C   UNL     1      -4.591 -10.626  17.214  0.00  0.00    -0.030 A 
ATOM     31  C   UNL     1      -5.199 -10.080  16.084  0.00  0.00    +0.008 A 
ATOM     32  C   UNL     1      -5.303 -10.727  18.409  0.00  0.00    +0.008 A 
ATOM     33  C   UNL     1      -6.519  -9.634  16.148  0.00  0.00    +0.038 A 
ATOM     34  C   UNL     1      -6.623 -10.281  18.475  0.00  0.00    +0.038 A 
ATOM     35  C   UNL     1      -7.231  -9.735  17.344  0.00  0.00    +0.123 A 
ENDBRANCH  26  30
ENDBRANCH   8  26
ENDBRANCH  17  20
ENDBRANCH  16  17
ENDBRANCH  12  16
TORSDOF 8
ENDMDL
