MODEL 1
REMARK VINA RESULT:      -7.1      0.000      0.000
REMARK  Name = 51138113
REMARK  12 active torsions:
REMARK  status: ('A' for Active; 'I' for Inactive)
REMARK    1  A    between atoms: N_4  and  C_20
REMARK    2  A    between atoms: N_5  and  C_25
REMARK    3  A    between atoms: C_7  and  C_13
REMARK    4  A    between atoms: C_10  and  C_18
REMARK    5  A    between atoms: C_13  and  C_15
REMARK    6  A    between atoms: C_15  and  C_22
REMARK    7  A    between atoms: C_15  and  C_23
REMARK    8  A    between atoms: C_20  and  C_24
REMARK    9  A    between atoms: C_25  and  C_28
REMARK   10  A    between atoms: C_26  and  C_29
REMARK   11  A    between atoms: C_27  and  C_30
REMARK   12  A    between atoms: C_28  and  C_31
REMARK                            x       y       z     vdW  Elec       q    Type
REMARK                         _______ _______ _______ _____ _____    ______ ____
ROOT
ATOM      3  N   UNL     1      14.554   8.457  21.700  0.00  0.00    -0.299 NA
ATOM      4  N   UNL     1      19.401   7.229  20.992  0.00  0.00    -0.342 N 
ATOM      7  C   UNL     1      15.288   9.729  21.682  0.00  0.00    +0.085 C 
ATOM      8  C   UNL     1      16.816   9.620  21.664  0.00  0.00    -0.021 A 
ATOM      9  C   UNL     1      17.551   8.446  21.327  0.00  0.00    +0.008 A 
ATOM     10  C   UNL     1      14.736   7.633  20.513  0.00  0.00    +0.145 C 
ATOM     11  C   UNL     1      17.180   7.117  20.921  0.00  0.00    -0.020 A 
ATOM     12  C   UNL     1      15.807   6.565  20.731  0.00  0.00    +0.065 C 
ATOM     14  C   UNL     1      18.949   8.482  21.334  0.00  0.00    +0.050 A 
ATOM     16  C   UNL     1      18.346   6.402  20.737  0.00  0.00    +0.091 A 
ATOM     17  C   UNL     1      17.584  10.784  21.923  0.00  0.00    +0.006 A 
ATOM     19  C   UNL     1      19.687   9.627  21.638  0.00  0.00    +0.026 A 
ATOM     21  C   UNL     1      18.977  10.787  21.921  0.00  0.00    +0.002 A 
ATOM     32  H   UNL     1      14.757   7.932  22.549  0.00  0.00    +0.123 HD
ENDROOT
BRANCH  10  18
ATOM      1  O   UNL     1      13.011   6.679  19.167  0.00  0.00    -0.274 OA
ATOM      5  N   UNL     1      12.733   6.745  21.478  0.00  0.00    -0.314 N 
ATOM     18  C   UNL     1      13.413   6.964  20.292  0.00  0.00    +0.230 C 
ATOM     33  H   UNL     1      13.156   7.015  22.360  0.00  0.00    +0.149 HD
BRANCH   5  25
ATOM     25  C   UNL     1      11.424   6.135  21.536  0.00  0.00    +0.104 C 
BRANCH  25  28
ATOM     28  C   UNL     1      10.345   7.116  21.979  0.00  0.00    +0.015 C 
ATOM     31  C   UNL     1      10.918   8.426  22.499  0.00  0.00    +0.005 C 
ENDBRANCH  25  28
ENDBRANCH   5  25
ENDBRANCH  10  18
BRANCH   7  13
ATOM     13  C   UNL     1      14.766  10.497  22.910  0.00  0.00    +0.026 C 
BRANCH  13  15
ATOM     15  C   UNL     1      13.877  11.688  22.539  0.00  0.00    -0.015 C 
ATOM     22  C   UNL     1      12.615  11.664  23.403  0.00  0.00    +0.007 C 
ATOM     23  C   UNL     1      13.492  11.696  21.059  0.00  0.00    +0.007 C 
ENDBRANCH  13  15
ENDBRANCH   7  13
BRANCH   4  20
ATOM     20  C   UNL     1      20.789   6.832  20.893  0.00  0.00    +0.162 C 
BRANCH  20  24
ATOM      2  O   UNL     1      21.879   4.187  23.237  0.00  0.00    -0.359 OA
ATOM      6  N   UNL     1      21.890   5.272  24.105  0.00  0.00    -0.083 NA
ATOM     24  C   UNL     1      21.241   5.951  22.031  0.00  0.00    +0.037 A 
ATOM     26  C   UNL     1      21.491   4.604  22.004  0.00  0.00    +0.139 A 
ATOM     27  C   UNL     1      21.505   6.314  23.362  0.00  0.00    +0.086 A 
ATOM     29  C   UNL     1      21.425   3.574  20.959  0.00  0.00    +0.089 C 
ATOM     30  C   UNL     1      21.405   7.648  23.977  0.00  0.00    +0.069 C 
ENDBRANCH  20  24
ENDBRANCH   4  20
TORSDOF 7
ENDMDL
MODEL 2
REMARK VINA RESULT:      -6.8     17.978     20.338
REMARK  Name = 51138113
REMARK  12 active torsions:
REMARK  status: ('A' for Active; 'I' for Inactive)
REMARK    1  A    between atoms: N_4  and  C_20
REMARK    2  A    between atoms: N_5  and  C_25
REMARK    3  A    between atoms: C_7  and  C_13
REMARK    4  A    between atoms: C_10  and  C_18
REMARK    5  A    between atoms: C_13  and  C_15
REMARK    6  A    between atoms: C_15  and  C_22
REMARK    7  A    between atoms: C_15  and  C_23
REMARK    8  A    between atoms: C_20  and  C_24
REMARK    9  A    between atoms: C_25  and  C_28
REMARK   10  A    between atoms: C_26  and  C_29
REMARK   11  A    between atoms: C_27  and  C_30
REMARK   12  A    between atoms: C_28  and  C_31
REMARK                            x       y       z     vdW  Elec       q    Type
REMARK                         _______ _______ _______ _____ _____    ______ ____
ROOT
ATOM      3  N   UNL     1      11.917   6.107   5.563  0.00  0.00    -0.299 NA
ATOM      4  N   UNL     1      12.484   5.108   0.646  0.00  0.00    -0.342 N 
ATOM      7  C   UNL     1      12.682   7.234   5.015  0.00  0.00    +0.085 C 
ATOM      8  C   UNL     1      13.148   7.083   3.563  0.00  0.00    -0.021 A 
ATOM      9  C   UNL     1      12.631   6.138   2.629  0.00  0.00    +0.008 A 
ATOM     10  C   UNL     1      10.639   5.862   4.909  0.00  0.00    +0.145 C 
ATOM     11  C   UNL     1      11.612   5.125   2.693  0.00  0.00    -0.020 A 
ATOM     12  C   UNL     1      10.750   4.763   3.855  0.00  0.00    +0.065 C 
ATOM     14  C   UNL     1      13.135   6.112   1.324  0.00  0.00    +0.050 A 
ATOM     16  C   UNL     1      11.563   4.513   1.457  0.00  0.00    +0.091 A 
ATOM     17  C   UNL     1      14.113   7.993   3.061  0.00  0.00    +0.006 A 
ATOM     19  C   UNL     1      14.119   6.987   0.863  0.00  0.00    +0.026 A 
ATOM     21  C   UNL     1      14.593   7.941   1.754  0.00  0.00    +0.002 A 
ATOM     32  H   UNL     1      12.484   5.261   5.591  0.00  0.00    +0.123 HD
ENDROOT
BRANCH  10  18
ATOM      1  O   UNL     1       8.524   5.686   6.001  0.00  0.00    -0.274 OA
ATOM      5  N   UNL     1      10.383   4.677   6.973  0.00  0.00    -0.314 N 
ATOM     18  C   UNL     1       9.720   5.405   6.001  0.00  0.00    +0.230 C 
ATOM     33  H   UNL     1      11.377   4.495   6.878  0.00  0.00    +0.149 HD
BRANCH   5  25
ATOM     25  C   UNL     1       9.727   4.141   8.144  0.00  0.00    +0.104 C 
BRANCH  25  28
ATOM     28  C   UNL     1       9.607   5.168   9.264  0.00  0.00    +0.015 C 
ATOM     31  C   UNL     1       8.749   4.678  10.421  0.00  0.00    +0.005 C 
ENDBRANCH  25  28
ENDBRANCH   5  25
ENDBRANCH  10  18
BRANCH   7  13
ATOM     13  C   UNL     1      13.854   7.423   5.994  0.00  0.00    +0.026 C 
BRANCH  13  15
ATOM     15  C   UNL     1      13.802   8.760   6.740  0.00  0.00    -0.015 C 
ATOM     22  C   UNL     1      12.394   9.348   6.623  0.00  0.00    +0.007 C 
ATOM     23  C   UNL     1      14.828   9.766   6.218  0.00  0.00    +0.007 C 
ENDBRANCH  13  15
ENDBRANCH   7  13
BRANCH   4  20
ATOM     20  C   UNL     1      12.715   4.738  -0.735  0.00  0.00    +0.162 C 
BRANCH  20  24
ATOM      2  O   UNL     1       9.413   4.476  -2.380  0.00  0.00    -0.359 OA
ATOM      6  N   UNL     1       9.923   3.225  -2.704  0.00  0.00    -0.083 NA
ATOM     24  C   UNL     1      11.450   4.385  -1.477  0.00  0.00    +0.037 A 
ATOM     26  C   UNL     1      10.332   5.158  -1.649  0.00  0.00    +0.139 A 
ATOM     27  C   UNL     1      11.140   3.194  -2.154  0.00  0.00    +0.086 A 
ATOM     29  C   UNL     1       9.951   6.511  -1.220  0.00  0.00    +0.089 C 
ATOM     30  C   UNL     1      11.976   1.991  -2.305  0.00  0.00    +0.069 C 
ENDBRANCH  20  24
ENDBRANCH   4  20
TORSDOF 7
ENDMDL
MODEL 3
REMARK VINA RESULT:      -6.7     28.026     30.229
REMARK  Name = 51138113
REMARK  12 active torsions:
REMARK  status: ('A' for Active; 'I' for Inactive)
REMARK    1  A    between atoms: N_4  and  C_20
REMARK    2  A    between atoms: N_5  and  C_25
REMARK    3  A    between atoms: C_7  and  C_13
REMARK    4  A    between atoms: C_10  and  C_18
REMARK    5  A    between atoms: C_13  and  C_15
REMARK    6  A    between atoms: C_15  and  C_22
REMARK    7  A    between atoms: C_15  and  C_23
REMARK    8  A    between atoms: C_20  and  C_24
REMARK    9  A    between atoms: C_25  and  C_28
REMARK   10  A    between atoms: C_26  and  C_29
REMARK   11  A    between atoms: C_27  and  C_30
REMARK   12  A    between atoms: C_28  and  C_31
REMARK                            x       y       z     vdW  Elec       q    Type
REMARK                         _______ _______ _______ _____ _____    ______ ____
ROOT
ATOM      3  N   UNL     1      -6.511 -10.753  16.930  0.00  0.00    -0.299 NA
ATOM      4  N   UNL     1      -3.747 -10.356  12.722  0.00  0.00    -0.342 N 
ATOM      7  C   UNL     1      -5.114 -10.669  17.378  0.00  0.00    +0.085 C 
ATOM      8  C   UNL     1      -4.053 -10.726  16.274  0.00  0.00    -0.021 A 
ATOM      9  C   UNL     1      -4.300 -10.514  14.887  0.00  0.00    +0.008 A 
ATOM     10  C   UNL     1      -6.950  -9.643  16.096  0.00  0.00    +0.145 C 
ATOM     11  C   UNL     1      -5.473 -10.196  14.118  0.00  0.00    -0.020 A 
ATOM     12  C   UNL     1      -6.865  -9.989  14.611  0.00  0.00    +0.065 C 
ATOM     14  C   UNL     1      -3.237 -10.580  13.979  0.00  0.00    +0.050 A 
ATOM     16  C   UNL     1      -5.088 -10.119  12.794  0.00  0.00    +0.091 A 
ATOM     17  C   UNL     1      -2.699 -10.928  16.644  0.00  0.00    +0.006 A 
ATOM     19  C   UNL     1      -1.917 -10.826  14.359  0.00  0.00    +0.026 A 
ATOM     21  C   UNL     1      -1.663 -10.988  15.715  0.00  0.00    +0.002 A 
ATOM     32  H   UNL     1      -6.695 -11.648  16.480  0.00  0.00    +0.123 HD
ENDROOT
BRANCH  10  18
ATOM      1  O   UNL     1      -8.940 -10.080  17.338  0.00  0.00    -0.274 OA
ATOM      5  N   UNL     1      -8.969  -8.417  15.709  0.00  0.00    -0.314 N 
ATOM     18  C   UNL     1      -8.384  -9.416  16.467  0.00  0.00    +0.230 C 
ATOM     33  H   UNL     1      -8.419  -7.923  15.014  0.00  0.00    +0.149 HD
BRANCH   5  25
ATOM     25  C   UNL     1     -10.351  -8.021  15.857  0.00  0.00    +0.104 C 
BRANCH  25  28
ATOM     28  C   UNL     1     -10.543  -6.516  15.712  0.00  0.00    +0.015 C 
ATOM     31  C   UNL     1     -11.977  -6.078  15.971  0.00  0.00    +0.005 C 
ENDBRANCH  25  28
ENDBRANCH   5  25
ENDBRANCH  10  18
BRANCH   7  13
ATOM     13  C   UNL     1      -4.964 -11.811  18.401  0.00  0.00    +0.026 C 
BRANCH  13  15
ATOM     15  C   UNL     1      -5.802 -11.596  19.665  0.00  0.00    -0.015 C 
ATOM     22  C   UNL     1      -7.094 -12.407  19.557  0.00  0.00    +0.007 C 
ATOM     23  C   UNL     1      -6.134 -10.123  19.908  0.00  0.00    +0.007 C 
ENDBRANCH  13  15
ENDBRANCH   7  13
BRANCH   4  20
ATOM     20  C   UNL     1      -2.983 -10.348  11.492  0.00  0.00    +0.162 C 
BRANCH  20  24
ATOM      2  O   UNL     1      -4.404 -12.824   9.141  0.00  0.00    -0.359 OA
ATOM      6  N   UNL     1      -4.704 -11.660   8.445  0.00  0.00    -0.083 NA
ATOM     24  C   UNL     1      -3.628 -11.144  10.385  0.00  0.00    +0.037 A 
ATOM     26  C   UNL     1      -3.763 -12.504  10.295  0.00  0.00    +0.139 A 
ATOM     27  C   UNL     1      -4.230 -10.670   9.208  0.00  0.00    +0.086 A 
ATOM     29  C   UNL     1      -3.372 -13.628  11.156  0.00  0.00    +0.089 C 
ATOM     30  C   UNL     1      -4.381  -9.274   8.763  0.00  0.00    +0.069 C 
ENDBRANCH  20  24
ENDBRANCH   4  20
TORSDOF 7
ENDMDL
MODEL 4
REMARK VINA RESULT:      -6.6      1.941      3.888
REMARK  Name = 51138113
REMARK  12 active torsions:
REMARK  status: ('A' for Active; 'I' for Inactive)
REMARK    1  A    between atoms: N_4  and  C_20
REMARK    2  A    between atoms: N_5  and  C_25
REMARK    3  A    between atoms: C_7  and  C_13
REMARK    4  A    between atoms: C_10  and  C_18
REMARK    5  A    between atoms: C_13  and  C_15
REMARK    6  A    between atoms: C_15  and  C_22
REMARK    7  A    between atoms: C_15  and  C_23
REMARK    8  A    between atoms: C_20  and  C_24
REMARK    9  A    between atoms: C_25  and  C_28
REMARK   10  A    between atoms: C_26  and  C_29
REMARK   11  A    between atoms: C_27  and  C_30
REMARK   12  A    between atoms: C_28  and  C_31
REMARK                            x       y       z     vdW  Elec       q    Type
REMARK                         _______ _______ _______ _____ _____    ______ ____
ROOT
ATOM      3  N   UNL     1      14.333   9.500  20.683  0.00  0.00    -0.299 NA
ATOM      4  N   UNL     1      19.196   8.272  21.268  0.00  0.00    -0.342 N 
ATOM      7  C   UNL     1      14.437   8.091  20.282  0.00  0.00    +0.085 C 
ATOM      8  C   UNL     1      15.858   7.524  20.195  0.00  0.00    -0.021 A 
ATOM      9  C   UNL     1      17.016   8.118  20.776  0.00  0.00    +0.008 A 
ATOM     10  C   UNL     1      14.806   9.788  22.030  0.00  0.00    +0.145 C 
ATOM     11  C   UNL     1      17.244   9.299  21.564  0.00  0.00    -0.020 A 
ATOM     12  C   UNL     1      16.242  10.306  22.021  0.00  0.00    +0.065 C 
ATOM     14  C   UNL     1      18.258   7.490  20.635  0.00  0.00    +0.050 A 
ATOM     16  C   UNL     1      18.597   9.358  21.834  0.00  0.00    +0.091 A 
ATOM     17  C   UNL     1      16.052   6.272  19.557  0.00  0.00    +0.006 A 
ATOM     19  C   UNL     1      18.435   6.280  19.962  0.00  0.00    +0.026 A 
ATOM     21  C   UNL     1      17.303   5.673  19.434  0.00  0.00    +0.002 A 
ATOM     32  H   UNL     1      14.780  10.107  19.997  0.00  0.00    +0.123 HD
ENDROOT
BRANCH  10  18
ATOM      1  O   UNL     1      13.372  11.681  21.792  0.00  0.00    -0.274 OA
ATOM      5  N   UNL     1      13.763  10.822  23.920  0.00  0.00    -0.314 N 
ATOM     18  C   UNL     1      13.898  10.864  22.543  0.00  0.00    +0.230 C 
ATOM     33  H   UNL     1      14.239  10.100  24.452  0.00  0.00    +0.149 HD
BRANCH   5  25
ATOM     25  C   UNL     1      12.960  11.765  24.664  0.00  0.00    +0.104 C 
BRANCH  25  28
ATOM     28  C   UNL     1      11.485  11.381  24.688  0.00  0.00    +0.015 C 
ATOM     31  C   UNL     1      10.562  12.584  24.572  0.00  0.00    +0.005 C 
ENDBRANCH  25  28
ENDBRANCH   5  25
ENDBRANCH  10  18
BRANCH   7  13
ATOM     13  C   UNL     1      13.686   8.010  18.941  0.00  0.00    +0.026 C 
BRANCH  13  15
ATOM     15  C   UNL     1      12.621   9.100  18.785  0.00  0.00    -0.015 C 
ATOM     22  C   UNL     1      11.269   8.555  19.249  0.00  0.00    +0.007 C 
ATOM     23  C   UNL     1      12.508   9.610  17.348  0.00  0.00    +0.007 C 
ENDBRANCH  13  15
ENDBRANCH   7  13
BRANCH   4  20
ATOM     20  C   UNL     1      20.613   7.987  21.349  0.00  0.00    +0.162 C 
BRANCH  20  24
ATOM      2  O   UNL     1      21.274   5.811  24.266  0.00  0.00    -0.359 OA
ATOM      6  N   UNL     1      21.594   4.921  23.247  0.00  0.00    -0.083 NA
ATOM     24  C   UNL     1      20.949   6.915  22.356  0.00  0.00    +0.037 A 
ATOM     26  C   UNL     1      20.891   6.995  23.722  0.00  0.00    +0.139 A 
ATOM     27  C   UNL     1      21.392   5.604  22.116  0.00  0.00    +0.086 A 
ATOM     29  C   UNL     1      20.516   8.055  24.667  0.00  0.00    +0.089 C 
ATOM     30  C   UNL     1      21.639   4.951  20.820  0.00  0.00    +0.069 C 
ENDBRANCH  20  24
ENDBRANCH   4  20
TORSDOF 7
ENDMDL
MODEL 5
REMARK VINA RESULT:      -6.6     18.546     20.681
REMARK  Name = 51138113
REMARK  12 active torsions:
REMARK  status: ('A' for Active; 'I' for Inactive)
REMARK    1  A    between atoms: N_4  and  C_20
REMARK    2  A    between atoms: N_5  and  C_25
REMARK    3  A    between atoms: C_7  and  C_13
REMARK    4  A    between atoms: C_10  and  C_18
REMARK    5  A    between atoms: C_13  and  C_15
REMARK    6  A    between atoms: C_15  and  C_22
REMARK    7  A    between atoms: C_15  and  C_23
REMARK    8  A    between atoms: C_20  and  C_24
REMARK    9  A    between atoms: C_25  and  C_28
REMARK   10  A    between atoms: C_26  and  C_29
REMARK   11  A    between atoms: C_27  and  C_30
REMARK   12  A    between atoms: C_28  and  C_31
REMARK                            x       y       z     vdW  Elec       q    Type
REMARK                         _______ _______ _______ _____ _____    ______ ____
ROOT
ATOM      3  N   UNL     1       9.811   7.461   4.208  0.00  0.00    -0.299 NA
ATOM      4  N   UNL     1      11.745   4.136   0.936  0.00  0.00    -0.342 N 
ATOM      7  C   UNL     1       9.238   7.810   2.902  0.00  0.00    +0.085 C 
ATOM      8  C   UNL     1       9.812   7.057   1.697  0.00  0.00    -0.021 A 
ATOM      9  C   UNL     1      10.575   5.856   1.767  0.00  0.00    +0.008 A 
ATOM     10  C   UNL     1       9.576   6.087   4.629  0.00  0.00    +0.145 C 
ATOM     11  C   UNL     1      11.014   5.013   2.846  0.00  0.00    -0.020 A 
ATOM     12  C   UNL     1      10.769   5.190   4.307  0.00  0.00    +0.065 C 
ATOM     14  C   UNL     1      11.031   5.258   0.587  0.00  0.00    +0.050 A 
ATOM     16  C   UNL     1      11.737   3.976   2.291  0.00  0.00    +0.091 A 
ATOM     17  C   UNL     1       9.510   7.530   0.394  0.00  0.00    +0.006 A 
ATOM     19  C   UNL     1      10.762   5.766  -0.685  0.00  0.00    +0.026 A 
ATOM     21  C   UNL     1       9.979   6.911  -0.762  0.00  0.00    +0.002 A 
ATOM     32  H   UNL     1      10.803   7.693   4.244  0.00  0.00    +0.123 HD
ENDROOT
BRANCH  10  18
ATOM      1  O   UNL     1       8.486   6.796   6.631  0.00  0.00    -0.274 OA
ATOM      5  N   UNL     1      10.381   5.451   6.792  0.00  0.00    -0.314 N 
ATOM     18  C   UNL     1       9.400   6.157   6.116  0.00  0.00    +0.230 C 
ATOM     33  H   UNL     1      11.093   4.951   6.271  0.00  0.00    +0.149 HD
BRANCH   5  25
ATOM     25  C   UNL     1      10.449   5.380   8.234  0.00  0.00    +0.104 C 
BRANCH  25  28
ATOM     28  C   UNL     1       9.600   4.248   8.801  0.00  0.00    +0.015 C 
ATOM     31  C   UNL     1       9.011   4.580  10.163  0.00  0.00    +0.005 C 
ENDBRANCH  25  28
ENDBRANCH   5  25
ENDBRANCH  10  18
BRANCH   7  13
ATOM     13  C   UNL     1       9.423   9.334   2.789  0.00  0.00    +0.026 C 
BRANCH  13  15
ATOM     15  C   UNL     1       8.106  10.107   2.902  0.00  0.00    -0.015 C 
ATOM     22  C   UNL     1       7.671  10.152   4.368  0.00  0.00    +0.007 C 
ATOM     23  C   UNL     1       6.991   9.500   2.050  0.00  0.00    +0.007 C 
ENDBRANCH  13  15
ENDBRANCH   7  13
BRANCH   4  20
ATOM     20  C   UNL     1      12.398   3.233   0.013  0.00  0.00    +0.162 C 
BRANCH  20  24
ATOM      2  O   UNL     1      15.928   4.265  -0.383  0.00  0.00    -0.359 OA
ATOM      6  N   UNL     1      15.491   4.459  -1.688  0.00  0.00    -0.083 NA
ATOM     24  C   UNL     1      13.771   3.698  -0.405  0.00  0.00    +0.037 A 
ATOM     26  C   UNL     1      14.894   3.811   0.372  0.00  0.00    +0.139 A 
ATOM     27  C   UNL     1      14.200   4.114  -1.676  0.00  0.00    +0.086 A 
ATOM     29  C   UNL     1      15.186   3.551   1.788  0.00  0.00    +0.089 C 
ATOM     30  C   UNL     1      13.414   4.201  -2.917  0.00  0.00    +0.069 C 
ENDBRANCH  20  24
ENDBRANCH   4  20
TORSDOF 7
ENDMDL
MODEL 6
REMARK VINA RESULT:      -6.4     18.740     21.281
REMARK  Name = 51138113
REMARK  12 active torsions:
REMARK  status: ('A' for Active; 'I' for Inactive)
REMARK    1  A    between atoms: N_4  and  C_20
REMARK    2  A    between atoms: N_5  and  C_25
REMARK    3  A    between atoms: C_7  and  C_13
REMARK    4  A    between atoms: C_10  and  C_18
REMARK    5  A    between atoms: C_13  and  C_15
REMARK    6  A    between atoms: C_15  and  C_22
REMARK    7  A    between atoms: C_15  and  C_23
REMARK    8  A    between atoms: C_20  and  C_24
REMARK    9  A    between atoms: C_25  and  C_28
REMARK   10  A    between atoms: C_26  and  C_29
REMARK   11  A    between atoms: C_27  and  C_30
REMARK   12  A    between atoms: C_28  and  C_31
REMARK                            x       y       z     vdW  Elec       q    Type
REMARK                         _______ _______ _______ _____ _____    ______ ____
ROOT
ATOM      3  N   UNL     1       9.610   6.905   4.927  0.00  0.00    -0.299 NA
ATOM      4  N   UNL     1      10.917   6.093   0.118  0.00  0.00    -0.342 N 
ATOM      7  C   UNL     1       8.671   7.698   4.121  0.00  0.00    +0.085 C 
ATOM      8  C   UNL     1       8.972   7.767   2.620  0.00  0.00    -0.021 A 
ATOM      9  C   UNL     1       9.845   6.887   1.917  0.00  0.00    +0.008 A 
ATOM     10  C   UNL     1       9.639   5.485   4.606  0.00  0.00    +0.145 C 
ATOM     11  C   UNL     1      10.644   5.755   2.300  0.00  0.00    -0.020 A 
ATOM     12  C   UNL     1      10.786   5.149   3.656  0.00  0.00    +0.065 C 
ATOM     14  C   UNL     1      10.023   7.050   0.538  0.00  0.00    +0.050 A 
ATOM     16  C   UNL     1      11.292   5.306   1.167  0.00  0.00    +0.091 A 
ATOM     17  C   UNL     1       8.282   8.725   1.833  0.00  0.00    +0.006 A 
ATOM     19  C   UNL     1       9.369   8.029  -0.211  0.00  0.00    +0.026 A 
ATOM     21  C   UNL     1       8.482   8.860   0.461  0.00  0.00    +0.002 A 
ATOM     32  H   UNL     1      10.544   7.309   4.899  0.00  0.00    +0.123 HD
ENDROOT
BRANCH  10  18
ATOM      1  O   UNL     1       9.812   3.569   6.018  0.00  0.00    -0.274 OA
ATOM      5  N   UNL     1      10.112   5.684   6.945  0.00  0.00    -0.314 N 
ATOM     18  C   UNL     1       9.866   4.792   5.915  0.00  0.00    +0.230 C 
ATOM     33  H   UNL     1      10.140   6.680   6.754  0.00  0.00    +0.149 HD
BRANCH   5  25
ATOM     25  C   UNL     1      10.341   5.270   8.310  0.00  0.00    +0.104 C 
BRANCH  25  28
ATOM     28  C   UNL     1       9.095   5.411   9.177  0.00  0.00    +0.015 C 
ATOM     31  C   UNL     1       9.077   4.436  10.345  0.00  0.00    +0.005 C 
ENDBRANCH  25  28
ENDBRANCH   5  25
ENDBRANCH  10  18
BRANCH   7  13
ATOM     13  C   UNL     1       8.662   9.086   4.786  0.00  0.00    +0.026 C 
BRANCH  13  15
ATOM     15  C   UNL     1      10.065   9.598   5.123  0.00  0.00    -0.015 C 
ATOM     22  C   UNL     1      10.106  10.027   6.592  0.00  0.00    +0.007 C 
ATOM     23  C   UNL     1      10.498  10.762   4.232  0.00  0.00    +0.007 C 
ENDBRANCH  13  15
ENDBRANCH   7  13
BRANCH   4  20
ATOM     20  C   UNL     1      11.385   5.918  -1.241  0.00  0.00    +0.162 C 
BRANCH  20  24
ATOM      2  O   UNL     1       9.357   3.473  -3.136  0.00  0.00    -0.359 OA
ATOM      6  N   UNL     1      10.393   2.638  -2.733  0.00  0.00    -0.083 NA
ATOM     24  C   UNL     1      10.749   4.745  -1.945  0.00  0.00    +0.037 A 
ATOM     26  C   UNL     1       9.581   4.726  -2.660  0.00  0.00    +0.139 A 
ATOM     27  C   UNL     1      11.211   3.421  -2.023  0.00  0.00    +0.086 A 
ATOM     29  C   UNL     1       8.574   5.740  -2.997  0.00  0.00    +0.089 C 
ATOM     30  C   UNL     1      12.434   2.848  -1.435  0.00  0.00    +0.069 C 
ENDBRANCH  20  24
ENDBRANCH   4  20
TORSDOF 7
ENDMDL
MODEL 7
REMARK VINA RESULT:      -6.4     28.389     30.659
REMARK  Name = 51138113
REMARK  12 active torsions:
REMARK  status: ('A' for Active; 'I' for Inactive)
REMARK    1  A    between atoms: N_4  and  C_20
REMARK    2  A    between atoms: N_5  and  C_25
REMARK    3  A    between atoms: C_7  and  C_13
REMARK    4  A    between atoms: C_10  and  C_18
REMARK    5  A    between atoms: C_13  and  C_15
REMARK    6  A    between atoms: C_15  and  C_22
REMARK    7  A    between atoms: C_15  and  C_23
REMARK    8  A    between atoms: C_20  and  C_24
REMARK    9  A    between atoms: C_25  and  C_28
REMARK   10  A    between atoms: C_26  and  C_29
REMARK   11  A    between atoms: C_27  and  C_30
REMARK   12  A    between atoms: C_28  and  C_31
REMARK                            x       y       z     vdW  Elec       q    Type
REMARK                         _______ _______ _______ _____ _____    ______ ____
ROOT
ATOM      3  N   UNL     1      -8.752 -10.419  17.758  0.00  0.00    -0.299 NA
ATOM      4  N   UNL     1      -4.091 -10.778  15.848  0.00  0.00    -0.342 N 
ATOM      7  C   UNL     1      -7.867 -10.650  18.909  0.00  0.00    +0.085 C 
ATOM      8  C   UNL     1      -6.408 -10.978  18.575  0.00  0.00    -0.021 A 
ATOM      9  C   UNL     1      -5.783 -10.749  17.315  0.00  0.00    +0.008 A 
ATOM     10  C   UNL     1      -8.407  -9.259  16.949  0.00  0.00    +0.145 C 
ATOM     11  C   UNL     1      -6.225 -10.188  16.067  0.00  0.00    -0.020 A 
ATOM     12  C   UNL     1      -7.576  -9.653  15.729  0.00  0.00    +0.065 C 
ATOM     14  C   UNL     1      -4.434 -11.082  17.144  0.00  0.00    +0.050 A 
ATOM     16  C   UNL     1      -5.158 -10.235  15.193  0.00  0.00    +0.091 A 
ATOM     17  C   UNL     1      -5.572 -11.478  19.606  0.00  0.00    +0.006 A 
ATOM     19  C   UNL     1      -3.640 -11.617  18.159  0.00  0.00    +0.026 A 
ATOM     21  C   UNL     1      -4.232 -11.799  19.403  0.00  0.00    +0.002 A 
ATOM     32  H   UNL     1      -8.830 -11.258  17.186  0.00  0.00    +0.123 HD
ENDROOT
BRANCH  10  18
ATOM      1  O   UNL     1     -10.449  -9.309  15.713  0.00  0.00    -0.274 OA
ATOM      5  N   UNL     1      -9.966  -7.444  17.020  0.00  0.00    -0.314 N 
ATOM     18  C   UNL     1      -9.719  -8.698  16.489  0.00  0.00    +0.230 C 
ATOM     33  H   UNL     1      -9.298  -7.025  17.658  0.00  0.00    +0.149 HD
BRANCH   5  25
ATOM     25  C   UNL     1     -11.153  -6.678  16.715  0.00  0.00    +0.104 C 
BRANCH  25  28
ATOM     28  C   UNL     1     -11.022  -5.896  15.413  0.00  0.00    +0.015 C 
ATOM     31  C   UNL     1     -12.336  -5.793  14.653  0.00  0.00    +0.005 C 
ENDBRANCH  25  28
ENDBRANCH   5  25
ENDBRANCH  10  18
BRANCH   7  13
ATOM     13  C   UNL     1      -8.555 -11.769  19.711  0.00  0.00    +0.026 C 
BRANCH  13  15
ATOM     15  C   UNL     1      -9.365 -12.725  18.831  0.00  0.00    -0.015 C 
ATOM     22  C   UNL     1     -10.660 -13.102  19.554  0.00  0.00    +0.007 C 
ATOM     23  C   UNL     1      -8.589 -13.992  18.467  0.00  0.00    +0.007 C 
ENDBRANCH  13  15
ENDBRANCH   7  13
BRANCH   4  20
ATOM     20  C   UNL     1      -2.786 -10.977  15.253  0.00  0.00    +0.162 C 
BRANCH  20  24
ATOM      2  O   UNL     1      -3.109 -13.611  12.677  0.00  0.00    -0.359 OA
ATOM      6  N   UNL     1      -2.579 -12.595  11.891  0.00  0.00    -0.083 NA
ATOM     24  C   UNL     1      -2.816 -11.867  14.035  0.00  0.00    +0.037 A 
ATOM     26  C   UNL     1      -3.245 -13.166  13.953  0.00  0.00    +0.139 A 
ATOM     27  C   UNL     1      -2.413 -11.564  12.725  0.00  0.00    +0.086 A 
ATOM     29  C   UNL     1      -3.795 -14.122  14.922  0.00  0.00    +0.089 C 
ATOM     30  C   UNL     1      -1.860 -10.298  12.214  0.00  0.00    +0.069 C 
ENDBRANCH  20  24
ENDBRANCH   4  20
TORSDOF 7
ENDMDL
MODEL 8
REMARK VINA RESULT:      -6.2     17.005     19.962
REMARK  Name = 51138113
REMARK  12 active torsions:
REMARK  status: ('A' for Active; 'I' for Inactive)
REMARK    1  A    between atoms: N_4  and  C_20
REMARK    2  A    between atoms: N_5  and  C_25
REMARK    3  A    between atoms: C_7  and  C_13
REMARK    4  A    between atoms: C_10  and  C_18
REMARK    5  A    between atoms: C_13  and  C_15
REMARK    6  A    between atoms: C_15  and  C_22
REMARK    7  A    between atoms: C_15  and  C_23
REMARK    8  A    between atoms: C_20  and  C_24
REMARK    9  A    between atoms: C_25  and  C_28
REMARK   10  A    between atoms: C_26  and  C_29
REMARK   11  A    between atoms: C_27  and  C_30
REMARK   12  A    between atoms: C_28  and  C_31
REMARK                            x       y       z     vdW  Elec       q    Type
REMARK                         _______ _______ _______ _____ _____    ______ ____
ROOT
ATOM      3  N   UNL     1      15.361   6.212   2.473  0.00  0.00    -0.299 NA
ATOM      4  N   UNL     1      10.738   6.668   4.454  0.00  0.00    -0.342 N 
ATOM      7  C   UNL     1      14.449   5.592   1.502  0.00  0.00    +0.085 C 
ATOM      8  C   UNL     1      12.994   5.437   1.956  0.00  0.00    -0.021 A 
ATOM      9  C   UNL     1      12.399   6.124   3.052  0.00  0.00    +0.008 A 
ATOM     10  C   UNL     1      15.048   7.595   2.805  0.00  0.00    +0.145 C 
ATOM     11  C   UNL     1      12.874   7.096   4.000  0.00  0.00    -0.020 A 
ATOM     12  C   UNL     1      14.238   7.692   4.096  0.00  0.00    +0.065 C 
ATOM     14  C   UNL     1      11.050   5.903   3.355  0.00  0.00    +0.050 A 
ATOM     16  C   UNL     1      11.825   7.393   4.846  0.00  0.00    +0.091 A 
ATOM     17  C   UNL     1      12.130   4.609   1.194  0.00  0.00    +0.006 A 
ATOM     19  C   UNL     1      10.228   5.047   2.620  0.00  0.00    +0.026 A 
ATOM     21  C   UNL     1      10.791   4.411   1.521  0.00  0.00    +0.002 A 
ATOM     32  H   UNL     1      15.441   5.641   3.312  0.00  0.00    +0.123 HD
ENDROOT
BRANCH  10  18
ATOM      1  O   UNL     1      16.719   9.234   2.339  0.00  0.00    -0.274 OA
ATOM      5  N   UNL     1      17.130   7.640   3.986  0.00  0.00    -0.314 N 
ATOM     18  C   UNL     1      16.375   8.261   3.005  0.00  0.00    +0.230 C 
ATOM     33  H   UNL     1      16.751   6.841   4.484  0.00  0.00    +0.149 HD
BRANCH   5  25
ATOM     25  C   UNL     1      18.457   8.075   4.355  0.00  0.00    +0.104 C 
BRANCH  25  28
ATOM     28  C   UNL     1      18.472   8.844   5.671  0.00  0.00    +0.015 C 
ATOM     31  C   UNL     1      19.589   8.395   6.602  0.00  0.00    +0.005 C 
ENDBRANCH  25  28
ENDBRANCH   5  25
ENDBRANCH  10  18
BRANCH   7  13
ATOM     13  C   UNL     1      15.107   4.244   1.156  0.00  0.00    +0.026 C 
BRANCH  13  15
ATOM     15  C   UNL     1      15.679   4.204  -0.264  0.00  0.00    -0.015 C 
ATOM     22  C   UNL     1      16.531   5.452  -0.501  0.00  0.00    +0.007 C 
ATOM     23  C   UNL     1      14.591   4.110  -1.335  0.00  0.00    +0.007 C 
ENDBRANCH  13  15
ENDBRANCH   7  13
BRANCH   4  20
ATOM     20  C   UNL     1       9.444   6.725   5.101  0.00  0.00    +0.162 C 
BRANCH  20  24
ATOM      2  O   UNL     1       9.374   6.103   8.746  0.00  0.00    -0.359 OA
ATOM      6  N   UNL     1       9.621   4.809   8.304  0.00  0.00    -0.083 NA
ATOM     24  C   UNL     1       9.464   6.216   6.520  0.00  0.00    +0.037 A 
ATOM     26  C   UNL     1       9.283   6.932   7.674  0.00  0.00    +0.139 A 
ATOM     27  C   UNL     1       9.671   4.902   6.972  0.00  0.00    +0.086 A 
ATOM     29  C   UNL     1       9.022   8.348   7.966  0.00  0.00    +0.089 C 
ATOM     30  C   UNL     1       9.920   3.694   6.168  0.00  0.00    +0.069 C 
ENDBRANCH  20  24
ENDBRANCH   4  20
TORSDOF 7
ENDMDL
MODEL 9
REMARK VINA RESULT:      -6.1     18.357     21.683
REMARK  Name = 51138113
REMARK  12 active torsions:
REMARK  status: ('A' for Active; 'I' for Inactive)
REMARK    1  A    between atoms: N_4  and  C_20
REMARK    2  A    between atoms: N_5  and  C_25
REMARK    3  A    between atoms: C_7  and  C_13
REMARK    4  A    between atoms: C_10  and  C_18
REMARK    5  A    between atoms: C_13  and  C_15
REMARK    6  A    between atoms: C_15  and  C_22
REMARK    7  A    between atoms: C_15  and  C_23
REMARK    8  A    between atoms: C_20  and  C_24
REMARK    9  A    between atoms: C_25  and  C_28
REMARK   10  A    between atoms: C_26  and  C_29
REMARK   11  A    between atoms: C_27  and  C_30
REMARK   12  A    between atoms: C_28  and  C_31
REMARK                            x       y       z     vdW  Elec       q    Type
REMARK                         _______ _______ _______ _____ _____    ______ ____
ROOT
ATOM      3  N   UNL     1      10.976   5.627   4.038  0.00  0.00    -0.299 NA
ATOM      4  N   UNL     1       8.330   9.395   1.965  0.00  0.00    -0.342 N 
ATOM      7  C   UNL     1      11.407   5.690   2.635  0.00  0.00    +0.085 C 
ATOM      8  C   UNL     1      10.613   6.641   1.734  0.00  0.00    -0.021 A 
ATOM      9  C   UNL     1       9.755   7.683   2.194  0.00  0.00    +0.008 A 
ATOM     10  C   UNL     1      11.132   6.871   4.780  0.00  0.00    +0.145 C 
ATOM     11  C   UNL     1       9.380   8.168   3.495  0.00  0.00    -0.020 A 
ATOM     12  C   UNL     1       9.828   7.664   4.826  0.00  0.00    +0.065 C 
ATOM     14  C   UNL     1       9.096   8.494   1.263  0.00  0.00    +0.050 A 
ATOM     16  C   UNL     1       8.497   9.212   3.306  0.00  0.00    +0.091 A 
ATOM     17  C   UNL     1      10.788   6.550   0.329  0.00  0.00    +0.006 A 
ATOM     19  C   UNL     1       9.246   8.357  -0.118  0.00  0.00    +0.026 A 
ATOM     21  C   UNL     1      10.117   7.375  -0.570  0.00  0.00    +0.002 A 
ATOM     32  H   UNL     1      10.024   5.272   4.111  0.00  0.00    +0.123 HD
ENDROOT
BRANCH  10  18
ATOM      1  O   UNL     1      12.650   6.574   6.598  0.00  0.00    -0.274 OA
ATOM      5  N   UNL     1      10.430   5.923   6.862  0.00  0.00    -0.314 N 
ATOM     18  C   UNL     1      11.504   6.455   6.171  0.00  0.00    +0.230 C 
ATOM     33  H   UNL     1       9.519   5.872   6.419  0.00  0.00    +0.149 HD
BRANCH   5  25
ATOM     25  C   UNL     1      10.530   5.427   8.216  0.00  0.00    +0.104 C 
BRANCH  25  28
ATOM     28  C   UNL     1       9.219   5.557   8.982  0.00  0.00    +0.015 C 
ATOM     31  C   UNL     1       9.120   4.586  10.148  0.00  0.00    +0.005 C 
ENDBRANCH  25  28
ENDBRANCH   5  25
ENDBRANCH  10  18
BRANCH   7  13
ATOM     13  C   UNL     1      11.354   4.231   2.146  0.00  0.00    +0.026 C 
BRANCH  13  15
ATOM     15  C   UNL     1      12.712   3.711   1.666  0.00  0.00    -0.015 C 
ATOM     22  C   UNL     1      13.766   4.805   1.854  0.00  0.00    +0.007 C 
ATOM     23  C   UNL     1      12.688   3.263   0.204  0.00  0.00    +0.007 C 
ENDBRANCH  13  15
ENDBRANCH   7  13
BRANCH   4  20
ATOM     20  C   UNL     1       7.480  10.411   1.381  0.00  0.00    +0.162 C 
BRANCH  20  24
ATOM      2  O   UNL     1       4.007   9.306   0.752  0.00  0.00    -0.359 OA
ATOM      6  N   UNL     1       3.872   9.723   2.070  0.00  0.00    -0.083 NA
ATOM     24  C   UNL     1       6.018  10.037   1.378  0.00  0.00    +0.037 A 
ATOM     26  C   UNL     1       5.290   9.497   0.351  0.00  0.00    +0.139 A 
ATOM     27  C   UNL     1       5.086  10.156   2.422  0.00  0.00    +0.086 A 
ATOM     29  C   UNL     1       5.608   9.105  -1.029  0.00  0.00    +0.089 C 
ATOM     30  C   UNL     1       5.306  10.678   3.781  0.00  0.00    +0.069 C 
ENDBRANCH  20  24
ENDBRANCH   4  20
TORSDOF 7
ENDMDL
MODEL 10
REMARK VINA RESULT:      -6.0     21.524     24.492
REMARK  Name = 51138113
REMARK  12 active torsions:
REMARK  status: ('A' for Active; 'I' for Inactive)
REMARK    1  A    between atoms: N_4  and  C_20
REMARK    2  A    between atoms: N_5  and  C_25
REMARK    3  A    between atoms: C_7  and  C_13
REMARK    4  A    between atoms: C_10  and  C_18
REMARK    5  A    between atoms: C_13  and  C_15
REMARK    6  A    between atoms: C_15  and  C_22
REMARK    7  A    between atoms: C_15  and  C_23
REMARK    8  A    between atoms: C_20  and  C_24
REMARK    9  A    between atoms: C_25  and  C_28
REMARK   10  A    between atoms: C_26  and  C_29
REMARK   11  A    between atoms: C_27  and  C_30
REMARK   12  A    between atoms: C_28  and  C_31
REMARK                            x       y       z     vdW  Elec       q    Type
REMARK                         _______ _______ _______ _____ _____    ______ ____
ROOT
ATOM      3  N   UNL     1       6.012  -8.154  34.734  0.00  0.00    -0.299 NA
ATOM      4  N   UNL     1       6.802 -12.483  32.257  0.00  0.00    -0.342 N 
ATOM      7  C   UNL     1       5.988  -7.805  33.307  0.00  0.00    +0.085 C 
ATOM      8  C   UNL     1       6.388  -8.923  32.339  0.00  0.00    -0.021 A 
ATOM      9  C   UNL     1       6.444 -10.309  32.664  0.00  0.00    +0.008 A 
ATOM     10  C   UNL     1       5.059  -9.183  35.125  0.00  0.00    +0.145 C 
ATOM     11  C   UNL     1       6.170 -11.069  33.854  0.00  0.00    -0.020 A 
ATOM     12  C   UNL     1       5.715 -10.562  35.182  0.00  0.00    +0.065 C 
ATOM     14  C   UNL     1       6.812 -11.234  31.680  0.00  0.00    +0.050 A 
ATOM     16  C   UNL     1       6.412 -12.395  33.560  0.00  0.00    +0.091 A 
ATOM     17  C   UNL     1       6.653  -8.587  30.987  0.00  0.00    +0.006 A 
ATOM     19  C   UNL     1       7.114 -10.877  30.365  0.00  0.00    +0.026 A 
ATOM     21  C   UNL     1       7.016  -9.533  30.030  0.00  0.00    +0.002 A 
ATOM     32  H   UNL     1       6.956  -8.392  35.034  0.00  0.00    +0.123 HD
ENDROOT
BRANCH  10  18
ATOM      1  O   UNL     1       3.670  -9.365  37.057  0.00  0.00    -0.274 OA
ATOM      5  N   UNL     1       5.346  -7.749  37.021  0.00  0.00    -0.314 N 
ATOM     18  C   UNL     1       4.607  -8.798  36.501  0.00  0.00    +0.230 C 
ATOM     33  H   UNL     1       6.107  -7.351  36.480  0.00  0.00    +0.149 HD
BRANCH   5  25
ATOM     25  C   UNL     1       5.095  -7.175  38.323  0.00  0.00    +0.104 C 
BRANCH  25  28
ATOM     28  C   UNL     1       4.601  -5.736  38.238  0.00  0.00    +0.015 C 
ATOM     31  C   UNL     1       5.737  -4.730  38.128  0.00  0.00    +0.005 C 
ENDBRANCH  25  28
ENDBRANCH   5  25
ENDBRANCH  10  18
BRANCH   7  13
ATOM     13  C   UNL     1       6.900  -6.570  33.192  0.00  0.00    +0.026 C 
BRANCH  13  15
ATOM     15  C   UNL     1       8.032  -6.564  34.224  0.00  0.00    -0.015 C 
ATOM     22  C   UNL     1       8.110  -5.184  34.879  0.00  0.00    +0.007 C 
ATOM     23  C   UNL     1       9.387  -6.925  33.614  0.00  0.00    +0.007 C 
ENDBRANCH  13  15
ENDBRANCH   7  13
BRANCH   4  20
ATOM     20  C   UNL     1       7.133 -13.722  31.586  0.00  0.00    +0.162 C 
BRANCH  20  24
ATOM      2  O   UNL     1       4.265 -14.571  29.411  0.00  0.00    -0.359 OA
ATOM      6  N   UNL     1       5.292 -14.697  28.484  0.00  0.00    -0.083 NA
ATOM     24  C   UNL     1       6.149 -14.098  30.507  0.00  0.00    +0.037 A 
ATOM     26  C   UNL     1       4.788 -14.214  30.613  0.00  0.00    +0.139 A 
ATOM     27  C   UNL     1       6.407 -14.410  29.162  0.00  0.00    +0.086 A 
ATOM     29  C   UNL     1       3.831 -14.036  31.713  0.00  0.00    +0.089 C 
ATOM     30  C   UNL     1       7.707 -14.448  28.472  0.00  0.00    +0.069 C 
ENDBRANCH  20  24
ENDBRANCH   4  20
TORSDOF 7
ENDMDL
