MODEL 1
REMARK VINA RESULT:      -7.9      0.000      0.000
REMARK  Name = 71694358
REMARK  5 active torsions:
REMARK  status: ('A' for Active; 'I' for Inactive)
REMARK    1  A    between atoms: N_5  and  C_27
REMARK    2  A    between atoms: N_7  and  C_26
REMARK    3  A    between atoms: C_10  and  C_15
REMARK    4  A    between atoms: C_15  and  C_18
REMARK    5  A    between atoms: C_27  and  C_34
REMARK                            x       y       z     vdW  Elec       q    Type
REMARK                         _______ _______ _______ _____ _____    ______ ____
ROOT
ATOM      1  O   UNL     1     -19.157   7.272  20.528  0.00  0.00    -0.274 OA
ATOM      3  O   UNL     1     -14.217   5.952  21.942  0.00  0.00    -0.488 OA
ATOM      4  N   UNL     1     -18.562   5.783  22.197  0.00  0.00    -0.300 N 
ATOM      6  N   UNL     1     -16.317   5.684  19.948  0.00  0.00    -0.304 NA
ATOM     10  C   UNL     1     -17.331   6.172  24.810  0.00  0.00    +0.008 C 
ATOM     11  C   UNL     1     -16.645   5.397  23.646  0.00  0.00    +0.032 C 
ATOM     12  C   UNL     1     -18.357   7.168  24.219  0.00  0.00    +0.023 C 
ATOM     13  C   UNL     1     -17.696   4.730  22.739  0.00  0.00    +0.115 C 
ATOM     14  C   UNL     1     -19.315   6.508  23.223  0.00  0.00    +0.108 C 
ATOM     16  C   UNL     1     -15.604   4.406  24.096  0.00  0.00    -0.023 C 
ATOM     17  C   UNL     1     -18.542   6.262  20.887  0.00  0.00    +0.229 C 
ATOM     19  C   UNL     1     -14.296   4.361  23.790  0.00  0.00    +0.010 C 
ATOM     20  C   UNL     1     -17.761   5.489  19.841  0.00  0.00    +0.178 C 
ATOM     21  C   UNL     1     -13.446   5.216  22.884  0.00  0.00    +0.256 C 
ATOM     22  C   UNL     1     -15.879   7.078  19.950  0.00  0.00    +0.120 C 
ATOM     23  C   UNL     1     -14.365   7.194  19.934  0.00  0.00    +0.010 A 
ATOM     26  C   UNL     1     -12.367   8.054  18.846  0.00  0.00    +0.030 A 
ATOM     28  C   UNL     1     -13.556   6.632  20.949  0.00  0.00    +0.125 A 
ATOM     31  C   UNL     1     -13.752   7.903  18.889  0.00  0.00    +0.031 A 
ATOM     32  C   UNL     1     -11.577   7.503  19.849  0.00  0.00    +0.027 A 
ATOM     33  C   UNL     1     -12.167   6.796  20.899  0.00  0.00    +0.048 A 
ATOM     40  H   UNL     1     -15.868   5.188  19.179  0.00  0.00    +0.123 HD
ENDROOT
BRANCH  26   7
ATOM      7  N   UNL     1     -11.772   8.763  17.796  0.00  0.00    -0.327 N 
ATOM      8  N   UNL     1     -10.409  10.007  15.617  0.00  0.00    -0.313 NA
ATOM     24  C   UNL     1     -10.355   9.134  17.927  0.00  0.00    +0.120 C 
ATOM     25  C   UNL     1     -12.254   8.573  16.423  0.00  0.00    +0.120 C 
ATOM     29  C   UNL     1     -10.019  10.297  16.996  0.00  0.00    +0.100 C 
ATOM     30  C   UNL     1     -11.848   9.755  15.544  0.00  0.00    +0.100 C 
ATOM     41  H   UNL     1     -10.177  10.805  15.027  0.00  0.00    +0.122 HD
ENDBRANCH  26   7
BRANCH  10  15
ATOM     15  C   UNL     1     -17.992   5.283  25.869  0.00  0.00    +0.100 C 
BRANCH  15  18
ATOM      2  O   UNL     1     -17.397   6.557  27.838  0.00  0.00    -0.276 OA
ATOM      5  N   UNL     1     -16.824   4.308  27.713  0.00  0.00    -0.311 N 
ATOM     18  C   UNL     1     -17.386   5.485  27.240  0.00  0.00    +0.214 C 
ATOM     39  H   UNL     1     -16.857   3.471  27.140  0.00  0.00    +0.149 HD
BRANCH   5  27
ATOM     27  C   UNL     1     -16.169   4.207  28.997  0.00  0.00    +0.141 C 
BRANCH  27  34
ATOM      9  N   UNL     1     -15.809   0.443  28.978  0.00  0.00    -0.263 NA
ATOM     34  C   UNL     1     -15.599   2.838  29.232  0.00  0.00    -0.012 A 
ATOM     35  C   UNL     1     -14.387   2.670  29.891  0.00  0.00    +0.008 A 
ATOM     36  C   UNL     1     -16.266   1.703  28.799  0.00  0.00    +0.115 A 
ATOM     37  C   UNL     1     -13.885   1.389  30.095  0.00  0.00    +0.020 A 
ATOM     38  C   UNL     1     -14.628   0.319  29.623  0.00  0.00    +0.111 A 
ENDBRANCH  27  34
ENDBRANCH   5  27
ENDBRANCH  15  18
ENDBRANCH  10  15
TORSDOF 5
ENDMDL
MODEL 2
REMARK VINA RESULT:      -7.6     32.364     37.007
REMARK  Name = 71694358
REMARK  5 active torsions:
REMARK  status: ('A' for Active; 'I' for Inactive)
REMARK    1  A    between atoms: N_5  and  C_27
REMARK    2  A    between atoms: N_7  and  C_26
REMARK    3  A    between atoms: C_10  and  C_15
REMARK    4  A    between atoms: C_15  and  C_18
REMARK    5  A    between atoms: C_27  and  C_34
REMARK                            x       y       z     vdW  Elec       q    Type
REMARK                         _______ _______ _______ _____ _____    ______ ____
ROOT
ATOM      1  O   UNL     1      21.220  10.898  23.241  0.00  0.00    -0.274 OA
ATOM      3  O   UNL     1      20.133   6.301  20.825  0.00  0.00    -0.488 OA
ATOM      4  N   UNL     1      22.596   9.040  23.150  0.00  0.00    -0.300 N 
ATOM      6  N   UNL     1      19.582   8.031  23.097  0.00  0.00    -0.304 NA
ATOM     10  C   UNL     1      24.088   7.822  20.963  0.00  0.00    +0.008 C 
ATOM     11  C   UNL     1      22.907   7.116  21.692  0.00  0.00    +0.032 C 
ATOM     12  C   UNL     1      23.928   9.354  21.107  0.00  0.00    +0.023 C 
ATOM     13  C   UNL     1      22.807   7.588  23.155  0.00  0.00    +0.115 C 
ATOM     14  C   UNL     1      23.705   9.790  22.558  0.00  0.00    +0.108 C 
ATOM     16  C   UNL     1      22.939   5.613  21.604  0.00  0.00    -0.023 C 
ATOM     17  C   UNL     1      21.397   9.691  23.439  0.00  0.00    +0.229 C 
ATOM     19  C   UNL     1      22.023   4.780  21.081  0.00  0.00    +0.010 C 
ATOM     20  C   UNL     1      20.265   8.892  24.059  0.00  0.00    +0.178 C 
ATOM     21  C   UNL     1      20.669   5.033  20.468  0.00  0.00    +0.256 C 
ATOM     22  C   UNL     1      19.098   8.706  21.895  0.00  0.00    +0.120 C 
ATOM     23  C   UNL     1      18.290   7.772  21.010  0.00  0.00    +0.010 A 
ATOM     26  C   UNL     1      16.196   7.304  19.866  0.00  0.00    +0.030 A 
ATOM     28  C   UNL     1      18.835   6.581  20.477  0.00  0.00    +0.125 A 
ATOM     31  C   UNL     1      16.967   8.119  20.692  0.00  0.00    +0.031 A 
ATOM     32  C   UNL     1      16.739   6.135  19.341  0.00  0.00    +0.027 A 
ATOM     33  C   UNL     1      18.054   5.775  19.642  0.00  0.00    +0.048 A 
ATOM     40  H   UNL     1      18.800   7.578  23.570  0.00  0.00    +0.123 HD
ENDROOT
BRANCH  26   7
ATOM      7  N   UNL     1      14.878   7.662  19.560  0.00  0.00    -0.327 N 
ATOM      8  N   UNL     1      12.161   8.454  19.181  0.00  0.00    -0.313 NA
ATOM     24  C   UNL     1      13.791   6.880  20.167  0.00  0.00    +0.120 C 
ATOM     25  C   UNL     1      14.557   9.058  19.245  0.00  0.00    +0.120 C 
ATOM     29  C   UNL     1      12.502   7.044  19.363  0.00  0.00    +0.100 C 
ATOM     30  C   UNL     1      13.240   9.145  18.475  0.00  0.00    +0.100 C 
ATOM     41  H   UNL     1      11.304   8.525  18.636  0.00  0.00    +0.122 HD
ENDBRANCH  26   7
BRANCH  10  15
ATOM     15  C   UNL     1      25.481   7.380  21.425  0.00  0.00    +0.100 C 
BRANCH  15  18
ATOM      2  O   UNL     1      25.991   6.213  19.367  0.00  0.00    -0.276 OA
ATOM      5  N   UNL     1      26.532   5.233  21.404  0.00  0.00    -0.311 N 
ATOM     18  C   UNL     1      26.018   6.236  20.594  0.00  0.00    +0.214 C 
ATOM     39  H   UNL     1      26.503   5.339  22.413  0.00  0.00    +0.149 HD
BRANCH   5  27
ATOM     27  C   UNL     1      27.109   4.016  20.881  0.00  0.00    +0.141 C 
BRANCH  27  34
ATOM      9  N   UNL     1      26.014   0.720  22.376  0.00  0.00    -0.263 NA
ATOM     34  C   UNL     1      26.266   2.814  21.194  0.00  0.00    -0.012 A 
ATOM     35  C   UNL     1      25.005   2.656  20.630  0.00  0.00    +0.008 A 
ATOM     36  C   UNL     1      26.721   1.825  22.053  0.00  0.00    +0.115 A 
ATOM     37  C   UNL     1      24.248   1.531  20.938  0.00  0.00    +0.020 A 
ATOM     38  C   UNL     1      24.792   0.601  21.809  0.00  0.00    +0.111 A 
ENDBRANCH  27  34
ENDBRANCH   5  27
ENDBRANCH  15  18
ENDBRANCH  10  15
TORSDOF 5
ENDMDL
MODEL 3
REMARK VINA RESULT:      -7.4     18.696     21.391
REMARK  Name = 71694358
REMARK  5 active torsions:
REMARK  status: ('A' for Active; 'I' for Inactive)
REMARK    1  A    between atoms: N_5  and  C_27
REMARK    2  A    between atoms: N_7  and  C_26
REMARK    3  A    between atoms: C_10  and  C_15
REMARK    4  A    between atoms: C_15  and  C_18
REMARK    5  A    between atoms: C_27  and  C_34
REMARK                            x       y       z     vdW  Elec       q    Type
REMARK                         _______ _______ _______ _____ _____    ______ ____
ROOT
ATOM      1  O   UNL     1      -7.544 -10.690  19.706  0.00  0.00    -0.274 OA
ATOM      3  O   UNL     1      -8.666 -10.444  14.526  0.00  0.00    -0.488 OA
ATOM      4  N   UNL     1      -6.337 -11.676  17.995  0.00  0.00    -0.300 N 
ATOM      6  N   UNL     1      -9.388 -11.571  17.108  0.00  0.00    -0.304 NA
ATOM     10  C   UNL     1      -4.655 -10.554  15.896  0.00  0.00    +0.008 C 
ATOM     11  C   UNL     1      -5.987 -11.311  15.614  0.00  0.00    +0.032 C 
ATOM     12  C   UNL     1      -4.700  -9.968  17.327  0.00  0.00    +0.023 C 
ATOM     13  C   UNL     1      -6.257 -12.367  16.703  0.00  0.00    +0.115 C 
ATOM     14  C   UNL     1      -5.092 -11.008  18.380  0.00  0.00    +0.108 C 
ATOM     16  C   UNL     1      -6.074 -11.912  14.237  0.00  0.00    -0.023 C 
ATOM     17  C   UNL     1      -7.504 -11.435  18.720  0.00  0.00    +0.229 C 
ATOM     19  C   UNL     1      -6.974 -11.670  13.267  0.00  0.00    +0.010 C 
ATOM     20  C   UNL     1      -8.780 -12.145  18.305  0.00  0.00    +0.178 C 
ATOM     21  C   UNL     1      -8.197 -10.790  13.228  0.00  0.00    +0.256 C 
ATOM     22  C   UNL     1      -9.631 -10.132  17.166  0.00  0.00    +0.120 C 
ATOM     23  C   UNL     1     -10.380  -9.635  15.941  0.00  0.00    +0.010 A 
ATOM     26  C   UNL     1     -12.318  -8.486  15.026  0.00  0.00    +0.030 A 
ATOM     28  C   UNL     1      -9.870  -9.793  14.632  0.00  0.00    +0.125 A 
ATOM     31  C   UNL     1     -11.607  -8.977  16.120  0.00  0.00    +0.031 A 
ATOM     32  C   UNL     1     -11.810  -8.640  13.741  0.00  0.00    +0.027 A 
ATOM     33  C   UNL     1     -10.589  -9.289  13.542  0.00  0.00    +0.048 A 
ATOM     40  H   UNL     1     -10.267 -12.057  16.930  0.00  0.00    +0.123 HD
ENDROOT
BRANCH  26   7
ATOM      7  N   UNL     1     -13.541  -7.834  15.221  0.00  0.00    -0.327 N 
ATOM      8  N   UNL     1     -16.145  -6.693  15.491  0.00  0.00    -0.313 NA
ATOM     24  C   UNL     1     -14.245  -7.316  14.039  0.00  0.00    +0.120 C 
ATOM     25  C   UNL     1     -14.394  -8.209  16.355  0.00  0.00    +0.120 C 
ATOM     29  C   UNL     1     -15.238  -6.227  14.443  0.00  0.00    +0.100 C 
ATOM     30  C   UNL     1     -15.384  -7.089  16.675  0.00  0.00    +0.100 C 
ATOM     41  H   UNL     1     -16.786  -5.941  15.740  0.00  0.00    +0.122 HD
ENDBRANCH  26   7
BRANCH  10  15
ATOM     15  C   UNL     1      -3.388 -11.393  15.697  0.00  0.00    +0.100 C 
BRANCH  15  18
ATOM      2  O   UNL     1      -1.442 -10.097  15.075  0.00  0.00    -0.276 OA
ATOM      5  N   UNL     1      -2.806 -10.983  13.415  0.00  0.00    -0.311 N 
ATOM     18  C   UNL     1      -2.425 -10.746  14.728  0.00  0.00    +0.214 C 
ATOM     39  H   UNL     1      -3.642 -11.527  13.226  0.00  0.00    +0.149 HD
BRANCH   5  27
ATOM     27  C   UNL     1      -2.071 -10.480  12.277  0.00  0.00    +0.141 C 
BRANCH  27  34
ATOM      9  N   UNL     1      -4.333 -11.517   9.430  0.00  0.00    -0.263 NA
ATOM     34  C   UNL     1      -2.927 -10.397  11.047  0.00  0.00    -0.012 A 
ATOM     35  C   UNL     1      -3.117  -9.188  10.387  0.00  0.00    +0.008 A 
ATOM     36  C   UNL     1      -3.551 -11.523  10.532  0.00  0.00    +0.115 A 
ATOM     37  C   UNL     1      -3.915  -9.143   9.248  0.00  0.00    +0.020 A 
ATOM     38  C   UNL     1      -4.495 -10.324   8.815  0.00  0.00    +0.111 A 
ENDBRANCH  27  34
ENDBRANCH   5  27
ENDBRANCH  15  18
ENDBRANCH  10  15
TORSDOF 5
ENDMDL
MODEL 4
REMARK VINA RESULT:      -7.2     30.972     35.978
REMARK  Name = 71694358
REMARK  5 active torsions:
REMARK  status: ('A' for Active; 'I' for Inactive)
REMARK    1  A    between atoms: N_5  and  C_27
REMARK    2  A    between atoms: N_7  and  C_26
REMARK    3  A    between atoms: C_10  and  C_15
REMARK    4  A    between atoms: C_15  and  C_18
REMARK    5  A    between atoms: C_27  and  C_34
REMARK                            x       y       z     vdW  Elec       q    Type
REMARK                         _______ _______ _______ _____ _____    ______ ____
ROOT
ATOM      1  O   UNL     1      19.573  12.933  21.623  0.00  0.00    -0.274 OA
ATOM      3  O   UNL     1      18.948   7.706  20.957  0.00  0.00    -0.488 OA
ATOM      4  N   UNL     1      21.217  11.318  21.838  0.00  0.00    -0.300 N 
ATOM      6  N   UNL     1      18.441  10.007  22.663  0.00  0.00    -0.304 NA
ATOM     10  C   UNL     1      22.566   9.635  19.878  0.00  0.00    +0.008 C 
ATOM     11  C   UNL     1      21.638   9.074  20.996  0.00  0.00    +0.032 C 
ATOM     12  C   UNL     1      22.171  11.101  19.581  0.00  0.00    +0.023 C 
ATOM     13  C   UNL     1      21.670   9.982  22.240  0.00  0.00    +0.115 C 
ATOM     14  C   UNL     1      22.087  11.958  20.848  0.00  0.00    +0.108 C 
ATOM     16  C   UNL     1      21.912   7.639  21.361  0.00  0.00    -0.023 C 
ATOM     17  C   UNL     1      19.978  11.885  22.138  0.00  0.00    +0.229 C 
ATOM     19  C   UNL     1      21.085   6.581  21.296  0.00  0.00    +0.010 C 
ATOM     20  C   UNL     1      19.099  11.207  23.172  0.00  0.00    +0.178 C 
ATOM     21  C   UNL     1      19.635   6.462  20.904  0.00  0.00    +0.256 C 
ATOM     22  C   UNL     1      17.683  10.192  21.428  0.00  0.00    +0.120 C 
ATOM     23  C   UNL     1      16.928   8.934  21.035  0.00  0.00    +0.010 A 
ATOM     26  C   UNL     1      14.801   7.880  20.504  0.00  0.00    +0.030 A 
ATOM     28  C   UNL     1      17.585   7.706  20.793  0.00  0.00    +0.125 A 
ATOM     31  C   UNL     1      15.533   9.003  20.885  0.00  0.00    +0.031 A 
ATOM     32  C   UNL     1      15.454   6.675  20.263  0.00  0.00    +0.027 A 
ATOM     33  C   UNL     1      16.840   6.587  20.403  0.00  0.00    +0.048 A 
ATOM     40  H   UNL     1      17.824   9.645  23.390  0.00  0.00    +0.123 HD
ENDROOT
BRANCH  26   7
ATOM      7  N   UNL     1      13.412   7.965  20.360  0.00  0.00    -0.327 N 
ATOM      8  N   UNL     1      10.586   8.343  20.213  0.00  0.00    -0.313 NA
ATOM     24  C   UNL     1      12.580   7.779  21.558  0.00  0.00    +0.120 C 
ATOM     25  C   UNL     1      12.838   8.819  19.314  0.00  0.00    +0.120 C 
ATOM     29  C   UNL     1      11.156   7.390  21.165  0.00  0.00    +0.100 C 
ATOM     30  C   UNL     1      11.404   8.395  19.002  0.00  0.00    +0.100 C 
ATOM     41  H   UNL     1       9.641   8.049  19.968  0.00  0.00    +0.122 HD
ENDBRANCH  26   7
BRANCH  10  15
ATOM     15  C   UNL     1      24.065   9.531  20.179  0.00  0.00    +0.100 C 
BRANCH  15  18
ATOM      2  O   UNL     1      24.902   8.627  18.095  0.00  0.00    -0.276 OA
ATOM      5  N   UNL     1      25.169   7.415  20.060  0.00  0.00    -0.311 N 
ATOM     18  C   UNL     1      24.749   8.502  19.307  0.00  0.00    +0.214 C 
ATOM     39  H   UNL     1      24.991   7.397  21.059  0.00  0.00    +0.149 HD
BRANCH   5  27
ATOM     27  C   UNL     1      25.851   6.276  19.488  0.00  0.00    +0.141 C 
BRANCH  27  34
ATOM      9  N   UNL     1      25.026   2.588  19.630  0.00  0.00    -0.263 NA
ATOM     34  C   UNL     1      25.250   4.976  19.939  0.00  0.00    -0.012 A 
ATOM     35  C   UNL     1      24.390   4.923  21.030  0.00  0.00    +0.008 A 
ATOM     36  C   UNL     1      25.533   3.791  19.278  0.00  0.00    +0.115 A 
ATOM     37  C   UNL     1      23.848   3.704  21.423  0.00  0.00    +0.020 A 
ATOM     38  C   UNL     1      24.194   2.576  20.696  0.00  0.00    +0.111 A 
ENDBRANCH  27  34
ENDBRANCH   5  27
ENDBRANCH  15  18
ENDBRANCH  10  15
TORSDOF 5
ENDMDL
MODEL 5
REMARK VINA RESULT:      -7.2     13.463     18.483
REMARK  Name = 71694358
REMARK  5 active torsions:
REMARK  status: ('A' for Active; 'I' for Inactive)
REMARK    1  A    between atoms: N_5  and  C_27
REMARK    2  A    between atoms: N_7  and  C_26
REMARK    3  A    between atoms: C_10  and  C_15
REMARK    4  A    between atoms: C_15  and  C_18
REMARK    5  A    between atoms: C_27  and  C_34
REMARK                            x       y       z     vdW  Elec       q    Type
REMARK                         _______ _______ _______ _____ _____    ______ ____
ROOT
ATOM      1  O   UNL     1      -8.666   8.375  41.344  0.00  0.00    -0.274 OA
ATOM      3  O   UNL     1      -5.558   9.543  37.205  0.00  0.00    -0.488 OA
ATOM      4  N   UNL     1      -9.254   9.657  39.508  0.00  0.00    -0.300 N 
ATOM      6  N   UNL     1      -6.138  10.037  40.012  0.00  0.00    -0.304 NA
ATOM     10  C   UNL     1      -9.730   8.964  36.718  0.00  0.00    +0.008 C 
ATOM     11  C   UNL     1      -8.558   9.877  37.186  0.00  0.00    +0.032 C 
ATOM     12  C   UNL     1     -10.150   8.041  37.886  0.00  0.00    +0.023 C 
ATOM     13  C   UNL     1      -8.940  10.642  38.468  0.00  0.00    +0.115 C 
ATOM     14  C   UNL     1     -10.404   8.810  39.185  0.00  0.00    +0.108 C 
ATOM     16  C   UNL     1      -8.043  10.812  36.124  0.00  0.00    -0.023 C 
ATOM     17  C   UNL     1      -8.447   9.339  40.601  0.00  0.00    +0.229 C 
ATOM     19  C   UNL     1      -6.805  10.900  35.607  0.00  0.00    +0.010 C 
ATOM     20  C   UNL     1      -7.265  10.236  40.919  0.00  0.00    +0.178 C 
ATOM     21  C   UNL     1      -5.529  10.164  35.926  0.00  0.00    +0.256 C 
ATOM     22  C   UNL     1      -5.679   8.655  39.888  0.00  0.00    +0.120 C 
ATOM     23  C   UNL     1      -4.429   8.550  39.031  0.00  0.00    +0.010 A 
ATOM     26  C   UNL     1      -2.113   7.837  38.832  0.00  0.00    +0.030 A 
ATOM     28  C   UNL     1      -4.398   8.990  37.688  0.00  0.00    +0.125 A 
ATOM     31  C   UNL     1      -3.276   7.974  39.587  0.00  0.00    +0.031 A 
ATOM     32  C   UNL     1      -2.089   8.268  37.509  0.00  0.00    +0.027 A 
ATOM     33  C   UNL     1      -3.227   8.840  36.937  0.00  0.00    +0.048 A 
ATOM     40  H   UNL     1      -5.366  10.624  40.326  0.00  0.00    +0.123 HD
ENDROOT
BRANCH  26   7
ATOM      7  N   UNL     1      -0.971   7.263  39.401  0.00  0.00    -0.327 N 
ATOM      8  N   UNL     1       1.478   6.138  40.346  0.00  0.00    -0.313 NA
ATOM     24  C   UNL     1      -0.456   6.017  38.814  0.00  0.00    +0.120 C 
ATOM     25  C   UNL     1       0.028   8.119  40.051  0.00  0.00    +0.120 C 
ATOM     29  C   UNL     1       0.422   5.274  39.819  0.00  0.00    +0.100 C 
ATOM     30  C   UNL     1       0.892   7.300  41.011  0.00  0.00    +0.100 C 
ATOM     41  H   UNL     1       2.038   5.614  41.017  0.00  0.00    +0.122 HD
ENDBRANCH  26   7
BRANCH  10  15
ATOM     15  C   UNL     1     -10.944   9.716  36.162  0.00  0.00    +0.100 C 
BRANCH  15  18
ATOM      2  O   UNL     1     -10.606   9.523  33.773  0.00  0.00    -0.276 OA
ATOM      5  N   UNL     1     -12.482   8.558  34.746  0.00  0.00    -0.311 N 
ATOM     18  C   UNL     1     -11.294   9.273  34.759  0.00  0.00    +0.214 C 
ATOM     39  H   UNL     1     -12.986   8.407  35.615  0.00  0.00    +0.149 HD
BRANCH   5  27
ATOM     27  C   UNL     1     -13.062   8.013  33.540  0.00  0.00    +0.141 C 
BRANCH  27  34
ATOM      9  N   UNL     1     -14.293   4.889  35.280  0.00  0.00    -0.263 NA
ATOM     34  C   UNL     1     -13.590   6.623  33.748  0.00  0.00    -0.012 A 
ATOM     35  C   UNL     1     -13.863   5.790  32.669  0.00  0.00    +0.008 A 
ATOM     36  C   UNL     1     -13.820   6.129  35.023  0.00  0.00    +0.115 A 
ATOM     37  C   UNL     1     -14.351   4.507  32.893  0.00  0.00    +0.020 A 
ATOM     38  C   UNL     1     -14.547   4.109  34.205  0.00  0.00    +0.111 A 
ENDBRANCH  27  34
ENDBRANCH   5  27
ENDBRANCH  15  18
ENDBRANCH  10  15
TORSDOF 5
ENDMDL
MODEL 6
REMARK VINA RESULT:      -7.2     19.232     21.828
REMARK  Name = 71694358
REMARK  5 active torsions:
REMARK  status: ('A' for Active; 'I' for Inactive)
REMARK    1  A    between atoms: N_5  and  C_27
REMARK    2  A    between atoms: N_7  and  C_26
REMARK    3  A    between atoms: C_10  and  C_15
REMARK    4  A    between atoms: C_15  and  C_18
REMARK    5  A    between atoms: C_27  and  C_34
REMARK                            x       y       z     vdW  Elec       q    Type
REMARK                         _______ _______ _______ _____ _____    ______ ____
ROOT
ATOM      1  O   UNL     1      -5.309  -9.647   6.862  0.00  0.00    -0.274 OA
ATOM      3  O   UNL     1      -8.190  -9.767  11.316  0.00  0.00    -0.488 OA
ATOM      4  N   UNL     1      -7.619  -9.629   7.000  0.00  0.00    -0.300 N 
ATOM      6  N   UNL     1      -6.501 -11.268   9.484  0.00  0.00    -0.304 NA
ATOM     10  C   UNL     1      -9.503  -7.603   7.916  0.00  0.00    +0.008 C 
ATOM     11  C   UNL     1      -9.307  -8.975   8.627  0.00  0.00    +0.032 C 
ATOM     12  C   UNL     1      -8.214  -7.247   7.139  0.00  0.00    +0.023 C 
ATOM     13  C   UNL     1      -8.879 -10.057   7.618  0.00  0.00    +0.115 C 
ATOM     14  C   UNL     1      -7.736  -8.386   6.234  0.00  0.00    +0.108 C 
ATOM     16  C   UNL     1     -10.494  -9.423   9.438  0.00  0.00    -0.023 C 
ATOM     17  C   UNL     1      -6.358 -10.162   7.266  0.00  0.00    +0.229 C 
ATOM     19  C   UNL     1     -10.562  -9.690  10.754  0.00  0.00    +0.010 C 
ATOM     20  C   UNL     1      -6.264 -11.454   8.055  0.00  0.00    +0.178 C 
ATOM     21  C   UNL     1      -9.512  -9.689  11.835  0.00  0.00    +0.256 C 
ATOM     22  C   UNL     1      -5.672 -10.249  10.122  0.00  0.00    +0.120 C 
ATOM     23  C   UNL     1      -5.886 -10.205  11.625  0.00  0.00    +0.010 A 
ATOM     26  C   UNL     1      -4.928 -10.348  13.856  0.00  0.00    +0.030 A 
ATOM     28  C   UNL     1      -7.154  -9.950  12.198  0.00  0.00    +0.125 A 
ATOM     31  C   UNL     1      -4.783 -10.401  12.471  0.00  0.00    +0.031 A 
ATOM     32  C   UNL     1      -6.177 -10.093  14.414  0.00  0.00    +0.027 A 
ATOM     33  C   UNL     1      -7.286  -9.892  13.590  0.00  0.00    +0.048 A 
ATOM     40  H   UNL     1      -6.361 -12.163   9.953  0.00  0.00    +0.123 HD
ENDROOT
BRANCH  26   7
ATOM      7  N   UNL     1      -3.819 -10.547  14.686  0.00  0.00    -0.327 N 
ATOM      8  N   UNL     1      -1.568 -11.199  16.317  0.00  0.00    -0.313 NA
ATOM     24  C   UNL     1      -3.996 -11.368  15.893  0.00  0.00    +0.120 C 
ATOM     25  C   UNL     1      -2.469 -10.548  14.110  0.00  0.00    +0.120 C 
ATOM     29  C   UNL     1      -2.898 -11.065  16.911  0.00  0.00    +0.100 C 
ATOM     30  C   UNL     1      -1.425 -10.276  15.192  0.00  0.00    +0.100 C 
ATOM     41  H   UNL     1      -0.863 -10.983  17.021  0.00  0.00    +0.122 HD
ENDBRANCH  26   7
BRANCH  10  15
ATOM     15  C   UNL     1     -10.725  -7.529   6.993  0.00  0.00    +0.100 C 
BRANCH  15  18
ATOM      2  O   UNL     1     -12.953  -6.625   7.270  0.00  0.00    -0.276 OA
ATOM      5  N   UNL     1     -11.139  -5.506   8.197  0.00  0.00    -0.311 N 
ATOM     18  C   UNL     1     -11.748  -6.529   7.484  0.00  0.00    +0.214 C 
ATOM     39  H   UNL     1     -10.131  -5.509   8.316  0.00  0.00    +0.149 HD
BRANCH   5  27
ATOM     27  C   UNL     1     -11.873  -4.408   8.782  0.00  0.00    +0.141 C 
BRANCH  27  34
ATOM      9  N   UNL     1     -12.327  -6.063  12.151  0.00  0.00    -0.263 NA
ATOM     34  C   UNL     1     -12.057  -4.579  10.262  0.00  0.00    -0.012 A 
ATOM     35  C   UNL     1     -12.129  -3.478  11.108  0.00  0.00    +0.008 A 
ATOM     36  C   UNL     1     -12.161  -5.839  10.829  0.00  0.00    +0.115 A 
ATOM     37  C   UNL     1     -12.301  -3.668  12.475  0.00  0.00    +0.020 A 
ATOM     38  C   UNL     1     -12.393  -4.969  12.942  0.00  0.00    +0.111 A 
ENDBRANCH  27  34
ENDBRANCH   5  27
ENDBRANCH  15  18
ENDBRANCH  10  15
TORSDOF 5
ENDMDL
MODEL 7
REMARK VINA RESULT:      -7.1     19.273     22.824
REMARK  Name = 71694358
REMARK  5 active torsions:
REMARK  status: ('A' for Active; 'I' for Inactive)
REMARK    1  A    between atoms: N_5  and  C_27
REMARK    2  A    between atoms: N_7  and  C_26
REMARK    3  A    between atoms: C_10  and  C_15
REMARK    4  A    between atoms: C_15  and  C_18
REMARK    5  A    between atoms: C_27  and  C_34
REMARK                            x       y       z     vdW  Elec       q    Type
REMARK                         _______ _______ _______ _____ _____    ______ ____
ROOT
ATOM      1  O   UNL     1      -8.798 -10.120  14.096  0.00  0.00    -0.274 OA
ATOM      3  O   UNL     1      -7.481 -12.048  18.861  0.00  0.00    -0.488 OA
ATOM      4  N   UNL     1      -6.800  -9.770  15.211  0.00  0.00    -0.300 N 
ATOM      6  N   UNL     1      -9.089 -10.123  17.389  0.00  0.00    -0.304 NA
ATOM     10  C   UNL     1      -4.569 -11.544  15.820  0.00  0.00    +0.008 C 
ATOM     11  C   UNL     1      -5.480 -10.906  16.911  0.00  0.00    +0.032 C 
ATOM     12  C   UNL     1      -5.354 -11.624  14.490  0.00  0.00    +0.023 C 
ATOM     13  C   UNL     1      -6.028  -9.546  16.439  0.00  0.00    +0.115 C 
ATOM     14  C   UNL     1      -5.997 -10.289  14.102  0.00  0.00    +0.108 C 
ATOM     16  C   UNL     1      -4.831 -10.792  18.265  0.00  0.00    -0.023 C 
ATOM     17  C   UNL     1      -8.190  -9.743  15.105  0.00  0.00    +0.229 C 
ATOM     19  C   UNL     1      -5.222 -11.329  19.434  0.00  0.00    +0.010 C 
ATOM     20  C   UNL     1      -8.999  -9.194  16.266  0.00  0.00    +0.178 C 
ATOM     21  C   UNL     1      -6.425 -12.157  19.807  0.00  0.00    +0.256 C 
ATOM     22  C   UNL     1      -9.572 -11.459  17.050  0.00  0.00    +0.120 C 
ATOM     23  C   UNL     1      -9.759 -12.323  18.286  0.00  0.00    +0.010 A 
ATOM     26  C   UNL     1     -11.238 -13.685  19.654  0.00  0.00    +0.030 A 
ATOM     28  C   UNL     1      -8.693 -12.613  19.169  0.00  0.00    +0.125 A 
ATOM     31  C   UNL     1     -11.026 -12.869  18.544  0.00  0.00    +0.031 A 
ATOM     32  C   UNL     1     -10.186 -13.970  20.517  0.00  0.00    +0.027 A 
ATOM     33  C   UNL     1      -8.917 -13.439  20.277  0.00  0.00    +0.048 A 
ATOM     40  H   UNL     1      -9.695  -9.712  18.099  0.00  0.00    +0.123 HD
ENDROOT
BRANCH  26   7
ATOM      7  N   UNL     1     -12.508 -14.220  19.898  0.00  0.00    -0.327 N 
ATOM      8  N   UNL     1     -15.158 -15.092  20.506  0.00  0.00    -0.313 NA
ATOM     24  C   UNL     1     -12.909 -14.440  21.295  0.00  0.00    +0.120 C 
ATOM     25  C   UNL     1     -13.603 -13.957  18.956  0.00  0.00    +0.120 C 
ATOM     29  C   UNL     1     -14.039 -15.465  21.371  0.00  0.00    +0.100 C 
ATOM     30  C   UNL     1     -14.710 -14.999  19.118  0.00  0.00    +0.100 C 
ATOM     41  H   UNL     1     -15.888 -15.800  20.577  0.00  0.00    +0.122 HD
ENDBRANCH  26   7
BRANCH  10  15
ATOM     15  C   UNL     1      -3.227 -10.833  15.612  0.00  0.00    +0.100 C 
BRANCH  15  18
ATOM      2  O   UNL     1      -2.064 -12.447  14.234  0.00  0.00    -0.276 OA
ATOM      5  N   UNL     1      -2.453 -10.309  13.412  0.00  0.00    -0.311 N 
ATOM     18  C   UNL     1      -2.518 -11.314  14.366  0.00  0.00    +0.214 C 
ATOM     39  H   UNL     1      -2.852  -9.398  13.616  0.00  0.00    +0.149 HD
BRANCH   5  27
ATOM     27  C   UNL     1      -1.827 -10.484  12.122  0.00  0.00    +0.141 C 
BRANCH  27  34
ATOM      9  N   UNL     1      -4.450 -11.453   9.576  0.00  0.00    -0.263 NA
ATOM     34  C   UNL     1      -2.816 -10.378  10.997  0.00  0.00    -0.012 A 
ATOM     35  C   UNL     1      -3.027  -9.171  10.340  0.00  0.00    +0.008 A 
ATOM     36  C   UNL     1      -3.546 -11.480  10.580  0.00  0.00    +0.115 A 
ATOM     37  C   UNL     1      -3.949  -9.104   9.301  0.00  0.00    +0.020 A 
ATOM     38  C   UNL     1      -4.629 -10.262   8.961  0.00  0.00    +0.111 A 
ENDBRANCH  27  34
ENDBRANCH   5  27
ENDBRANCH  15  18
ENDBRANCH  10  15
TORSDOF 5
ENDMDL
MODEL 8
REMARK VINA RESULT:      -7.1     22.155     23.742
REMARK  Name = 71694358
REMARK  5 active torsions:
REMARK  status: ('A' for Active; 'I' for Inactive)
REMARK    1  A    between atoms: N_5  and  C_27
REMARK    2  A    between atoms: N_7  and  C_26
REMARK    3  A    between atoms: C_10  and  C_15
REMARK    4  A    between atoms: C_15  and  C_18
REMARK    5  A    between atoms: C_27  and  C_34
REMARK                            x       y       z     vdW  Elec       q    Type
REMARK                         _______ _______ _______ _____ _____    ______ ____
ROOT
ATOM      1  O   UNL     1      -5.132 -15.382  12.311  0.00  0.00    -0.274 OA
ATOM      3  O   UNL     1      -3.855 -10.761  10.037  0.00  0.00    -0.488 OA
ATOM      4  N   UNL     1      -3.559 -13.867  13.077  0.00  0.00    -0.300 N 
ATOM      6  N   UNL     1      -3.657 -13.660   9.906  0.00  0.00    -0.304 NA
ATOM     10  C   UNL     1      -3.817 -11.213  14.252  0.00  0.00    +0.008 C 
ATOM     11  C   UNL     1      -3.133 -11.479  12.878  0.00  0.00    +0.032 C 
ATOM     12  C   UNL     1      -4.820 -12.353  14.547  0.00  0.00    +0.023 C 
ATOM     13  C   UNL     1      -2.496 -12.882  12.847  0.00  0.00    +0.115 C 
ATOM     14  C   UNL     1      -4.199 -13.743  14.388  0.00  0.00    +0.108 C 
ATOM     16  C   UNL     1      -2.143 -10.421  12.468  0.00  0.00    -0.023 C 
ATOM     17  C   UNL     1      -4.118 -14.705  12.111  0.00  0.00    +0.229 C 
ATOM     19  C   UNL     1      -2.152  -9.639  11.375  0.00  0.00    +0.010 C 
ATOM     20  C   UNL     1      -3.432 -14.821  10.763  0.00  0.00    +0.178 C 
ATOM     21  C   UNL     1      -3.082  -9.577  10.191  0.00  0.00    +0.256 C 
ATOM     22  C   UNL     1      -5.059 -13.300   9.707  0.00  0.00    +0.120 C 
ATOM     23  C   UNL     1      -5.215 -12.167   8.707  0.00  0.00    +0.010 A 
ATOM     26  C   UNL     1      -6.192 -11.362   6.631  0.00  0.00    +0.030 A 
ATOM     28  C   UNL     1      -4.612 -10.903   8.901  0.00  0.00    +0.125 A 
ATOM     31  C   UNL     1      -6.003 -12.379   7.564  0.00  0.00    +0.031 A 
ATOM     32  C   UNL     1      -5.600 -10.118   6.829  0.00  0.00    +0.027 A 
ATOM     33  C   UNL     1      -4.815  -9.887   7.960  0.00  0.00    +0.048 A 
ATOM     40  H   UNL     1      -3.221 -13.839   9.001  0.00  0.00    +0.123 HD
ENDROOT
BRANCH  26   7
ATOM      7  N   UNL     1      -6.979 -11.590   5.496  0.00  0.00    -0.327 N 
ATOM      8  N   UNL     1      -8.395 -12.193   3.091  0.00  0.00    -0.313 NA
ATOM     24  C   UNL     1      -6.514 -11.048   4.211  0.00  0.00    +0.120 C 
ATOM     25  C   UNL     1      -7.806 -12.799   5.414  0.00  0.00    +0.120 C 
ATOM     29  C   UNL     1      -7.678 -10.926   3.229  0.00  0.00    +0.100 C 
ATOM     30  C   UNL     1      -8.924 -12.615   4.387  0.00  0.00    +0.100 C 
ATOM     41  H   UNL     1      -9.167 -12.072   2.437  0.00  0.00    +0.122 HD
ENDBRANCH  26   7
BRANCH  10  15
ATOM     15  C   UNL     1      -2.846 -11.033  15.425  0.00  0.00    +0.100 C 
BRANCH  15  18
ATOM      2  O   UNL     1      -4.239  -9.750  16.932  0.00  0.00    -0.276 OA
ATOM      5  N   UNL     1      -3.373 -11.790  17.631  0.00  0.00    -0.311 N 
ATOM     18  C   UNL     1      -3.571 -10.759  16.724  0.00  0.00    +0.214 C 
ATOM     39  H   UNL     1      -2.795 -12.583  17.370  0.00  0.00    +0.149 HD
BRANCH   5  27
ATOM     27  C   UNL     1      -3.945 -11.795  18.958  0.00  0.00    +0.141 C 
BRANCH  27  34
ATOM      9  N   UNL     1      -7.412 -13.079  18.168  0.00  0.00    -0.263 NA
ATOM     34  C   UNL     1      -5.442 -11.900  18.925  0.00  0.00    -0.012 A 
ATOM     35  C   UNL     1      -6.241 -10.970  19.580  0.00  0.00    +0.008 A 
ATOM     36  C   UNL     1      -6.071 -12.927  18.238  0.00  0.00    +0.115 A 
ATOM     37  C   UNL     1      -7.625 -11.094  19.530  0.00  0.00    +0.020 A 
ATOM     38  C   UNL     1      -8.156 -12.157  18.817  0.00  0.00    +0.111 A 
ENDBRANCH  27  34
ENDBRANCH   5  27
ENDBRANCH  15  18
ENDBRANCH  10  15
TORSDOF 5
ENDMDL
MODEL 9
REMARK VINA RESULT:      -6.9     21.176     24.420
REMARK  Name = 71694358
REMARK  5 active torsions:
REMARK  status: ('A' for Active; 'I' for Inactive)
REMARK    1  A    between atoms: N_5  and  C_27
REMARK    2  A    between atoms: N_7  and  C_26
REMARK    3  A    between atoms: C_10  and  C_15
REMARK    4  A    between atoms: C_15  and  C_18
REMARK    5  A    between atoms: C_27  and  C_34
REMARK                            x       y       z     vdW  Elec       q    Type
REMARK                         _______ _______ _______ _____ _____    ______ ____
ROOT
ATOM      1  O   UNL     1      -4.827 -14.116  35.976  0.00  0.00    -0.274 OA
ATOM      3  O   UNL     1      -9.641 -11.976  36.611  0.00  0.00    -0.488 OA
ATOM      4  N   UNL     1      -6.842 -15.060  35.336  0.00  0.00    -0.300 N 
ATOM      6  N   UNL     1      -7.373 -13.261  37.903  0.00  0.00    -0.304 NA
ATOM     10  C   UNL     1      -8.737 -14.372  33.233  0.00  0.00    +0.008 C 
ATOM     11  C   UNL     1      -9.073 -14.284  34.751  0.00  0.00    +0.032 C 
ATOM     12  C   UNL     1      -7.207 -14.248  33.044  0.00  0.00    +0.023 C 
ATOM     13  C   UNL     1      -8.268 -15.327  35.550  0.00  0.00    +0.115 C 
ATOM     14  C   UNL     1      -6.421 -15.208  33.941  0.00  0.00    +0.108 C 
ATOM     16  C   UNL     1     -10.543 -14.373  35.063  0.00  0.00    -0.023 C 
ATOM     17  C   UNL     1      -5.970 -14.491  36.264  0.00  0.00    +0.229 C 
ATOM     19  C   UNL     1     -11.327 -13.476  35.686  0.00  0.00    +0.010 C 
ATOM     20  C   UNL     1      -6.426 -14.355  37.705  0.00  0.00    +0.178 C 
ATOM     21  C   UNL     1     -11.023 -12.141  36.317  0.00  0.00    +0.256 C 
ATOM     22  C   UNL     1      -6.927 -11.960  37.410  0.00  0.00    +0.120 C 
ATOM     23  C   UNL     1      -7.907 -10.855  37.766  0.00  0.00    +0.010 A 
ATOM     26  C   UNL     1      -8.307  -8.715  38.851  0.00  0.00    +0.030 A 
ATOM     28  C   UNL     1      -9.256 -10.881  37.344  0.00  0.00    +0.125 A 
ATOM     31  C   UNL     1      -7.449  -9.762  38.520  0.00  0.00    +0.031 A 
ATOM     32  C   UNL     1      -9.633  -8.744  38.429  0.00  0.00    +0.027 A 
ATOM     33  C   UNL     1     -10.107  -9.820  37.677  0.00  0.00    +0.048 A 
ATOM     40  H   UNL     1      -7.583 -13.194  38.898  0.00  0.00    +0.123 HD
ENDROOT
BRANCH  26   7
ATOM      7  N   UNL     1      -7.835  -7.634  39.604  0.00  0.00    -0.327 N 
ATOM      8  N   UNL     1      -7.068  -5.465  41.295  0.00  0.00    -0.313 NA
ATOM     24  C   UNL     1      -8.669  -6.425  39.676  0.00  0.00    +0.120 C 
ATOM     25  C   UNL     1      -6.966  -7.876  40.760  0.00  0.00    +0.120 C 
ATOM     29  C   UNL     1      -7.823  -5.215  40.067  0.00  0.00    +0.100 C 
ATOM     30  C   UNL     1      -6.181  -6.613  41.115  0.00  0.00    +0.100 C 
ATOM     41  H   UNL     1      -6.512  -4.642  41.521  0.00  0.00    +0.122 HD
ENDBRANCH  26   7
BRANCH  10  15
ATOM     15  C   UNL     1      -9.266 -15.630  32.533  0.00  0.00    +0.100 C 
BRANCH  15  18
ATOM      2  O   UNL     1      -9.773 -15.115  30.224  0.00  0.00    -0.276 OA
ATOM      5  N   UNL     1     -11.496 -15.219  31.780  0.00  0.00    -0.311 N 
ATOM     18  C   UNL     1     -10.173 -15.295  31.371  0.00  0.00    +0.214 C 
ATOM     39  H   UNL     1     -11.730 -15.377  32.755  0.00  0.00    +0.149 HD
BRANCH   5  27
ATOM     27  C   UNL     1     -12.583 -14.910  30.879  0.00  0.00    +0.141 C 
BRANCH  27  34
ATOM      9  N   UNL     1     -15.291 -12.279  31.100  0.00  0.00    -0.263 NA
ATOM     34  C   UNL     1     -13.513 -13.880  31.452  0.00  0.00    -0.012 A 
ATOM     35  C   UNL     1     -13.483 -13.560  32.805  0.00  0.00    +0.008 A 
ATOM     36  C   UNL     1     -14.427 -13.216  30.649  0.00  0.00    +0.115 A 
ATOM     37  C   UNL     1     -14.356 -12.600  33.306  0.00  0.00    +0.020 A 
ATOM     38  C   UNL     1     -15.233 -11.995  32.420  0.00  0.00    +0.111 A 
ENDBRANCH  27  34
ENDBRANCH   5  27
ENDBRANCH  15  18
ENDBRANCH  10  15
TORSDOF 5
ENDMDL
MODEL 10
REMARK VINA RESULT:      -6.8      9.015     12.348
REMARK  Name = 71694358
REMARK  5 active torsions:
REMARK  status: ('A' for Active; 'I' for Inactive)
REMARK    1  A    between atoms: N_5  and  C_27
REMARK    2  A    between atoms: N_7  and  C_26
REMARK    3  A    between atoms: C_10  and  C_15
REMARK    4  A    between atoms: C_15  and  C_18
REMARK    5  A    between atoms: C_27  and  C_34
REMARK                            x       y       z     vdW  Elec       q    Type
REMARK                         _______ _______ _______ _____ _____    ______ ____
ROOT
ATOM      1  O   UNL     1     -11.570   7.698  36.273  0.00  0.00    -0.274 OA
ATOM      3  O   UNL     1     -11.677  10.934  32.069  0.00  0.00    -0.488 OA
ATOM      4  N   UNL     1     -13.427   8.223  34.995  0.00  0.00    -0.300 N 
ATOM      6  N   UNL     1     -11.475  10.732  34.964  0.00  0.00    -0.304 NA
ATOM     10  C   UNL     1     -14.181   7.520  32.270  0.00  0.00    +0.008 C 
ATOM     11  C   UNL     1     -13.879   8.978  32.726  0.00  0.00    +0.032 C 
ATOM     12  C   UNL     1     -13.448   6.533  33.209  0.00  0.00    +0.023 C 
ATOM     13  C   UNL     1     -14.231   9.169  34.214  0.00  0.00    +0.115 C 
ATOM     14  C   UNL     1     -13.713   6.820  34.689  0.00  0.00    +0.108 C 
ATOM     16  C   UNL     1     -14.524  10.037  31.872  0.00  0.00    -0.023 C 
ATOM     17  C   UNL     1     -12.324   8.548  35.785  0.00  0.00    +0.229 C 
ATOM     19  C   UNL     1     -13.941  11.020  31.165  0.00  0.00    +0.010 C 
ATOM     20  C   UNL     1     -12.053  10.009  36.093  0.00  0.00    +0.178 C 
ATOM     21  C   UNL     1     -12.499  11.434  31.021  0.00  0.00    +0.256 C 
ATOM     22  C   UNL     1     -10.275  10.127  34.390  0.00  0.00    +0.120 C 
ATOM     23  C   UNL     1      -9.663  11.002  33.309  0.00  0.00    +0.010 A 
ATOM     26  C   UNL     1      -7.723  12.210  32.478  0.00  0.00    +0.030 A 
ATOM     28  C   UNL     1     -10.381  11.381  32.152  0.00  0.00    +0.125 A 
ATOM     31  C   UNL     1      -8.333  11.425  33.455  0.00  0.00    +0.031 A 
ATOM     32  C   UNL     1      -8.433  12.578  31.340  0.00  0.00    +0.027 A 
ATOM     33  C   UNL     1      -9.756  12.164  31.174  0.00  0.00    +0.048 A 
ATOM     40  H   UNL     1     -11.264  11.683  35.265  0.00  0.00    +0.123 HD
ENDROOT
BRANCH  26   7
ATOM      7  N   UNL     1      -6.397  12.626  32.640  0.00  0.00    -0.327 N 
ATOM      8  N   UNL     1      -3.781  13.695  33.051  0.00  0.00    -0.313 NA
ATOM     24  C   UNL     1      -5.906  13.722  31.792  0.00  0.00    +0.120 C 
ATOM     25  C   UNL     1      -5.748  12.498  33.950  0.00  0.00    +0.120 C 
ATOM     29  C   UNL     1      -4.381  13.699  31.717  0.00  0.00    +0.100 C 
ATOM     30  C   UNL     1      -4.227  12.520  33.799  0.00  0.00    +0.100 C 
ATOM     41  H   UNL     1      -2.766  13.672  32.963  0.00  0.00    +0.122 HD
ENDBRANCH  26   7
BRANCH  10  15
ATOM     15  C   UNL     1     -15.672   7.173  32.182  0.00  0.00    +0.100 C 
BRANCH  15  18
ATOM      2  O   UNL     1     -16.536   7.173  29.921  0.00  0.00    -0.276 OA
ATOM      5  N   UNL     1     -15.722   5.198  30.837  0.00  0.00    -0.311 N 
ATOM     18  C   UNL     1     -16.033   6.550  30.852  0.00  0.00    +0.214 C 
ATOM     39  H   UNL     1     -15.314   4.768  31.661  0.00  0.00    +0.149 HD
BRANCH   5  27
ATOM     27  C   UNL     1     -15.962   4.346  29.694  0.00  0.00    +0.141 C 
BRANCH  27  34
ATOM      9  N   UNL     1     -13.467   1.664  30.635  0.00  0.00    -0.263 NA
ATOM     34  C   UNL     1     -15.332   2.993  29.859  0.00  0.00    -0.012 A 
ATOM     35  C   UNL     1     -15.977   1.844  29.416  0.00  0.00    +0.008 A 
ATOM     36  C   UNL     1     -14.089   2.851  30.456  0.00  0.00    +0.115 A 
ATOM     37  C   UNL     1     -15.368   0.604  29.582  0.00  0.00    +0.020 A 
ATOM     38  C   UNL     1     -14.124   0.569  30.192  0.00  0.00    +0.111 A 
ENDBRANCH  27  34
ENDBRANCH   5  27
ENDBRANCH  15  18
ENDBRANCH  10  15
TORSDOF 5
ENDMDL
