MODEL 1
REMARK VINA RESULT:      -6.2      0.000      0.000
REMARK  Name = 28959726
REMARK  9 active torsions:
REMARK  status: ('A' for Active; 'I' for Inactive)
REMARK    1  A    between atoms: O_2  and  C_21
REMARK    2  A    between atoms: O_4  and  C_27
REMARK    3  A    between atoms: O_4  and  C_28
REMARK    4  A    between atoms: N_6  and  C_13
REMARK    5  A    between atoms: C_7  and  C_10
REMARK    6  A    between atoms: C_8  and  C_14
REMARK    7  A    between atoms: C_10  and  C_13
REMARK    8  A    between atoms: C_14  and  C_21
REMARK    9  A    between atoms: C_20  and  C_22
REMARK                            x       y       z     vdW  Elec       q    Type
REMARK                         _______ _______ _______ _____ _____    ______ ____
ROOT
ATOM      1  O   UNL     1      -8.810 -11.025  18.653  0.00  0.00    -0.270 OA
ATOM      5  N   UNL     1      -6.902 -10.112  17.654  0.00  0.00    -0.297 N 
ATOM      7  C   UNL     1      -5.326  -9.996  15.735  0.00  0.00    +0.011 C 
ATOM      8  C   UNL     1      -4.311 -10.816  16.571  0.00  0.00    +0.006 C 
ATOM      9  C   UNL     1      -6.270  -9.219  16.672  0.00  0.00    +0.112 C 
ATOM     11  C   UNL     1      -5.017 -11.698  17.615  0.00  0.00    +0.023 C 
ATOM     12  C   UNL     1      -5.968 -10.875  18.479  0.00  0.00    +0.108 C 
ATOM     20  C   UNL     1      -8.277 -10.276  17.837  0.00  0.00    +0.247 C 
ENDROOT
BRANCH  20  22
ATOM     22  C   UNL     1      -9.183  -9.493  16.989  0.00  0.00    +0.037 A 
ATOM     23  C   UNL     1      -9.644 -10.024  15.785  0.00  0.00    +0.016 A 
ATOM     24  C   UNL     1      -9.583  -8.216  17.388  0.00  0.00    +0.016 A 
ATOM     25  C   UNL     1     -10.505  -9.279  14.979  0.00  0.00    +0.046 A 
ATOM     26  C   UNL     1     -10.442  -7.471  16.581  0.00  0.00    +0.046 A 
ATOM     27  C   UNL     1     -10.904  -8.003  15.376  0.00  0.00    +0.120 A 
BRANCH  27   4
ATOM      4  O   UNL     1     -11.743  -7.275  14.590  0.00  0.00    -0.495 OA
ATOM     28  C   UNL     1     -11.732  -5.859  14.767  0.00  0.00    +0.277 C 
ENDBRANCH  27   4
ENDBRANCH  20  22
BRANCH   7  10
ATOM     10  C   UNL     1      -6.137 -10.837  14.741  0.00  0.00    +0.020 C 
BRANCH  10  13
ATOM     13  C   UNL     1      -6.649  -9.979  13.594  0.00  0.00    +0.085 C 
BRANCH  13   6
ATOM      6  N   UNL     1      -5.538  -9.603  12.719  0.00  0.00    -0.302 NA
ATOM     15  C   UNL     1      -4.761 -10.791  12.335  0.00  0.00    +0.084 C 
ATOM     16  C   UNL     1      -6.035  -8.888  11.537  0.00  0.00    +0.084 C 
ATOM     17  C   UNL     1      -3.567 -10.409  11.460  0.00  0.00    +0.015 C 
ATOM     18  C   UNL     1      -4.882  -8.444  10.634  0.00  0.00    +0.015 C 
ATOM     19  C   UNL     1      -4.009  -9.625  10.229  0.00  0.00    +0.002 C 
ENDBRANCH  13   6
ENDBRANCH  10  13
ENDBRANCH   7  10
BRANCH   8  14
ATOM     14  C   UNL     1      -3.362 -11.653  15.712  0.00  0.00    +0.124 C 
BRANCH  14  21
ATOM      3  O   UNL     1      -1.709 -10.377  14.455  0.00  0.00    -0.251 OA
ATOM     21  C   UNL     1      -2.055 -10.947  15.479  0.00  0.00    +0.305 C 
BRANCH  21   2
ATOM      2  O   UNL     1      -1.286 -11.029  16.594  0.00  0.00    -0.481 OA
ATOM     29  H   UNL     1      -0.476 -10.479  16.521  0.00  0.00    +0.295 HD
ENDBRANCH  21   2
ENDBRANCH  14  21
ENDBRANCH   8  14
TORSDOF 8
ENDMDL
MODEL 2
REMARK VINA RESULT:      -6.1      2.518      6.522
REMARK  Name = 28959726
REMARK  9 active torsions:
REMARK  status: ('A' for Active; 'I' for Inactive)
REMARK    1  A    between atoms: O_2  and  C_21
REMARK    2  A    between atoms: O_4  and  C_27
REMARK    3  A    between atoms: O_4  and  C_28
REMARK    4  A    between atoms: N_6  and  C_13
REMARK    5  A    between atoms: C_7  and  C_10
REMARK    6  A    between atoms: C_8  and  C_14
REMARK    7  A    between atoms: C_10  and  C_13
REMARK    8  A    between atoms: C_14  and  C_21
REMARK    9  A    between atoms: C_20  and  C_22
REMARK                            x       y       z     vdW  Elec       q    Type
REMARK                         _______ _______ _______ _____ _____    ______ ____
ROOT
ATOM      1  O   UNL     1      -1.393  -9.868  12.373  0.00  0.00    -0.270 OA
ATOM      5  N   UNL     1      -2.649 -11.269  13.764  0.00  0.00    -0.297 N 
ATOM      7  C   UNL     1      -4.571 -11.607  15.303  0.00  0.00    +0.011 C 
ATOM      8  C   UNL     1      -3.575 -11.574  16.490  0.00  0.00    +0.006 C 
ATOM      9  C   UNL     1      -3.849 -12.075  14.026  0.00  0.00    +0.112 C 
ATOM     11  C   UNL     1      -2.316 -10.758  16.151  0.00  0.00    +0.023 C 
ATOM     12  C   UNL     1      -1.675 -11.244  14.853  0.00  0.00    +0.108 C 
ATOM     20  C   UNL     1      -2.393 -10.549  12.594  0.00  0.00    +0.247 C 
ENDROOT
BRANCH  20  22
ATOM     22  C   UNL     1      -3.393 -10.597  11.522  0.00  0.00    +0.037 A 
ATOM     23  C   UNL     1      -3.363 -11.631  10.587  0.00  0.00    +0.016 A 
ATOM     24  C   UNL     1      -4.373  -9.607  11.437  0.00  0.00    +0.016 A 
ATOM     25  C   UNL     1      -4.313 -11.676   9.566  0.00  0.00    +0.046 A 
ATOM     26  C   UNL     1      -5.322  -9.652  10.417  0.00  0.00    +0.046 A 
ATOM     27  C   UNL     1      -5.292 -10.687   9.480  0.00  0.00    +0.120 A 
BRANCH  27   4
ATOM      4  O   UNL     1      -6.219 -10.730   8.485  0.00  0.00    -0.495 OA
ATOM     28  C   UNL     1      -5.752 -10.516   7.153  0.00  0.00    +0.277 C 
ENDBRANCH  27   4
ENDBRANCH  20  22
BRANCH   7  10
ATOM     10  C   UNL     1      -5.284 -10.273  15.052  0.00  0.00    +0.020 C 
BRANCH  10  13
ATOM     13  C   UNL     1      -6.629 -10.494  14.376  0.00  0.00    +0.085 C 
BRANCH  13   6
ATOM      6  N   UNL     1      -7.712 -10.185  15.310  0.00  0.00    -0.302 NA
ATOM     15  C   UNL     1      -7.197  -9.438  16.466  0.00  0.00    +0.084 C 
ATOM     16  C   UNL     1      -8.779  -9.440  14.628  0.00  0.00    +0.084 C 
ATOM     17  C   UNL     1      -8.309  -9.149  17.475  0.00  0.00    +0.015 C 
ATOM     18  C   UNL     1      -9.943  -9.151  15.578  0.00  0.00    +0.015 C 
ATOM     19  C   UNL     1      -9.472  -8.410  16.823  0.00  0.00    +0.002 C 
ENDBRANCH  13   6
ENDBRANCH  10  13
ENDBRANCH   7  10
BRANCH   8  14
ATOM     14  C   UNL     1      -4.205 -11.076  17.790  0.00  0.00    +0.124 C 
BRANCH  14  21
ATOM      3  O   UNL     1      -3.372 -12.149  19.814  0.00  0.00    -0.251 OA
ATOM     21  C   UNL     1      -4.148 -12.120  18.871  0.00  0.00    +0.305 C 
BRANCH  21   2
ATOM      2  O   UNL     1      -5.105 -13.058  18.652  0.00  0.00    -0.481 OA
ATOM     29  H   UNL     1      -4.723 -13.957  18.560  0.00  0.00    +0.295 HD
ENDBRANCH  21   2
ENDBRANCH  14  21
ENDBRANCH   8  14
TORSDOF 8
ENDMDL
MODEL 3
REMARK VINA RESULT:      -5.5     18.131     22.012
REMARK  Name = 28959726
REMARK  9 active torsions:
REMARK  status: ('A' for Active; 'I' for Inactive)
REMARK    1  A    between atoms: O_2  and  C_21
REMARK    2  A    between atoms: O_4  and  C_27
REMARK    3  A    between atoms: O_4  and  C_28
REMARK    4  A    between atoms: N_6  and  C_13
REMARK    5  A    between atoms: C_7  and  C_10
REMARK    6  A    between atoms: C_8  and  C_14
REMARK    7  A    between atoms: C_10  and  C_13
REMARK    8  A    between atoms: C_14  and  C_21
REMARK    9  A    between atoms: C_20  and  C_22
REMARK                            x       y       z     vdW  Elec       q    Type
REMARK                         _______ _______ _______ _____ _____    ______ ____
ROOT
ATOM      1  O   UNL     1      -9.793   9.355  17.730  0.00  0.00    -0.270 OA
ATOM      5  N   UNL     1     -11.873   8.628  18.516  0.00  0.00    -0.297 N 
ATOM      7  C   UNL     1     -13.565   8.517  20.333  0.00  0.00    +0.011 C 
ATOM      8  C   UNL     1     -13.124   7.055  20.600  0.00  0.00    +0.006 C 
ATOM      9  C   UNL     1     -13.275   8.893  18.868  0.00  0.00    +0.112 C 
ATOM     11  C   UNL     1     -11.666   6.816  20.171  0.00  0.00    +0.023 C 
ATOM     12  C   UNL     1     -11.437   7.250  18.726  0.00  0.00    +0.108 C 
ATOM     20  C   UNL     1     -10.968   9.570  18.020  0.00  0.00    +0.247 C 
ENDROOT
BRANCH  20  22
ATOM     22  C   UNL     1     -11.442  10.944  17.822  0.00  0.00    +0.037 A 
ATOM     23  C   UNL     1     -11.324  11.878  18.852  0.00  0.00    +0.016 A 
ATOM     24  C   UNL     1     -12.012  11.317  16.604  0.00  0.00    +0.016 A 
ATOM     25  C   UNL     1     -11.776  13.184  18.664  0.00  0.00    +0.046 A 
ATOM     26  C   UNL     1     -12.464  12.622  16.417  0.00  0.00    +0.046 A 
ATOM     27  C   UNL     1     -12.346  13.557  17.447  0.00  0.00    +0.120 A 
BRANCH  27   4
ATOM      4  O   UNL     1     -12.788  14.830  17.263  0.00  0.00    -0.495 OA
ATOM     28  C   UNL     1     -12.671  15.374  15.948  0.00  0.00    +0.277 C 
ENDBRANCH  27   4
ENDBRANCH  20  22
BRANCH   7  10
ATOM     10  C   UNL     1     -12.929   9.541  21.281  0.00  0.00    +0.020 C 
BRANCH  10  13
ATOM     13  C   UNL     1     -13.968  10.531  21.787  0.00  0.00    +0.085 C 
BRANCH  13   6
ATOM      6  N   UNL     1     -13.640  10.943  23.152  0.00  0.00    -0.302 NA
ATOM     15  C   UNL     1     -14.073   9.921  24.116  0.00  0.00    +0.084 C 
ATOM     16  C   UNL     1     -12.201  11.211  23.274  0.00  0.00    +0.084 C 
ATOM     17  C   UNL     1     -13.782  10.359  25.552  0.00  0.00    +0.015 C 
ATOM     18  C   UNL     1     -11.847  11.691  24.684  0.00  0.00    +0.015 C 
ATOM     19  C   UNL     1     -12.306  10.694  25.740  0.00  0.00    +0.002 C 
ENDBRANCH  13   6
ENDBRANCH  10  13
ENDBRANCH   7  10
BRANCH   8  14
ATOM     14  C   UNL     1     -13.339   6.617  22.048  0.00  0.00    +0.124 C 
BRANCH  14  21
ATOM      3  O   UNL     1     -14.563   4.526  21.786  0.00  0.00    -0.251 OA
ATOM     21  C   UNL     1     -13.569   5.135  22.152  0.00  0.00    +0.305 C 
BRANCH  21   2
ATOM      2  O   UNL     1     -12.489   4.544  22.726  0.00  0.00    -0.481 OA
ATOM     29  H   UNL     1     -11.852   5.204  23.074  0.00  0.00    +0.295 HD
ENDBRANCH  21   2
ENDBRANCH  14  21
ENDBRANCH   8  14
TORSDOF 8
ENDMDL
MODEL 4
REMARK VINA RESULT:      -5.5      3.055      7.576
REMARK  Name = 28959726
REMARK  9 active torsions:
REMARK  status: ('A' for Active; 'I' for Inactive)
REMARK    1  A    between atoms: O_2  and  C_21
REMARK    2  A    between atoms: O_4  and  C_27
REMARK    3  A    between atoms: O_4  and  C_28
REMARK    4  A    between atoms: N_6  and  C_13
REMARK    5  A    between atoms: C_7  and  C_10
REMARK    6  A    between atoms: C_8  and  C_14
REMARK    7  A    between atoms: C_10  and  C_13
REMARK    8  A    between atoms: C_14  and  C_21
REMARK    9  A    between atoms: C_20  and  C_22
REMARK                            x       y       z     vdW  Elec       q    Type
REMARK                         _______ _______ _______ _____ _____    ______ ____
ROOT
ATOM      1  O   UNL     1      -6.484 -11.590  20.448  0.00  0.00    -0.270 OA
ATOM      5  N   UNL     1      -8.321 -11.770  19.011  0.00  0.00    -0.297 N 
ATOM      7  C   UNL     1      -9.974 -10.703  17.492  0.00  0.00    +0.011 C 
ATOM      8  C   UNL     1     -11.033 -10.837  18.615  0.00  0.00    +0.006 C 
ATOM      9  C   UNL     1      -8.894 -11.788  17.657  0.00  0.00    +0.112 C 
ATOM     11  C   UNL     1     -10.381 -10.861  20.008  0.00  0.00    +0.023 C 
ATOM     12  C   UNL     1      -9.292 -11.927  20.091  0.00  0.00    +0.108 C 
ATOM     20  C   UNL     1      -6.967 -11.612  19.318  0.00  0.00    +0.247 C 
ENDROOT
BRANCH  20  22
ATOM     22  C   UNL     1      -6.021 -11.457  18.208  0.00  0.00    +0.037 A 
ATOM     23  C   UNL     1      -5.746 -10.188  17.698  0.00  0.00    +0.016 A 
ATOM     24  C   UNL     1      -5.397 -12.579  17.660  0.00  0.00    +0.016 A 
ATOM     25  C   UNL     1      -4.848 -10.041  16.641  0.00  0.00    +0.046 A 
ATOM     26  C   UNL     1      -4.500 -12.432  16.604  0.00  0.00    +0.046 A 
ATOM     27  C   UNL     1      -4.225 -11.162  16.093  0.00  0.00    +0.120 A 
BRANCH  27   4
ATOM      4  O   UNL     1      -3.349 -11.020  15.062  0.00  0.00    -0.495 OA
ATOM     28  C   UNL     1      -1.968 -11.241  15.349  0.00  0.00    +0.277 C 
ENDBRANCH  27   4
ENDBRANCH  20  22
BRANCH   7  10
ATOM     10  C   UNL     1      -9.325  -9.316  17.410  0.00  0.00    +0.020 C 
BRANCH  10  13
ATOM     13  C   UNL     1      -9.041  -8.933  15.965  0.00  0.00    +0.085 C 
BRANCH  13   6
ATOM      6  N   UNL     1      -9.988  -7.907  15.527  0.00  0.00    -0.302 NA
ATOM     15  C   UNL     1     -11.105  -8.518  14.792  0.00  0.00    +0.084 C 
ATOM     16  C   UNL     1     -10.470  -7.130  16.676  0.00  0.00    +0.084 C 
ATOM     17  C   UNL     1     -12.078  -7.453  14.284  0.00  0.00    +0.015 C 
ATOM     18  C   UNL     1     -11.424  -6.019  16.231  0.00  0.00    +0.015 C 
ATOM     19  C   UNL     1     -12.589  -6.580  15.426  0.00  0.00    +0.002 C 
ENDBRANCH  13   6
ENDBRANCH  10  13
ENDBRANCH   7  10
BRANCH   8  14
ATOM     14  C   UNL     1     -12.121  -9.766  18.547  0.00  0.00    +0.124 C 
BRANCH  14  21
ATOM      3  O   UNL     1     -13.554  -9.432  20.490  0.00  0.00    -0.251 OA
ATOM     21  C   UNL     1     -13.255 -10.064  19.488  0.00  0.00    +0.305 C 
BRANCH  21   2
ATOM      2  O   UNL     1     -13.924 -11.166  19.062  0.00  0.00    -0.481 OA
ATOM     29  H   UNL     1     -13.521 -11.549  18.254  0.00  0.00    +0.295 HD
ENDBRANCH  21   2
ENDBRANCH  14  21
ENDBRANCH   8  14
TORSDOF 8
ENDMDL
MODEL 5
REMARK VINA RESULT:      -5.5     29.000     30.501
REMARK  Name = 28959726
REMARK  9 active torsions:
REMARK  status: ('A' for Active; 'I' for Inactive)
REMARK    1  A    between atoms: O_2  and  C_21
REMARK    2  A    between atoms: O_4  and  C_27
REMARK    3  A    between atoms: O_4  and  C_28
REMARK    4  A    between atoms: N_6  and  C_13
REMARK    5  A    between atoms: C_7  and  C_10
REMARK    6  A    between atoms: C_8  and  C_14
REMARK    7  A    between atoms: C_10  and  C_13
REMARK    8  A    between atoms: C_14  and  C_21
REMARK    9  A    between atoms: C_20  and  C_22
REMARK                            x       y       z     vdW  Elec       q    Type
REMARK                         _______ _______ _______ _____ _____    ______ ____
ROOT
ATOM      1  O   UNL     1      -3.942   7.847  40.984  0.00  0.00    -0.270 OA
ATOM      5  N   UNL     1      -3.756   8.222  38.682  0.00  0.00    -0.297 N 
ATOM      7  C   UNL     1      -2.710   9.431  36.779  0.00  0.00    +0.011 C 
ATOM      8  C   UNL     1      -4.003  10.278  36.658  0.00  0.00    +0.006 C 
ATOM      9  C   UNL     1      -3.035   8.065  37.410  0.00  0.00    +0.112 C 
ATOM     11  C   UNL     1      -4.745  10.373  38.002  0.00  0.00    +0.023 C 
ATOM     12  C   UNL     1      -4.997   8.989  38.594  0.00  0.00    +0.108 C 
ATOM     20  C   UNL     1      -3.346   7.714  39.917  0.00  0.00    +0.247 C 
ENDROOT
BRANCH  20  22
ATOM     22  C   UNL     1      -2.095   6.948  39.966  0.00  0.00    +0.037 A 
ATOM     23  C   UNL     1      -2.121   5.561  39.827  0.00  0.00    +0.016 A 
ATOM     24  C   UNL     1      -0.880   7.608  40.155  0.00  0.00    +0.016 A 
ATOM     25  C   UNL     1      -0.932   4.833  39.876  0.00  0.00    +0.046 A 
ATOM     26  C   UNL     1       0.308   6.881  40.204  0.00  0.00    +0.046 A 
ATOM     27  C   UNL     1       0.283   5.492  40.065  0.00  0.00    +0.120 A 
BRANCH  27   4
ATOM      4  O   UNL     1       1.443   4.783  40.112  0.00  0.00    -0.495 OA
ATOM     28  C   UNL     1       2.383   5.146  41.123  0.00  0.00    +0.277 C 
ENDBRANCH  27   4
ENDBRANCH  20  22
BRANCH   7  10
ATOM     10  C   UNL     1      -1.584  10.122  37.557  0.00  0.00    +0.020 C 
BRANCH  10  13
ATOM     13  C   UNL     1      -0.246   9.938  36.855  0.00  0.00    +0.085 C 
BRANCH  13   6
ATOM      6  N   UNL     1       0.213  11.218  36.317  0.00  0.00    -0.302 NA
ATOM     15  C   UNL     1      -0.182  11.356  34.908  0.00  0.00    +0.084 C 
ATOM     16  C   UNL     1      -0.305  12.331  37.124  0.00  0.00    +0.084 C 
ATOM     17  C   UNL     1       0.334  12.668  34.315  0.00  0.00    +0.015 C 
ATOM     18  C   UNL     1       0.206  13.676  36.604  0.00  0.00    +0.015 C 
ATOM     19  C   UNL     1      -0.135  13.867  35.132  0.00  0.00    +0.002 C 
ENDBRANCH  13   6
ENDBRANCH  10  13
ENDBRANCH   7  10
BRANCH   8  14
ATOM     14  C   UNL     1      -3.757  11.670  36.077  0.00  0.00    +0.124 C 
BRANCH  14  21
ATOM      3  O   UNL     1      -3.875  12.509  33.792  0.00  0.00    -0.251 OA
ATOM     21  C   UNL     1      -4.310  11.797  34.685  0.00  0.00    +0.305 C 
BRANCH  21   2
ATOM      2  O   UNL     1      -5.393  10.990  34.547  0.00  0.00    -0.481 OA
ATOM     29  H   UNL     1      -6.229  11.502  34.512  0.00  0.00    +0.295 HD
ENDBRANCH  21   2
ENDBRANCH  14  21
ENDBRANCH   8  14
TORSDOF 8
ENDMDL
MODEL 6
REMARK VINA RESULT:      -5.4      3.095      6.547
REMARK  Name = 28959726
REMARK  9 active torsions:
REMARK  status: ('A' for Active; 'I' for Inactive)
REMARK    1  A    between atoms: O_2  and  C_21
REMARK    2  A    between atoms: O_4  and  C_27
REMARK    3  A    between atoms: O_4  and  C_28
REMARK    4  A    between atoms: N_6  and  C_13
REMARK    5  A    between atoms: C_7  and  C_10
REMARK    6  A    between atoms: C_8  and  C_14
REMARK    7  A    between atoms: C_10  and  C_13
REMARK    8  A    between atoms: C_14  and  C_21
REMARK    9  A    between atoms: C_20  and  C_22
REMARK                            x       y       z     vdW  Elec       q    Type
REMARK                         _______ _______ _______ _____ _____    ______ ____
ROOT
ATOM      1  O   UNL     1      -1.134  -9.813  11.953  0.00  0.00    -0.270 OA
ATOM      5  N   UNL     1      -2.610 -11.165  13.164  0.00  0.00    -0.297 N 
ATOM      7  C   UNL     1      -4.709 -11.423  14.469  0.00  0.00    +0.011 C 
ATOM      8  C   UNL     1      -3.854 -11.461  15.762  0.00  0.00    +0.006 C 
ATOM      9  C   UNL     1      -3.871 -11.911  13.273  0.00  0.00    +0.112 C 
ATOM     11  C   UNL     1      -2.525 -10.708  15.584  0.00  0.00    +0.023 C 
ATOM     12  C   UNL     1      -1.766 -11.208  14.357  0.00  0.00    +0.108 C 
ATOM     20  C   UNL     1      -2.186 -10.443  12.046  0.00  0.00    +0.247 C 
ENDROOT
BRANCH  20  22
ATOM     22  C   UNL     1      -3.058 -10.422  10.867  0.00  0.00    +0.037 A 
ATOM     23  C   UNL     1      -3.562 -11.616  10.352  0.00  0.00    +0.016 A 
ATOM     24  C   UNL     1      -3.383  -9.208  10.260  0.00  0.00    +0.016 A 
ATOM     25  C   UNL     1      -4.391 -11.597   9.230  0.00  0.00    +0.046 A 
ATOM     26  C   UNL     1      -4.211  -9.189   9.138  0.00  0.00    +0.046 A 
ATOM     27  C   UNL     1      -4.715 -10.384   8.623  0.00  0.00    +0.120 A 
BRANCH  27   4
ATOM      4  O   UNL     1      -5.523 -10.364   7.528  0.00  0.00    -0.495 OA
ATOM     28  C   UNL     1      -5.077 -11.085   6.379  0.00  0.00    +0.277 C 
ENDBRANCH  27   4
ENDBRANCH  20  22
BRANCH   7  10
ATOM     10  C   UNL     1      -5.320 -10.049  14.167  0.00  0.00    +0.020 C 
BRANCH  10  13
ATOM     13  C   UNL     1      -6.830 -10.074  14.350  0.00  0.00    +0.085 C 
BRANCH  13   6
ATOM      6  N   UNL     1      -7.487 -10.229  13.052  0.00  0.00    -0.302 NA
ATOM     15  C   UNL     1      -8.926  -9.953  13.167  0.00  0.00    +0.084 C 
ATOM     16  C   UNL     1      -6.857  -9.357  12.052  0.00  0.00    +0.084 C 
ATOM     17  C   UNL     1      -9.635 -10.158  11.828  0.00  0.00    +0.015 C 
ATOM     18  C   UNL     1      -7.499  -9.542  10.675  0.00  0.00    +0.015 C 
ATOM     19  C   UNL     1      -9.004  -9.309  10.730  0.00  0.00    +0.002 C 
ENDBRANCH  13   6
ENDBRANCH  10  13
ENDBRANCH   7  10
BRANCH   8  14
ATOM     14  C   UNL     1      -4.602 -10.949  16.992  0.00  0.00    +0.124 C 
BRANCH  14  21
ATOM      3  O   UNL     1      -6.115 -12.056  18.551  0.00  0.00    -0.251 OA
ATOM     21  C   UNL     1      -5.125 -12.080  17.835  0.00  0.00    +0.305 C 
BRANCH  21   2
ATOM      2  O   UNL     1      -4.325 -13.167  17.689  0.00  0.00    -0.481 OA
ATOM     29  H   UNL     1      -4.289 -13.472  16.757  0.00  0.00    +0.295 HD
ENDBRANCH  21   2
ENDBRANCH  14  21
ENDBRANCH   8  14
TORSDOF 8
ENDMDL
MODEL 7
REMARK VINA RESULT:      -5.4     23.924     26.442
REMARK  Name = 28959726
REMARK  9 active torsions:
REMARK  status: ('A' for Active; 'I' for Inactive)
REMARK    1  A    between atoms: O_2  and  C_21
REMARK    2  A    between atoms: O_4  and  C_27
REMARK    3  A    between atoms: O_4  and  C_28
REMARK    4  A    between atoms: N_6  and  C_13
REMARK    5  A    between atoms: C_7  and  C_10
REMARK    6  A    between atoms: C_8  and  C_14
REMARK    7  A    between atoms: C_10  and  C_13
REMARK    8  A    between atoms: C_14  and  C_21
REMARK    9  A    between atoms: C_20  and  C_22
REMARK                            x       y       z     vdW  Elec       q    Type
REMARK                         _______ _______ _______ _____ _____    ______ ____
ROOT
ATOM      1  O   UNL     1      -3.687  -8.774  41.036  0.00  0.00    -0.270 OA
ATOM      5  N   UNL     1      -5.304  -7.673  39.751  0.00  0.00    -0.297 N 
ATOM      7  C   UNL     1      -7.449  -6.427  39.604  0.00  0.00    +0.011 C 
ATOM      8  C   UNL     1      -8.115  -7.716  39.060  0.00  0.00    +0.006 C 
ATOM      9  C   UNL     1      -5.944  -6.437  39.279  0.00  0.00    +0.112 C 
ATOM     11  C   UNL     1      -7.382  -8.979  39.543  0.00  0.00    +0.023 C 
ATOM     12  C   UNL     1      -5.890  -8.906  39.230  0.00  0.00    +0.108 C 
ATOM     20  C   UNL     1      -4.222  -7.743  40.634  0.00  0.00    +0.247 C 
ENDROOT
BRANCH  20  22
ATOM     22  C   UNL     1      -3.660  -6.484  41.136  0.00  0.00    +0.037 A 
ATOM     23  C   UNL     1      -2.631  -5.853  40.438  0.00  0.00    +0.016 A 
ATOM     24  C   UNL     1      -4.153  -5.920  42.313  0.00  0.00    +0.016 A 
ATOM     25  C   UNL     1      -2.096  -4.657  40.917  0.00  0.00    +0.046 A 
ATOM     26  C   UNL     1      -3.618  -4.726  42.792  0.00  0.00    +0.046 A 
ATOM     27  C   UNL     1      -2.588  -4.093  42.093  0.00  0.00    +0.120 A 
BRANCH  27   4
ATOM      4  O   UNL     1      -2.066  -2.927  42.561  0.00  0.00    -0.495 OA
ATOM     28  C   UNL     1      -2.690  -2.351  43.708  0.00  0.00    +0.277 C 
ENDBRANCH  27   4
ENDBRANCH  20  22
BRANCH   7  10
ATOM     10  C   UNL     1      -7.668  -6.199  41.105  0.00  0.00    +0.020 C 
BRANCH  10  13
ATOM     13  C   UNL     1      -7.863  -4.720  41.407  0.00  0.00    +0.085 C 
BRANCH  13   6
ATOM      6  N   UNL     1      -8.932  -4.178  40.568  0.00  0.00    -0.302 NA
ATOM     15  C   UNL     1     -10.248  -4.522  41.124  0.00  0.00    +0.084 C 
ATOM     16  C   UNL     1      -8.781  -2.724  40.422  0.00  0.00    +0.084 C 
ATOM     17  C   UNL     1     -11.376  -4.004  40.231  0.00  0.00    +0.015 C 
ATOM     18  C   UNL     1      -9.862  -2.146  39.506  0.00  0.00    +0.015 C 
ATOM     19  C   UNL     1     -11.257  -2.501  40.004  0.00  0.00    +0.002 C 
ENDBRANCH  13   6
ENDBRANCH  10  13
ENDBRANCH   7  10
BRANCH   8  14
ATOM     14  C   UNL     1      -9.607  -7.803  39.381  0.00  0.00    +0.124 C 
BRANCH  14  21
ATOM      3  O   UNL     1     -11.073  -9.725  39.068  0.00  0.00    -0.251 OA
ATOM     21  C   UNL     1     -10.274  -8.916  38.621  0.00  0.00    +0.305 C 
BRANCH  21   2
ATOM      2  O   UNL     1      -9.859  -8.900  37.329  0.00  0.00    -0.481 OA
ATOM     29  H   UNL     1      -8.989  -9.341  37.219  0.00  0.00    +0.295 HD
ENDBRANCH  21   2
ENDBRANCH  14  21
ENDBRANCH   8  14
TORSDOF 8
ENDMDL
MODEL 8
REMARK VINA RESULT:      -5.2      2.845      6.253
REMARK  Name = 28959726
REMARK  9 active torsions:
REMARK  status: ('A' for Active; 'I' for Inactive)
REMARK    1  A    between atoms: O_2  and  C_21
REMARK    2  A    between atoms: O_4  and  C_27
REMARK    3  A    between atoms: O_4  and  C_28
REMARK    4  A    between atoms: N_6  and  C_13
REMARK    5  A    between atoms: C_7  and  C_10
REMARK    6  A    between atoms: C_8  and  C_14
REMARK    7  A    between atoms: C_10  and  C_13
REMARK    8  A    between atoms: C_14  and  C_21
REMARK    9  A    between atoms: C_20  and  C_22
REMARK                            x       y       z     vdW  Elec       q    Type
REMARK                         _______ _______ _______ _____ _____    ______ ____
ROOT
ATOM      1  O   UNL     1      -1.521  -9.989  13.796  0.00  0.00    -0.270 OA
ATOM      5  N   UNL     1      -3.284 -11.172  14.780  0.00  0.00    -0.297 N 
ATOM      7  C   UNL     1      -5.675 -11.308  15.443  0.00  0.00    +0.011 C 
ATOM      8  C   UNL     1      -5.244 -11.033  16.906  0.00  0.00    +0.006 C 
ATOM      9  C   UNL     1      -4.517 -11.964  14.670  0.00  0.00    +0.112 C 
ATOM     11  C   UNL     1      -3.926 -10.243  16.970  0.00  0.00    +0.023 C 
ATOM     12  C   UNL     1      -2.834 -10.923  16.148  0.00  0.00    +0.108 C 
ATOM     20  C   UNL     1      -2.550 -10.657  13.709  0.00  0.00    +0.247 C 
ENDROOT
BRANCH  20  22
ATOM     22  C   UNL     1      -3.032 -10.927  12.349  0.00  0.00    +0.037 A 
ATOM     23  C   UNL     1      -3.213 -12.242  11.923  0.00  0.00    +0.016 A 
ATOM     24  C   UNL     1      -3.307  -9.868  11.483  0.00  0.00    +0.016 A 
ATOM     25  C   UNL     1      -3.670 -12.499  10.630  0.00  0.00    +0.046 A 
ATOM     26  C   UNL     1      -3.763 -10.125  10.191  0.00  0.00    +0.046 A 
ATOM     27  C   UNL     1      -3.945 -11.442   9.764  0.00  0.00    +0.120 A 
BRANCH  27   4
ATOM      4  O   UNL     1      -4.390 -11.691   8.503  0.00  0.00    -0.495 OA
ATOM     28  C   UNL     1      -5.740 -12.138   8.368  0.00  0.00    +0.277 C 
ENDBRANCH  27   4
ENDBRANCH  20  22
BRANCH   7  10
ATOM     10  C   UNL     1      -6.175 -10.064  14.698  0.00  0.00    +0.020 C 
BRANCH  10  13
ATOM     13  C   UNL     1      -7.675 -10.145  14.452  0.00  0.00    +0.085 C 
BRANCH  13   6
ATOM      6  N   UNL     1      -7.994  -9.586  13.138  0.00  0.00    -0.302 NA
ATOM     15  C   UNL     1      -6.826  -9.659  12.250  0.00  0.00    +0.084 C 
ATOM     16  C   UNL     1      -9.150 -10.280  12.554  0.00  0.00    +0.084 C 
ATOM     17  C   UNL     1      -7.129  -9.034  10.888  0.00  0.00    +0.015 C 
ATOM     18  C   UNL     1      -9.530  -9.675  11.200  0.00  0.00    +0.015 C 
ATOM     19  C   UNL     1      -8.347  -9.682  10.239  0.00  0.00    +0.002 C 
ENDBRANCH  13   6
ENDBRANCH  10  13
ENDBRANCH   7  10
BRANCH   8  14
ATOM     14  C   UNL     1      -6.328 -10.340  17.732  0.00  0.00    +0.124 C 
BRANCH  14  21
ATOM      3  O   UNL     1      -5.518 -11.577  19.670  0.00  0.00    -0.251 OA
ATOM     21  C   UNL     1      -6.311 -10.796  19.165  0.00  0.00    +0.305 C 
BRANCH  21   2
ATOM      2  O   UNL     1      -7.327 -10.206  19.845  0.00  0.00    -0.481 OA
ATOM     29  H   UNL     1      -7.536 -10.684  20.677  0.00  0.00    +0.295 HD
ENDBRANCH  21   2
ENDBRANCH  14  21
ENDBRANCH   8  14
TORSDOF 8
ENDMDL
MODEL 9
REMARK VINA RESULT:      -5.2     20.845     23.649
REMARK  Name = 28959726
REMARK  9 active torsions:
REMARK  status: ('A' for Active; 'I' for Inactive)
REMARK    1  A    between atoms: O_2  and  C_21
REMARK    2  A    between atoms: O_4  and  C_27
REMARK    3  A    between atoms: O_4  and  C_28
REMARK    4  A    between atoms: N_6  and  C_13
REMARK    5  A    between atoms: C_7  and  C_10
REMARK    6  A    between atoms: C_8  and  C_14
REMARK    7  A    between atoms: C_10  and  C_13
REMARK    8  A    between atoms: C_14  and  C_21
REMARK    9  A    between atoms: C_20  and  C_22
REMARK                            x       y       z     vdW  Elec       q    Type
REMARK                         _______ _______ _______ _____ _____    ______ ____
ROOT
ATOM      1  O   UNL     1       6.157 -11.944  33.054  0.00  0.00    -0.270 OA
ATOM      5  N   UNL     1       6.546  -9.704  32.501  0.00  0.00    -0.297 N 
ATOM      7  C   UNL     1       8.020  -7.704  32.547  0.00  0.00    +0.011 C 
ATOM      8  C   UNL     1       7.117  -7.114  33.660  0.00  0.00    +0.006 C 
ATOM      9  C   UNL     1       7.209  -8.682  31.678  0.00  0.00    +0.112 C 
ATOM     11  C   UNL     1       6.411  -8.219  34.462  0.00  0.00    +0.023 C 
ATOM     12  C   UNL     1       5.663  -9.179  33.540  0.00  0.00    +0.108 C 
ATOM     20  C   UNL     1       6.705 -11.086  32.365  0.00  0.00    +0.247 C 
ENDROOT
BRANCH  20  22
ATOM     22  C   UNL     1       7.600 -11.577  31.311  0.00  0.00    +0.037 A 
ATOM     23  C   UNL     1       8.946 -11.807  31.592  0.00  0.00    +0.016 A 
ATOM     24  C   UNL     1       7.104 -11.812  30.028  0.00  0.00    +0.016 A 
ATOM     25  C   UNL     1       9.798 -12.272  30.590  0.00  0.00    +0.046 A 
ATOM     26  C   UNL     1       7.955 -12.276  29.026  0.00  0.00    +0.046 A 
ATOM     27  C   UNL     1       9.303 -12.507  29.307  0.00  0.00    +0.120 A 
BRANCH  27   4
ATOM      4  O   UNL     1      10.133 -12.961  28.328  0.00  0.00    -0.495 OA
ATOM     28  C   UNL     1      11.408 -12.329  28.215  0.00  0.00    +0.277 C 
ENDBRANCH  27   4
ENDBRANCH  20  22
BRANCH   7  10
ATOM     10  C   UNL     1       9.290  -8.385  33.071  0.00  0.00    +0.020 C 
BRANCH  10  13
ATOM     13  C   UNL     1      10.343  -8.486  31.978  0.00  0.00    +0.085 C 
BRANCH  13   6
ATOM      6  N   UNL     1      11.083  -7.228  31.881  0.00  0.00    -0.302 NA
ATOM     15  C   UNL     1      11.592  -6.828  33.201  0.00  0.00    +0.084 C 
ATOM     16  C   UNL     1      12.175  -7.349  30.906  0.00  0.00    +0.084 C 
ATOM     17  C   UNL     1      12.326  -5.488  33.125  0.00  0.00    +0.015 C 
ATOM     18  C   UNL     1      12.930  -6.026  30.755  0.00  0.00    +0.015 C 
ATOM     19  C   UNL     1      13.452  -5.531  32.098  0.00  0.00    +0.002 C 
ENDBRANCH  13   6
ENDBRANCH  10  13
ENDBRANCH   7  10
BRANCH   8  14
ATOM     14  C   UNL     1       7.862  -6.162  34.596  0.00  0.00    +0.124 C 
BRANCH  14  21
ATOM      3  O   UNL     1       9.114  -4.262  33.720  0.00  0.00    -0.251 OA
ATOM     21  C   UNL     1       8.049  -4.805  33.975  0.00  0.00    +0.305 C 
BRANCH  21   2
ATOM      2  O   UNL     1       6.837  -4.245  33.726  0.00  0.00    -0.481 OA
ATOM     29  H   UNL     1       6.122  -4.678  34.240  0.00  0.00    +0.295 HD
ENDBRANCH  21   2
ENDBRANCH  14  21
ENDBRANCH   8  14
TORSDOF 8
ENDMDL
MODEL 10
REMARK VINA RESULT:      -5.2      2.179      6.718
REMARK  Name = 28959726
REMARK  9 active torsions:
REMARK  status: ('A' for Active; 'I' for Inactive)
REMARK    1  A    between atoms: O_2  and  C_21
REMARK    2  A    between atoms: O_4  and  C_27
REMARK    3  A    between atoms: O_4  and  C_28
REMARK    4  A    between atoms: N_6  and  C_13
REMARK    5  A    between atoms: C_7  and  C_10
REMARK    6  A    between atoms: C_8  and  C_14
REMARK    7  A    between atoms: C_10  and  C_13
REMARK    8  A    between atoms: C_14  and  C_21
REMARK    9  A    between atoms: C_20  and  C_22
REMARK                            x       y       z     vdW  Elec       q    Type
REMARK                         _______ _______ _______ _____ _____    ______ ____
ROOT
ATOM      1  O   UNL     1      -2.157 -10.928  15.892  0.00  0.00    -0.270 OA
ATOM      5  N   UNL     1      -4.268 -11.752  16.473  0.00  0.00    -0.297 N 
ATOM      7  C   UNL     1      -6.711 -11.396  16.757  0.00  0.00    +0.011 C 
ATOM      8  C   UNL     1      -6.483 -11.329  18.289  0.00  0.00    +0.006 C 
ATOM      9  C   UNL     1      -5.603 -12.239  16.099  0.00  0.00    +0.112 C 
ATOM     11  C   UNL     1      -5.059 -10.861  18.630  0.00  0.00    +0.023 C 
ATOM     12  C   UNL     1      -4.012 -11.708  17.912  0.00  0.00    +0.108 C 
ATOM     20  C   UNL     1      -3.273 -11.341  15.583  0.00  0.00    +0.247 C 
ENDROOT
BRANCH  20  22
ATOM     22  C   UNL     1      -3.566 -11.399  14.147  0.00  0.00    +0.037 A 
ATOM     23  C   UNL     1      -3.169 -12.507  13.399  0.00  0.00    +0.016 A 
ATOM     24  C   UNL     1      -4.241 -10.345  13.529  0.00  0.00    +0.016 A 
ATOM     25  C   UNL     1      -3.446 -12.562  12.033  0.00  0.00    +0.046 A 
ATOM     26  C   UNL     1      -4.517 -10.400  12.164  0.00  0.00    +0.046 A 
ATOM     27  C   UNL     1      -4.120 -11.509  11.414  0.00  0.00    +0.120 A 
BRANCH  27   4
ATOM      4  O   UNL     1      -4.391 -11.561  10.082  0.00  0.00    -0.495 OA
ATOM     28  C   UNL     1      -5.688 -11.134   9.667  0.00  0.00    +0.277 C 
ENDBRANCH  27   4
ENDBRANCH  20  22
BRANCH   7  10
ATOM     10  C   UNL     1      -6.807 -10.022  16.082  0.00  0.00    +0.020 C 
BRANCH  10  13
ATOM     13  C   UNL     1      -7.967  -9.981  15.097  0.00  0.00    +0.085 C 
BRANCH  13   6
ATOM      6  N   UNL     1      -9.205  -9.646  15.801  0.00  0.00    -0.302 NA
ATOM     15  C   UNL     1      -9.004  -8.475  16.667  0.00  0.00    +0.084 C 
ATOM     16  C   UNL     1     -10.293  -9.415  14.841  0.00  0.00    +0.084 C 
ATOM     17  C   UNL     1     -10.276  -8.142  17.448  0.00  0.00    +0.015 C 
ATOM     18  C   UNL     1     -11.609  -9.112  15.562  0.00  0.00    +0.015 C 
ATOM     19  C   UNL     1     -11.461  -7.929  16.511  0.00  0.00    +0.002 C 
ENDBRANCH  13   6
ENDBRANCH  10  13
ENDBRANCH   7  10
BRANCH   8  14
ATOM     14  C   UNL     1      -7.520 -10.471  19.014  0.00  0.00    +0.124 C 
BRANCH  14  21
ATOM      3  O   UNL     1      -8.822 -12.500  19.371  0.00  0.00    -0.251 OA
ATOM     21  C   UNL     1      -8.655 -11.302  19.545  0.00  0.00    +0.305 C 
BRANCH  21   2
ATOM      2  O   UNL     1      -9.497 -10.519  20.267  0.00  0.00    -0.481 OA
ATOM     29  H   UNL     1     -10.430 -10.625  19.981  0.00  0.00    +0.295 HD
ENDBRANCH  21   2
ENDBRANCH  14  21
ENDBRANCH   8  14
TORSDOF 8
ENDMDL
