MODEL 1
REMARK VINA RESULT:      -8.0      0.000      0.000
REMARK  Name = 71693712
REMARK  8 active torsions:
REMARK  status: ('A' for Active; 'I' for Inactive)
REMARK    1  A    between atoms: O_3  and  C_17
REMARK    2  A    between atoms: N_6  and  C_9
REMARK    3  A    between atoms: N_7  and  C_24
REMARK    4  A    between atoms: N_8  and  C_26
REMARK    5  A    between atoms: C_10  and  C_17
REMARK    6  A    between atoms: C_11  and  C_19
REMARK    7  A    between atoms: C_26  and  C_27
REMARK    8  A    between atoms: C_26  and  C_28
REMARK                            x       y       z     vdW  Elec       q    Type
REMARK                         _______ _______ _______ _____ _____    ______ ____
ROOT
ATOM      1  O   UNL     1      14.393   8.885  21.796  0.00  0.00    -0.361 OA
ATOM      4  O   UNL     1      12.873  11.417  20.069  0.00  0.00    -0.273 OA
ATOM      6  N   UNL     1      13.288   9.237  19.350  0.00  0.00    -0.288 N 
ATOM     10  C   UNL     1      13.412   7.831  19.754  0.00  0.00    +0.135 C 
ATOM     11  C   UNL     1      14.254   7.674  21.047  0.00  0.00    +0.171 C 
ATOM     14  C   UNL     1      13.124  10.237  20.305  0.00  0.00    +0.242 C 
ATOM     18  C   UNL     1      13.267   9.734  21.721  0.00  0.00    +0.256 C 
ENDROOT
BRANCH   6   9
ATOM      2  O   UNL     1      12.889   8.599  15.238  0.00  0.00    -0.380 OA
ATOM      9  C   UNL     1      13.209   9.532  17.942  0.00  0.00    +0.081 C 
ATOM     12  C   UNL     1      14.339   8.850  17.169  0.00  0.00    +0.050 C 
ATOM     13  C   UNL     1      11.852   9.116  17.372  0.00  0.00    +0.050 C 
ATOM     15  C   UNL     1      14.168   9.061  15.670  0.00  0.00    +0.161 C 
ATOM     16  C   UNL     1      11.820   9.310  15.862  0.00  0.00    +0.161 C 
ENDBRANCH   6   9
BRANCH  11  19
ATOM     19  C   UNL     1      15.653   7.180  20.733  0.00  0.00    -0.017 A 
ATOM     20  C   UNL     1      16.724   7.551  21.549  0.00  0.00    +0.008 A 
ATOM     21  C   UNL     1      15.871   6.354  19.630  0.00  0.00    +0.008 A 
ATOM     22  C   UNL     1      18.010   7.096  21.260  0.00  0.00    +0.024 A 
ATOM     23  C   UNL     1      17.157   5.898  19.342  0.00  0.00    +0.024 A 
ATOM     24  C   UNL     1      18.227   6.270  20.158  0.00  0.00    +0.035 A 
BRANCH  24   7
ATOM      5  O   UNL     1      20.473   5.502  21.994  0.00  0.00    -0.253 OA
ATOM      7  N   UNL     1      19.514   5.814  19.870  0.00  0.00    -0.269 N 
ATOM      8  N   UNL     1      21.687   5.051  20.079  0.00  0.00    -0.297 N 
ATOM     25  C   UNL     1      20.542   5.463  20.768  0.00  0.00    +0.304 C 
ATOM     30  H   UNL     1      19.737   5.722  18.881  0.00  0.00    +0.156 HD
ATOM     31  H   UNL     1      21.691   5.119  19.066  0.00  0.00    +0.151 HD
BRANCH   8  26
ATOM     26  C   UNL     1      22.900   4.634  20.744  0.00  0.00    +0.068 C 
ATOM     27  C   UNL     1      22.845   3.147  21.072  0.00  0.00    +0.027 C 
ATOM     28  C   UNL     1      24.116   4.966  19.889  0.00  0.00    +0.027 C 
ENDBRANCH   8  26
ENDBRANCH  24   7
ENDBRANCH  11  19
BRANCH  10  17
ATOM     17  C   UNL     1      12.026   7.190  19.913  0.00  0.00    +0.181 C 
BRANCH  17   3
ATOM      3  O   UNL     1      12.063   5.906  19.325  0.00  0.00    -0.393 OA
ATOM     29  H   UNL     1      11.232   5.788  18.835  0.00  0.00    +0.209 HD
ENDBRANCH  17   3
ENDBRANCH  10  17
TORSDOF 6
ENDMDL
MODEL 2
REMARK VINA RESULT:      -7.1     25.939     29.447
REMARK  Name = 71693712
REMARK  8 active torsions:
REMARK  status: ('A' for Active; 'I' for Inactive)
REMARK    1  A    between atoms: O_3  and  C_17
REMARK    2  A    between atoms: N_6  and  C_9
REMARK    3  A    between atoms: N_7  and  C_24
REMARK    4  A    between atoms: N_8  and  C_26
REMARK    5  A    between atoms: C_10  and  C_17
REMARK    6  A    between atoms: C_11  and  C_19
REMARK    7  A    between atoms: C_26  and  C_27
REMARK    8  A    between atoms: C_26  and  C_28
REMARK                            x       y       z     vdW  Elec       q    Type
REMARK                         _______ _______ _______ _____ _____    ______ ____
ROOT
ATOM      1  O   UNL     1      -3.069 -12.764  15.201  0.00  0.00    -0.361 OA
ATOM      4  O   UNL     1      -3.043 -13.452  11.850  0.00  0.00    -0.273 OA
ATOM      6  N   UNL     1      -3.290 -11.376  12.887  0.00  0.00    -0.288 N 
ATOM     10  C   UNL     1      -2.930 -10.551  14.047  0.00  0.00    +0.135 C 
ATOM     11  C   UNL     1      -3.043 -11.344  15.375  0.00  0.00    +0.171 C 
ATOM     14  C   UNL     1      -2.916 -12.716  12.827  0.00  0.00    +0.242 C 
ATOM     18  C   UNL     1      -2.297 -13.218  14.109  0.00  0.00    +0.256 C 
ENDROOT
BRANCH   6   9
ATOM      2  O   UNL     1      -4.503  -8.307  10.320  0.00  0.00    -0.380 OA
ATOM      9  C   UNL     1      -3.919 -10.729  11.764  0.00  0.00    +0.081 C 
ATOM     12  C   UNL     1      -4.985  -9.733  12.226  0.00  0.00    +0.050 C 
ATOM     13  C   UNL     1      -2.881 -10.024  10.888  0.00  0.00    +0.050 C 
ATOM     15  C   UNL     1      -5.548  -8.961  11.040  0.00  0.00    +0.161 C 
ATOM     16  C   UNL     1      -3.562  -9.234   9.779  0.00  0.00    +0.161 C 
ENDBRANCH   6   9
BRANCH  11  19
ATOM     19  C   UNL     1      -4.301 -10.965  16.135  0.00  0.00    -0.017 A 
ATOM     20  C   UNL     1      -4.569 -11.545  17.375  0.00  0.00    +0.008 A 
ATOM     21  C   UNL     1      -5.190 -10.035  15.593  0.00  0.00    +0.008 A 
ATOM     22  C   UNL     1      -5.725 -11.196  18.072  0.00  0.00    +0.024 A 
ATOM     23  C   UNL     1      -6.345  -9.686  16.291  0.00  0.00    +0.024 A 
ATOM     24  C   UNL     1      -6.613 -10.267  17.531  0.00  0.00    +0.035 A 
BRANCH  24   7
ATOM      5  O   UNL     1      -9.436 -11.235  17.225  0.00  0.00    -0.253 OA
ATOM      7  N   UNL     1      -7.769  -9.917  18.230  0.00  0.00    -0.269 N 
ATOM      8  N   UNL     1      -9.960  -9.796  18.958  0.00  0.00    -0.297 N 
ATOM     25  C   UNL     1      -9.081 -10.399  18.052  0.00  0.00    +0.304 C 
ATOM     30  H   UNL     1      -7.645  -9.224  18.965  0.00  0.00    +0.156 HD
ATOM     31  H   UNL     1      -9.604  -9.060  19.559  0.00  0.00    +0.151 HD
BRANCH   8  26
ATOM     26  C   UNL     1     -11.373 -10.099  19.004  0.00  0.00    +0.068 C 
ATOM     27  C   UNL     1     -11.911  -9.922  20.419  0.00  0.00    +0.027 C 
ATOM     28  C   UNL     1     -12.134  -9.230  18.012  0.00  0.00    +0.027 C 
ENDBRANCH   8  26
ENDBRANCH  24   7
ENDBRANCH  11  19
BRANCH  10  17
ATOM     17  C   UNL     1      -1.526  -9.957  13.874  0.00  0.00    +0.181 C 
BRANCH  17   3
ATOM      3  O   UNL     1      -1.117  -9.420  15.114  0.00  0.00    -0.393 OA
ATOM     29  H   UNL     1      -0.156  -9.283  15.067  0.00  0.00    +0.209 HD
ENDBRANCH  17   3
ENDBRANCH  10  17
TORSDOF 6
ENDMDL
MODEL 3
REMARK VINA RESULT:      -6.8      1.784      2.570
REMARK  Name = 71693712
REMARK  8 active torsions:
REMARK  status: ('A' for Active; 'I' for Inactive)
REMARK    1  A    between atoms: O_3  and  C_17
REMARK    2  A    between atoms: N_6  and  C_9
REMARK    3  A    between atoms: N_7  and  C_24
REMARK    4  A    between atoms: N_8  and  C_26
REMARK    5  A    between atoms: C_10  and  C_17
REMARK    6  A    between atoms: C_11  and  C_19
REMARK    7  A    between atoms: C_26  and  C_27
REMARK    8  A    between atoms: C_26  and  C_28
REMARK                            x       y       z     vdW  Elec       q    Type
REMARK                         _______ _______ _______ _____ _____    ______ ____
ROOT
ATOM      1  O   UNL     1      17.321  10.411  21.586  0.00  0.00    -0.361 OA
ATOM      4  O   UNL     1      15.346  12.101  19.362  0.00  0.00    -0.273 OA
ATOM      6  N   UNL     1      15.335   9.818  19.844  0.00  0.00    -0.288 N 
ATOM     10  C   UNL     1      15.549   8.797  20.877  0.00  0.00    +0.135 C 
ATOM     11  C   UNL     1      16.835   9.069  21.699  0.00  0.00    +0.171 C 
ATOM     14  C   UNL     1      15.617  11.157  20.102  0.00  0.00    +0.242 C 
ATOM     18  C   UNL     1      16.301  11.375  21.430  0.00  0.00    +0.256 C 
ENDROOT
BRANCH   6   9
ATOM      2  O   UNL     1      12.685   7.868  17.266  0.00  0.00    -0.380 OA
ATOM      9  C   UNL     1      14.704   9.415  18.613  0.00  0.00    +0.081 C 
ATOM     12  C   UNL     1      14.835   7.907  18.393  0.00  0.00    +0.050 C 
ATOM     13  C   UNL     1      13.231   9.826  18.594  0.00  0.00    +0.050 C 
ATOM     15  C   UNL     1      14.053   7.474  17.160  0.00  0.00    +0.161 C 
ATOM     16  C   UNL     1      12.537   9.284  17.352  0.00  0.00    +0.161 C 
ENDBRANCH   6   9
BRANCH  11  19
ATOM     19  C   UNL     1      17.963   8.149  21.273  0.00  0.00    -0.017 A 
ATOM     20  C   UNL     1      17.675   6.899  20.722  0.00  0.00    +0.008 A 
ATOM     21  C   UNL     1      19.290   8.551  21.433  0.00  0.00    +0.008 A 
ATOM     22  C   UNL     1      18.713   6.054  20.330  0.00  0.00    +0.024 A 
ATOM     23  C   UNL     1      20.328   7.705  21.040  0.00  0.00    +0.024 A 
ATOM     24  C   UNL     1      20.038   6.457  20.489  0.00  0.00    +0.035 A 
BRANCH  24   7
ATOM      5  O   UNL     1      22.125   5.052  22.125  0.00  0.00    -0.253 OA
ATOM      7  N   UNL     1      21.076   5.610  20.096  0.00  0.00    -0.269 N 
ATOM      8  N   UNL     1      22.910   4.202  20.123  0.00  0.00    -0.297 N 
ATOM     25  C   UNL     1      22.039   4.969  20.902  0.00  0.00    +0.304 C 
ATOM     30  H   UNL     1      21.144   5.433  19.096  0.00  0.00    +0.156 HD
ATOM     31  H   UNL     1      22.819   4.245  19.113  0.00  0.00    +0.151 HD
BRANCH   8  26
ATOM     26  C   UNL     1      23.999   3.434  20.683  0.00  0.00    +0.068 C 
ATOM     27  C   UNL     1      23.556   2.004  20.963  0.00  0.00    +0.027 C 
ATOM     28  C   UNL     1      25.204   3.467  19.752  0.00  0.00    +0.027 C 
ENDBRANCH   8  26
ENDBRANCH  24   7
ENDBRANCH  11  19
BRANCH  10  17
ATOM     17  C   UNL     1      14.320   8.685  21.790  0.00  0.00    +0.181 C 
BRANCH  17   3
ATOM      3  O   UNL     1      14.747   8.207  23.048  0.00  0.00    -0.393 OA
ATOM     29  H   UNL     1      15.040   8.976  23.566  0.00  0.00    +0.209 HD
ENDBRANCH  17   3
ENDBRANCH  10  17
TORSDOF 6
ENDMDL
MODEL 4
REMARK VINA RESULT:      -6.8      1.875      3.246
REMARK  Name = 71693712
REMARK  8 active torsions:
REMARK  status: ('A' for Active; 'I' for Inactive)
REMARK    1  A    between atoms: O_3  and  C_17
REMARK    2  A    between atoms: N_6  and  C_9
REMARK    3  A    between atoms: N_7  and  C_24
REMARK    4  A    between atoms: N_8  and  C_26
REMARK    5  A    between atoms: C_10  and  C_17
REMARK    6  A    between atoms: C_11  and  C_19
REMARK    7  A    between atoms: C_26  and  C_27
REMARK    8  A    between atoms: C_26  and  C_28
REMARK                            x       y       z     vdW  Elec       q    Type
REMARK                         _______ _______ _______ _____ _____    ______ ____
ROOT
ATOM      1  O   UNL     1      13.122   6.480  20.901  0.00  0.00    -0.361 OA
ATOM      4  O   UNL     1      10.843   8.777  22.012  0.00  0.00    -0.273 OA
ATOM      6  N   UNL     1      12.450   9.041  20.340  0.00  0.00    -0.288 N 
ATOM     10  C   UNL     1      13.211   8.376  19.275  0.00  0.00    +0.135 C 
ATOM     11  C   UNL     1      13.766   7.003  19.736  0.00  0.00    +0.171 C 
ATOM     14  C   UNL     1      11.624   8.306  21.187  0.00  0.00    +0.242 C 
ATOM     18  C   UNL     1      11.753   6.814  20.994  0.00  0.00    +0.256 C 
ENDROOT
BRANCH   6   9
ATOM      2  O   UNL     1      14.011  12.914  20.529  0.00  0.00    -0.380 OA
ATOM      9  C   UNL     1      12.480  10.480  20.396  0.00  0.00    +0.081 C 
ATOM     12  C   UNL     1      13.133  10.970  21.689  0.00  0.00    +0.050 C 
ATOM     13  C   UNL     1      13.210  11.059  19.182  0.00  0.00    +0.050 C 
ATOM     15  C   UNL     1      13.278  12.486  21.677  0.00  0.00    +0.161 C 
ATOM     16  C   UNL     1      13.353  12.569  19.311  0.00  0.00    +0.161 C 
ENDBRANCH   6   9
BRANCH  11  19
ATOM     19  C   UNL     1      15.249   7.088  20.047  0.00  0.00    -0.017 A 
ATOM     20  C   UNL     1      16.151   6.257  19.380  0.00  0.00    +0.008 A 
ATOM     21  C   UNL     1      15.712   7.997  20.999  0.00  0.00    +0.008 A 
ATOM     22  C   UNL     1      17.513   6.336  19.666  0.00  0.00    +0.024 A 
ATOM     23  C   UNL     1      17.075   8.076  21.284  0.00  0.00    +0.024 A 
ATOM     24  C   UNL     1      17.975   7.245  20.617  0.00  0.00    +0.035 A 
BRANCH  24   7
ATOM      5  O   UNL     1      19.541   6.166  22.938  0.00  0.00    -0.253 OA
ATOM      7  N   UNL     1      19.340   7.324  20.902  0.00  0.00    -0.269 N 
ATOM      8  N   UNL     1      21.400   7.094  21.925  0.00  0.00    -0.297 N 
ATOM     25  C   UNL     1      20.036   6.800  22.010  0.00  0.00    +0.304 C 
ATOM     30  H   UNL     1      19.903   7.824  20.218  0.00  0.00    +0.156 HD
ATOM     31  H   UNL     1      21.720   7.687  21.165  0.00  0.00    +0.151 HD
BRANCH   8  26
ATOM     26  C   UNL     1      22.359   6.682  22.924  0.00  0.00    +0.068 C 
ATOM     27  C   UNL     1      22.971   5.336  22.556  0.00  0.00    +0.027 C 
ATOM     28  C   UNL     1      23.434   7.748  23.100  0.00  0.00    +0.027 C 
ENDBRANCH   8  26
ENDBRANCH  24   7
ENDBRANCH  11  19
BRANCH  10  17
ATOM     17  C   UNL     1      12.356   8.231  18.009  0.00  0.00    +0.181 C 
BRANCH  17   3
ATOM      3  O   UNL     1      12.235   6.856  17.712  0.00  0.00    -0.393 OA
ATOM     29  H   UNL     1      12.653   6.708  16.848  0.00  0.00    +0.209 HD
ENDBRANCH  17   3
ENDBRANCH  10  17
TORSDOF 6
ENDMDL
MODEL 5
REMARK VINA RESULT:      -6.6     26.333     29.609
REMARK  Name = 71693712
REMARK  8 active torsions:
REMARK  status: ('A' for Active; 'I' for Inactive)
REMARK    1  A    between atoms: O_3  and  C_17
REMARK    2  A    between atoms: N_6  and  C_9
REMARK    3  A    between atoms: N_7  and  C_24
REMARK    4  A    between atoms: N_8  and  C_26
REMARK    5  A    between atoms: C_10  and  C_17
REMARK    6  A    between atoms: C_11  and  C_19
REMARK    7  A    between atoms: C_26  and  C_27
REMARK    8  A    between atoms: C_26  and  C_28
REMARK                            x       y       z     vdW  Elec       q    Type
REMARK                         _______ _______ _______ _____ _____    ______ ____
ROOT
ATOM      1  O   UNL     1      -1.822 -10.152  13.975  0.00  0.00    -0.361 OA
ATOM      4  O   UNL     1      -2.938 -11.022  17.090  0.00  0.00    -0.273 OA
ATOM      6  N   UNL     1      -3.604 -11.895  15.031  0.00  0.00    -0.288 N 
ATOM     10  C   UNL     1      -3.186 -12.222  13.662  0.00  0.00    +0.135 C 
ATOM     11  C   UNL     1      -2.355 -11.079  13.024  0.00  0.00    +0.171 C 
ATOM     14  C   UNL     1      -2.743 -11.220  15.892  0.00  0.00    +0.242 C 
ATOM     18  C   UNL     1      -1.483 -10.738  15.214  0.00  0.00    +0.256 C 
ENDROOT
BRANCH   6   9
ATOM      2  O   UNL     1      -6.872 -14.473  15.416  0.00  0.00    -0.380 OA
ATOM      9  C   UNL     1      -4.867 -12.408  15.494  0.00  0.00    +0.081 C 
ATOM     12  C   UNL     1      -5.866 -12.541  14.343  0.00  0.00    +0.050 C 
ATOM     13  C   UNL     1      -4.686 -13.756  16.195  0.00  0.00    +0.050 C 
ATOM     15  C   UNL     1      -7.151 -13.206  14.820  0.00  0.00    +0.161 C 
ATOM     16  C   UNL     1      -6.036 -14.355  16.567  0.00  0.00    +0.161 C 
ENDBRANCH   6   9
BRANCH  11  19
ATOM     19  C   UNL     1      -3.186 -10.280  12.038  0.00  0.00    -0.017 A 
ATOM     20  C   UNL     1      -4.533 -10.030  12.303  0.00  0.00    +0.008 A 
ATOM     21  C   UNL     1      -2.604  -9.794  10.867  0.00  0.00    +0.008 A 
ATOM     22  C   UNL     1      -5.296  -9.294  11.397  0.00  0.00    +0.024 A 
ATOM     23  C   UNL     1      -3.367  -9.057   9.961  0.00  0.00    +0.024 A 
ATOM     24  C   UNL     1      -4.714  -8.808  10.226  0.00  0.00    +0.035 A 
BRANCH  24   7
ATOM      5  O   UNL     1      -7.657  -8.894   9.645  0.00  0.00    -0.253 OA
ATOM      7  N   UNL     1      -5.478  -8.072   9.320  0.00  0.00    -0.269 N 
ATOM      8  N   UNL     1      -7.247  -7.235   8.088  0.00  0.00    -0.297 N 
ATOM     25  C   UNL     1      -6.865  -8.145   9.079  0.00  0.00    +0.304 C 
ATOM     30  H   UNL     1      -4.965  -7.392   8.763  0.00  0.00    +0.156 HD
ATOM     31  H   UNL     1      -6.522  -6.704   7.615  0.00  0.00    +0.151 HD
BRANCH   8  26
ATOM     26  C   UNL     1      -8.611  -7.091   7.634  0.00  0.00    +0.068 C 
ATOM     27  C   UNL     1      -9.207  -5.782   8.138  0.00  0.00    +0.027 C 
ATOM     28  C   UNL     1      -8.677  -7.179   6.115  0.00  0.00    +0.027 C 
ENDBRANCH   8  26
ENDBRANCH  24   7
ENDBRANCH  11  19
BRANCH  10  17
ATOM     17  C   UNL     1      -2.418 -13.550  13.633  0.00  0.00    +0.181 C 
BRANCH  17   3
ATOM      3  O   UNL     1      -1.156 -13.318  13.042  0.00  0.00    -0.393 OA
ATOM     29  H   UNL     1      -0.493 -13.354  13.752  0.00  0.00    +0.209 HD
ENDBRANCH  17   3
ENDBRANCH  10  17
TORSDOF 6
ENDMDL
MODEL 6
REMARK VINA RESULT:      -6.6      3.073      9.565
REMARK  Name = 71693712
REMARK  8 active torsions:
REMARK  status: ('A' for Active; 'I' for Inactive)
REMARK    1  A    between atoms: O_3  and  C_17
REMARK    2  A    between atoms: N_6  and  C_9
REMARK    3  A    between atoms: N_7  and  C_24
REMARK    4  A    between atoms: N_8  and  C_26
REMARK    5  A    between atoms: C_10  and  C_17
REMARK    6  A    between atoms: C_11  and  C_19
REMARK    7  A    between atoms: C_26  and  C_27
REMARK    8  A    between atoms: C_26  and  C_28
REMARK                            x       y       z     vdW  Elec       q    Type
REMARK                         _______ _______ _______ _____ _____    ______ ____
ROOT
ATOM      1  O   UNL     1      21.722   7.022  20.142  0.00  0.00    -0.361 OA
ATOM      4  O   UNL     1      23.982   7.841  22.576  0.00  0.00    -0.273 OA
ATOM      6  N   UNL     1      22.053   6.545  22.786  0.00  0.00    -0.288 N 
ATOM     10  C   UNL     1      21.148   5.602  22.118  0.00  0.00    +0.135 C 
ATOM     11  C   UNL     1      20.812   6.052  20.672  0.00  0.00    +0.171 C 
ATOM     14  C   UNL     1      23.091   7.151  22.084  0.00  0.00    +0.242 C 
ATOM     18  C   UNL     1      23.048   6.869  20.601  0.00  0.00    +0.256 C 
ENDROOT
BRANCH   6   9
ATOM      2  O   UNL     1      20.803   5.832  26.711  0.00  0.00    -0.380 OA
ATOM      9  C   UNL     1      21.917   6.721  24.210  0.00  0.00    +0.081 C 
ATOM     12  C   UNL     1      20.460   6.978  24.598  0.00  0.00    +0.050 C 
ATOM     13  C   UNL     1      22.459   5.505  24.964  0.00  0.00    +0.050 C 
ATOM     15  C   UNL     1      20.309   7.030  26.113  0.00  0.00    +0.161 C 
ATOM     16  C   UNL     1      22.194   5.638  26.458  0.00  0.00    +0.161 C 
ENDBRANCH   6   9
BRANCH  11  19
ATOM     19  C   UNL     1      19.422   6.655  20.594  0.00  0.00    -0.017 A 
ATOM     20  C   UNL     1      18.404   5.979  19.919  0.00  0.00    +0.008 A 
ATOM     21  C   UNL     1      19.160   7.887  21.197  0.00  0.00    +0.008 A 
ATOM     22  C   UNL     1      17.127   6.534  19.849  0.00  0.00    +0.024 A 
ATOM     23  C   UNL     1      17.883   8.441  21.127  0.00  0.00    +0.024 A 
ATOM     24  C   UNL     1      16.866   7.764  20.452  0.00  0.00    +0.035 A 
BRANCH  24   7
ATOM      5  O   UNL     1      14.530   7.504  22.317  0.00  0.00    -0.253 OA
ATOM      7  N   UNL     1      15.587   8.318  20.381  0.00  0.00    -0.269 N 
ATOM      8  N   UNL     1      13.397   8.891  20.854  0.00  0.00    -0.297 N 
ATOM     25  C   UNL     1      14.515   8.169  21.285  0.00  0.00    +0.304 C 
ATOM     30  H   UNL     1      15.408   8.909  19.572  0.00  0.00    +0.156 HD
ATOM     31  H   UNL     1      13.440   9.354  19.952  0.00  0.00    +0.151 HD
BRANCH   8  26
ATOM     26  C   UNL     1      12.150   8.921  21.584  0.00  0.00    +0.068 C 
ATOM     27  C   UNL     1      11.857  10.330  22.084  0.00  0.00    +0.027 C 
ATOM     28  C   UNL     1      11.014   8.396  20.715  0.00  0.00    +0.027 C 
ENDBRANCH   8  26
ENDBRANCH  24   7
ENDBRANCH  11  19
BRANCH  10  17
ATOM     17  C   UNL     1      21.735   4.185  22.135  0.00  0.00    +0.181 C 
BRANCH  17   3
ATOM      3  O   UNL     1      21.484   3.587  20.880  0.00  0.00    -0.393 OA
ATOM     29  H   UNL     1      21.935   4.126  20.208  0.00  0.00    +0.209 HD
ENDBRANCH  17   3
ENDBRANCH  10  17
TORSDOF 6
ENDMDL
MODEL 7
REMARK VINA RESULT:      -6.5     27.010     30.396
REMARK  Name = 71693712
REMARK  8 active torsions:
REMARK  status: ('A' for Active; 'I' for Inactive)
REMARK    1  A    between atoms: O_3  and  C_17
REMARK    2  A    between atoms: N_6  and  C_9
REMARK    3  A    between atoms: N_7  and  C_24
REMARK    4  A    between atoms: N_8  and  C_26
REMARK    5  A    between atoms: C_10  and  C_17
REMARK    6  A    between atoms: C_11  and  C_19
REMARK    7  A    between atoms: C_26  and  C_27
REMARK    8  A    between atoms: C_26  and  C_28
REMARK                            x       y       z     vdW  Elec       q    Type
REMARK                         _______ _______ _______ _____ _____    ______ ____
ROOT
ATOM      1  O   UNL     1     -10.703   8.666  19.408  0.00  0.00    -0.361 OA
ATOM      4  O   UNL     1     -10.164   8.922  16.040  0.00  0.00    -0.273 OA
ATOM      6  N   UNL     1     -12.194   9.059  17.183  0.00  0.00    -0.288 N 
ATOM     10  C   UNL     1     -12.858   9.466  18.427  0.00  0.00    +0.135 C 
ATOM     11  C   UNL     1     -12.065   9.010  19.680  0.00  0.00    +0.171 C 
ATOM     14  C   UNL     1     -10.806   9.105  17.072  0.00  0.00    +0.242 C 
ATOM     18  C   UNL     1     -10.117   9.431  18.375  0.00  0.00    +0.256 C 
ENDROOT
BRANCH   6   9
ATOM      2  O   UNL     1     -15.472   9.133  14.590  0.00  0.00    -0.380 OA
ATOM      9  C   UNL     1     -13.020   8.740  16.047  0.00  0.00    +0.081 C 
ATOM     12  C   UNL     1     -14.346   8.115  16.486  0.00  0.00    +0.050 C 
ATOM     13  C   UNL     1     -13.278   9.983  15.193  0.00  0.00    +0.050 C 
ATOM     15  C   UNL     1     -15.263   7.905  15.288  0.00  0.00    +0.161 C 
ATOM     16  C   UNL     1     -14.257   9.670  14.069  0.00  0.00    +0.161 C 
ENDBRANCH   6   9
BRANCH  11  19
ATOM     19  C   UNL     1     -12.710   7.799  20.327  0.00  0.00    -0.017 A 
ATOM     20  C   UNL     1     -11.925   6.875  21.017  0.00  0.00    +0.008 A 
ATOM     21  C   UNL     1     -14.090   7.610  20.233  0.00  0.00    +0.008 A 
ATOM     22  C   UNL     1     -12.519   5.763  21.612  0.00  0.00    +0.024 A 
ATOM     23  C   UNL     1     -14.684   6.498  20.829  0.00  0.00    +0.024 A 
ATOM     24  C   UNL     1     -13.898   5.574  21.519  0.00  0.00    +0.035 A 
BRANCH  24   7
ATOM      5  O   UNL     1     -16.187   5.394  23.451  0.00  0.00    -0.253 OA
ATOM      7  N   UNL     1     -14.492   4.460  22.115  0.00  0.00    -0.269 N 
ATOM      8  N   UNL     1     -15.868   3.105  23.386  0.00  0.00    -0.297 N 
ATOM     25  C   UNL     1     -15.571   4.422  23.022  0.00  0.00    +0.304 C 
ATOM     30  H   UNL     1     -14.094   3.560  21.859  0.00  0.00    +0.156 HD
ATOM     31  H   UNL     1     -15.265   2.363  23.047  0.00  0.00    +0.151 HD
BRANCH   8  26
ATOM     26  C   UNL     1     -16.929   2.763  24.306  0.00  0.00    +0.068 C 
ATOM     27  C   UNL     1     -17.748   1.596  23.767  0.00  0.00    +0.027 C 
ATOM     28  C   UNL     1     -16.357   2.447  25.682  0.00  0.00    +0.027 C 
ENDBRANCH   8  26
ENDBRANCH  24   7
ENDBRANCH  11  19
BRANCH  10  17
ATOM     17  C   UNL     1     -13.096  10.982  18.443  0.00  0.00    +0.181 C 
BRANCH  17   3
ATOM      3  O   UNL     1     -12.694  11.479  19.702  0.00  0.00    -0.393 OA
ATOM     29  H   UNL     1     -13.462  11.926  20.095  0.00  0.00    +0.209 HD
ENDBRANCH  17   3
ENDBRANCH  10  17
TORSDOF 6
ENDMDL
MODEL 8
REMARK VINA RESULT:      -6.5      3.077      8.597
REMARK  Name = 71693712
REMARK  8 active torsions:
REMARK  status: ('A' for Active; 'I' for Inactive)
REMARK    1  A    between atoms: O_3  and  C_17
REMARK    2  A    between atoms: N_6  and  C_9
REMARK    3  A    between atoms: N_7  and  C_24
REMARK    4  A    between atoms: N_8  and  C_26
REMARK    5  A    between atoms: C_10  and  C_17
REMARK    6  A    between atoms: C_11  and  C_19
REMARK    7  A    between atoms: C_26  and  C_27
REMARK    8  A    between atoms: C_26  and  C_28
REMARK                            x       y       z     vdW  Elec       q    Type
REMARK                         _______ _______ _______ _____ _____    ______ ____
ROOT
ATOM      1  O   UNL     1      20.389   5.651  20.922  0.00  0.00    -0.361 OA
ATOM      4  O   UNL     1      23.212   7.515  20.411  0.00  0.00    -0.273 OA
ATOM      6  N   UNL     1      21.190   8.201  21.352  0.00  0.00    -0.288 N 
ATOM     10  C   UNL     1      20.027   7.796  22.151  0.00  0.00    +0.135 C 
ATOM     11  C   UNL     1      19.469   6.420  21.703  0.00  0.00    +0.171 C 
ATOM     14  C   UNL     1      22.139   7.262  20.957  0.00  0.00    +0.242 C 
ATOM     18  C   UNL     1      21.741   5.842  21.281  0.00  0.00    +0.256 C 
ENDROOT
BRANCH   6   9
ATOM      2  O   UNL     1      21.104  12.331  21.990  0.00  0.00    -0.380 OA
ATOM      9  C   UNL     1      21.386   9.606  21.106  0.00  0.00    +0.081 C 
ATOM     12  C   UNL     1      20.051  10.351  21.058  0.00  0.00    +0.050 C 
ATOM     13  C   UNL     1      22.300  10.225  22.165  0.00  0.00    +0.050 C 
ATOM     15  C   UNL     1      20.278  11.852  20.929  0.00  0.00    +0.161 C 
ATOM     16  C   UNL     1      22.399  11.732  21.977  0.00  0.00    +0.161 C 
ENDBRANCH   6   9
BRANCH  11  19
ATOM     19  C   UNL     1      18.208   6.582  20.876  0.00  0.00    -0.017 A 
ATOM     20  C   UNL     1      17.222   7.485  21.277  0.00  0.00    +0.008 A 
ATOM     21  C   UNL     1      18.032   5.828  19.715  0.00  0.00    +0.008 A 
ATOM     22  C   UNL     1      16.063   7.634  20.516  0.00  0.00    +0.024 A 
ATOM     23  C   UNL     1      16.874   5.978  18.954  0.00  0.00    +0.024 A 
ATOM     24  C   UNL     1      15.888   6.881  19.355  0.00  0.00    +0.035 A 
BRANCH  24   7
ATOM      5  O   UNL     1      14.411   9.359  18.530  0.00  0.00    -0.253 OA
ATOM      7  N   UNL     1      14.728   7.031  18.594  0.00  0.00    -0.269 N 
ATOM      8  N   UNL     1      12.933   7.942  17.457  0.00  0.00    -0.297 N 
ATOM     25  C   UNL     1      14.066   8.220  18.229  0.00  0.00    +0.304 C 
ATOM     30  H   UNL     1      14.308   6.167  18.258  0.00  0.00    +0.156 HD
ATOM     31  H   UNL     1      12.672   6.972  17.314  0.00  0.00    +0.151 HD
BRANCH   8  26
ATOM     26  C   UNL     1      12.059   8.972  16.942  0.00  0.00    +0.068 C 
ATOM     27  C   UNL     1      12.554   9.466  15.589  0.00  0.00    +0.027 C 
ATOM     28  C   UNL     1      10.628   8.456  16.851  0.00  0.00    +0.027 C 
ENDBRANCH   8  26
ENDBRANCH  24   7
ENDBRANCH  11  19
BRANCH  10  17
ATOM     17  C   UNL     1      20.372   7.794  23.647  0.00  0.00    +0.181 C 
BRANCH  17   3
ATOM      3  O   UNL     1      19.918   6.578  24.203  0.00  0.00    -0.393 OA
ATOM     29  H   UNL     1      19.935   5.912  23.496  0.00  0.00    +0.209 HD
ENDBRANCH  17   3
ENDBRANCH  10  17
TORSDOF 6
ENDMDL
MODEL 9
REMARK VINA RESULT:      -6.5     26.396     29.446
REMARK  Name = 71693712
REMARK  8 active torsions:
REMARK  status: ('A' for Active; 'I' for Inactive)
REMARK    1  A    between atoms: O_3  and  C_17
REMARK    2  A    between atoms: N_6  and  C_9
REMARK    3  A    between atoms: N_7  and  C_24
REMARK    4  A    between atoms: N_8  and  C_26
REMARK    5  A    between atoms: C_10  and  C_17
REMARK    6  A    between atoms: C_11  and  C_19
REMARK    7  A    between atoms: C_26  and  C_27
REMARK    8  A    between atoms: C_26  and  C_28
REMARK                            x       y       z     vdW  Elec       q    Type
REMARK                         _______ _______ _______ _____ _____    ______ ____
ROOT
ATOM      1  O   UNL     1      -1.832 -11.242  13.211  0.00  0.00    -0.361 OA
ATOM      4  O   UNL     1      -1.358 -10.337  16.475  0.00  0.00    -0.273 OA
ATOM      6  N   UNL     1      -3.345 -10.989  15.441  0.00  0.00    -0.288 N 
ATOM     10  C   UNL     1      -3.950 -11.830  14.401  0.00  0.00    +0.135 C 
ATOM     11  C   UNL     1      -3.161 -11.755  13.068  0.00  0.00    +0.171 C 
ATOM     14  C   UNL     1      -1.961 -10.895  15.561  0.00  0.00    +0.242 C 
ATOM     18  C   UNL     1      -1.220 -11.580  14.438  0.00  0.00    +0.256 C 
ENDROOT
BRANCH   6   9
ATOM      2  O   UNL     1      -6.648 -10.470  17.951  0.00  0.00    -0.380 OA
ATOM      9  C   UNL     1      -4.218 -10.376  16.409  0.00  0.00    +0.081 C 
ATOM     12  C   UNL     1      -5.589 -10.071  15.802  0.00  0.00    +0.050 C 
ATOM     13  C   UNL     1      -4.373 -11.263  17.645  0.00  0.00    +0.050 C 
ATOM     15  C   UNL     1      -6.544  -9.547  16.867  0.00  0.00    +0.161 C 
ATOM     16  C   UNL     1      -5.396 -10.674  18.606  0.00  0.00    +0.161 C 
ENDBRANCH   6   9
BRANCH  11  19
ATOM     19  C   UNL     1      -3.873 -10.874  12.058  0.00  0.00    -0.017 A 
ATOM     20  C   UNL     1      -3.206 -10.454  10.906  0.00  0.00    +0.008 A 
ATOM     21  C   UNL     1      -5.194 -10.484  12.280  0.00  0.00    +0.008 A 
ATOM     22  C   UNL     1      -3.862  -9.646   9.978  0.00  0.00    +0.024 A 
ATOM     23  C   UNL     1      -5.849  -9.676  11.352  0.00  0.00    +0.024 A 
ATOM     24  C   UNL     1      -5.182  -9.257  10.200  0.00  0.00    +0.035 A 
BRANCH  24   7
ATOM      5  O   UNL     1      -7.533  -9.843   8.430  0.00  0.00    -0.253 OA
ATOM      7  N   UNL     1      -5.838  -8.448   9.270  0.00  0.00    -0.269 N 
ATOM      8  N   UNL     1      -7.304  -7.676   7.658  0.00  0.00    -0.297 N 
ATOM     25  C   UNL     1      -6.944  -8.766   8.456  0.00  0.00    +0.304 C 
ATOM     30  H   UNL     1      -5.468  -7.505   9.170  0.00  0.00    +0.156 HD
ATOM     31  H   UNL     1      -6.720  -6.845   7.684  0.00  0.00    +0.151 HD
BRANCH   8  26
ATOM     26  C   UNL     1      -8.404  -7.714   6.722  0.00  0.00    +0.068 C 
ATOM     27  C   UNL     1      -9.353  -6.547   6.964  0.00  0.00    +0.027 C 
ATOM     28  C   UNL     1      -7.884  -7.715   5.291  0.00  0.00    +0.027 C 
ENDBRANCH   8  26
ENDBRANCH  24   7
ENDBRANCH  11  19
BRANCH  10  17
ATOM     17  C   UNL     1      -4.083 -13.280  14.886  0.00  0.00    +0.181 C 
BRANCH  17   3
ATOM      3  O   UNL     1      -4.462 -14.080  13.786  0.00  0.00    -0.393 OA
ATOM     29  H   UNL     1      -5.430 -14.029  13.711  0.00  0.00    +0.209 HD
ENDBRANCH  17   3
ENDBRANCH  10  17
TORSDOF 6
ENDMDL
MODEL 10
REMARK VINA RESULT:      -6.4     28.413     31.838
REMARK  Name = 71693712
REMARK  8 active torsions:
REMARK  status: ('A' for Active; 'I' for Inactive)
REMARK    1  A    between atoms: O_3  and  C_17
REMARK    2  A    between atoms: N_6  and  C_9
REMARK    3  A    between atoms: N_7  and  C_24
REMARK    4  A    between atoms: N_8  and  C_26
REMARK    5  A    between atoms: C_10  and  C_17
REMARK    6  A    between atoms: C_11  and  C_19
REMARK    7  A    between atoms: C_26  and  C_27
REMARK    8  A    between atoms: C_26  and  C_28
REMARK                            x       y       z     vdW  Elec       q    Type
REMARK                         _______ _______ _______ _____ _____    ______ ____
ROOT
ATOM      1  O   UNL     1     -10.651 -11.860  17.972  0.00  0.00    -0.361 OA
ATOM      4  O   UNL     1      -8.383 -14.024  16.603  0.00  0.00    -0.273 OA
ATOM      6  N   UNL     1      -8.011 -11.853  17.374  0.00  0.00    -0.288 N 
ATOM     10  C   UNL     1      -8.406 -10.830  18.351  0.00  0.00    +0.135 C 
ATOM     11  C   UNL     1      -9.947 -10.723  18.482  0.00  0.00    +0.171 C 
ATOM     14  C   UNL     1      -8.712 -13.053  17.282  0.00  0.00    +0.242 C 
ATOM     18  C   UNL     1      -9.958 -13.079  18.134  0.00  0.00    +0.256 C 
ENDROOT
BRANCH   6   9
ATOM      2  O   UNL     1      -4.163 -10.508  16.448  0.00  0.00    -0.380 OA
ATOM      9  C   UNL     1      -6.807 -11.635  16.614  0.00  0.00    +0.081 C 
ATOM     12  C   UNL     1      -6.563 -10.143  16.382  0.00  0.00    +0.050 C 
ATOM     13  C   UNL     1      -5.600 -12.266  17.310  0.00  0.00    +0.050 C 
ATOM     15  C   UNL     1      -5.222  -9.919  15.694  0.00  0.00    +0.161 C 
ATOM     16  C   UNL     1      -4.313 -11.922  16.573  0.00  0.00    +0.161 C 
ENDBRANCH   6   9
BRANCH  11  19
ATOM     19  C   UNL     1     -10.477  -9.504  17.751  0.00  0.00    -0.017 A 
ATOM     20  C   UNL     1      -9.603  -8.489  17.362  0.00  0.00    +0.008 A 
ATOM     21  C   UNL     1     -11.839  -9.398  17.466  0.00  0.00    +0.008 A 
ATOM     22  C   UNL     1     -10.091  -7.369  16.689  0.00  0.00    +0.024 A 
ATOM     23  C   UNL     1     -12.327  -8.279  16.793  0.00  0.00    +0.024 A 
ATOM     24  C   UNL     1     -11.452  -7.264  16.404  0.00  0.00    +0.035 A 
BRANCH  24   7
ATOM      5  O   UNL     1     -12.393  -6.957  13.571  0.00  0.00    -0.253 OA
ATOM      7  N   UNL     1     -11.939  -6.143  15.730  0.00  0.00    -0.269 N 
ATOM      8  N   UNL     1     -12.790  -4.742  14.100  0.00  0.00    -0.297 N 
ATOM     25  C   UNL     1     -12.372  -6.044  14.392  0.00  0.00    +0.304 C 
ATOM     30  H   UNL     1     -11.989  -5.288  16.279  0.00  0.00    +0.156 HD
ATOM     31  H   UNL     1     -12.672  -4.026  14.810  0.00  0.00    +0.151 HD
BRANCH   8  26
ATOM     26  C   UNL     1     -13.285  -4.346  12.801  0.00  0.00    +0.068 C 
ATOM     27  C   UNL     1     -14.575  -3.547  12.941  0.00  0.00    +0.027 C 
ATOM     28  C   UNL     1     -12.224  -3.554  12.048  0.00  0.00    +0.027 C 
ENDBRANCH   8  26
ENDBRANCH  24   7
ENDBRANCH  11  19
BRANCH  10  17
ATOM     17  C   UNL     1      -7.750 -11.100  19.712  0.00  0.00    +0.181 C 
BRANCH  17   3
ATOM      3  O   UNL     1      -6.871 -10.033  19.998  0.00  0.00    -0.393 OA
ATOM     29  H   UNL     1      -5.975 -10.325  19.761  0.00  0.00    +0.209 HD
ENDBRANCH  17   3
ENDBRANCH  10  17
TORSDOF 6
ENDMDL
