MODEL 1
REMARK VINA RESULT:      -7.3      0.000      0.000
REMARK  Name = 7144189
REMARK  6 active torsions:
REMARK  status: ('A' for Active; 'I' for Inactive)
REMARK    1  A    between atoms: S_1  and  C_23
REMARK    2  A    between atoms: S_1  and  C_29
REMARK    3  A    between atoms: O_7  and  C_28
REMARK    4  A    between atoms: O_7  and  C_30
REMARK    5  A    between atoms: C_17  and  C_22
REMARK    6  A    between atoms: C_19  and  C_23
REMARK                            x       y       z     vdW  Elec       q    Type
REMARK                         _______ _______ _______ _____ _____    ______ ____
ROOT
ATOM      5  O   UNL     1      11.257   9.144  17.073  0.00  0.00    -0.268 OA
ATOM      6  O   UNL     1      11.288  11.963  21.522  0.00  0.00    -0.275 OA
ATOM      8  N   UNL     1      12.168   9.852  21.926  0.00  0.00    -0.300 N 
ATOM      9  N   UNL     1      12.215   8.421  19.084  0.00  0.00    -0.311 N 
ATOM     10  C   UNL     1      10.782   7.932  21.153  0.00  0.00    +0.027 C 
ATOM     11  C   UNL     1      13.226   7.695  21.269  0.00  0.00    +0.054 C 
ATOM     12  C   UNL     1      11.902   6.975  21.525  0.00  0.00    +0.018 C 
ATOM     13  C   UNL     1      10.854   9.214  21.999  0.00  0.00    +0.113 C 
ATOM     14  C   UNL     1      10.875   8.231  19.656  0.00  0.00    +0.130 C 
ATOM     15  C   UNL     1      13.306   8.952  22.160  0.00  0.00    +0.117 C 
ATOM     16  C   UNL     1      13.383   8.080  19.796  0.00  0.00    +0.034 A 
ATOM     17  C   UNL     1      14.590   8.128  19.175  0.00  0.00    +0.002 A 
ATOM     18  C   UNL     1      12.245   8.848  17.744  0.00  0.00    +0.252 A 
ATOM     19  C   UNL     1      12.259  11.227  21.717  0.00  0.00    +0.225 C 
ATOM     20  C   UNL     1      14.661   8.568  17.795  0.00  0.00    +0.015 A 
ATOM     21  C   UNL     1      13.578   8.926  17.105  0.00  0.00    +0.071 A 
ENDROOT
BRANCH  17  22
ATOM     22  C   UNL     1      15.841   7.762  19.875  0.00  0.00    -0.016 A 
ATOM     24  C   UNL     1      16.525   8.721  20.617  0.00  0.00    +0.012 A 
ATOM     25  C   UNL     1      16.326   6.460  19.788  0.00  0.00    +0.012 A 
ATOM     26  C   UNL     1      17.704   8.375  21.277  0.00  0.00    +0.046 A 
ATOM     27  C   UNL     1      17.504   6.114  20.448  0.00  0.00    +0.046 A 
ATOM     28  C   UNL     1      18.194   7.071  21.193  0.00  0.00    +0.130 A 
BRANCH  28   7
ATOM      7  O   UNL     1      19.344   6.734  21.837  0.00  0.00    -0.406 OA
BRANCH   7  30
ATOM      2  F   UNL     1      20.143   5.191  20.352  0.00  0.00    -0.133 F 
ATOM      3  F   UNL     1      21.476   5.996  21.884  0.00  0.00    -0.133 F 
ATOM      4  F   UNL     1      20.868   7.274  20.220  0.00  0.00    -0.133 F 
ATOM     30  C   UNL     1      20.451   6.299  21.056  0.00  0.00    +0.575 C 
ENDBRANCH   7  30
ENDBRANCH  28   7
ENDBRANCH  17  22
BRANCH  19  23
ATOM     23  C   UNL     1      13.644  11.822  21.727  0.00  0.00    +0.164 C 
BRANCH  23   1
ATOM      1  S   UNL     1      13.680  13.104  22.989  0.00  0.00    -0.155 S 
ATOM     29  C   UNL     1      13.573  12.052  24.458  0.00  0.00    +0.085 C 
ENDBRANCH  23   1
ENDBRANCH  19  23
TORSDOF 5
ENDMDL
MODEL 2
REMARK VINA RESULT:      -7.1      1.961      4.211
REMARK  Name = 7144189
REMARK  6 active torsions:
REMARK  status: ('A' for Active; 'I' for Inactive)
REMARK    1  A    between atoms: S_1  and  C_23
REMARK    2  A    between atoms: S_1  and  C_29
REMARK    3  A    between atoms: O_7  and  C_28
REMARK    4  A    between atoms: O_7  and  C_30
REMARK    5  A    between atoms: C_17  and  C_22
REMARK    6  A    between atoms: C_19  and  C_23
REMARK                            x       y       z     vdW  Elec       q    Type
REMARK                         _______ _______ _______ _____ _____    ______ ____
ROOT
ATOM      5  O   UNL     1      12.184  12.145  21.855  0.00  0.00    -0.268 OA
ATOM      6  O   UNL     1      10.960   8.334  18.432  0.00  0.00    -0.275 OA
ATOM      8  N   UNL     1      13.195   8.917  18.190  0.00  0.00    -0.300 N 
ATOM      9  N   UNL     1      13.735  11.077  20.463  0.00  0.00    -0.311 N 
ATOM     10  C   UNL     1      13.658  11.349  17.914  0.00  0.00    +0.027 C 
ATOM     11  C   UNL     1      15.355   9.898  18.944  0.00  0.00    +0.054 C 
ATOM     12  C   UNL     1      15.151  11.071  17.984  0.00  0.00    +0.018 C 
ATOM     13  C   UNL     1      12.896  10.114  17.405  0.00  0.00    +0.113 C 
ATOM     14  C   UNL     1      13.179  11.783  19.300  0.00  0.00    +0.130 C 
ATOM     15  C   UNL     1      14.626   8.654  18.396  0.00  0.00    +0.117 C 
ATOM     16  C   UNL     1      14.854  10.228  20.352  0.00  0.00    +0.034 A 
ATOM     17  C   UNL     1      15.427   9.717  21.473  0.00  0.00    +0.002 A 
ATOM     18  C   UNL     1      13.150  11.400  21.701  0.00  0.00    +0.252 A 
ATOM     19  C   UNL     1      12.155   8.092  18.617  0.00  0.00    +0.225 C 
ATOM     20  C   UNL     1      14.850  10.024  22.767  0.00  0.00    +0.015 A 
ATOM     21  C   UNL     1      13.774  10.799  22.902  0.00  0.00    +0.071 A 
ENDROOT
BRANCH  17  22
ATOM     22  C   UNL     1      16.615   8.836  21.408  0.00  0.00    -0.016 A 
ATOM     24  C   UNL     1      16.450   7.459  21.300  0.00  0.00    +0.012 A 
ATOM     25  C   UNL     1      17.890   9.393  21.456  0.00  0.00    +0.012 A 
ATOM     26  C   UNL     1      17.569   6.630  21.239  0.00  0.00    +0.046 A 
ATOM     27  C   UNL     1      19.009   8.564  21.395  0.00  0.00    +0.046 A 
ATOM     28  C   UNL     1      18.850   7.182  21.286  0.00  0.00    +0.130 A 
BRANCH  28   7
ATOM      7  O   UNL     1      19.942   6.373  21.227  0.00  0.00    -0.406 OA
BRANCH   7  30
ATOM      2  F   UNL     1      21.807   7.017  22.382  0.00  0.00    -0.133 F 
ATOM      3  F   UNL     1      21.161   4.932  22.465  0.00  0.00    -0.133 F 
ATOM      4  F   UNL     1      19.993   6.454  23.512  0.00  0.00    -0.133 F 
ATOM     30  C   UNL     1      20.726   6.211  22.403  0.00  0.00    +0.575 C 
ENDBRANCH   7  30
ENDBRANCH  28   7
ENDBRANCH  17  22
BRANCH  19  23
ATOM     23  C   UNL     1      12.548   6.838  19.357  0.00  0.00    +0.164 C 
BRANCH  23   1
ATOM      1  S   UNL     1      12.453   7.191  21.119  0.00  0.00    -0.155 S 
ATOM     29  C   UNL     1      11.195   5.976  21.580  0.00  0.00    +0.085 C 
ENDBRANCH  23   1
ENDBRANCH  19  23
TORSDOF 5
ENDMDL
MODEL 3
REMARK VINA RESULT:      -6.7     15.254     17.973
REMARK  Name = 7144189
REMARK  6 active torsions:
REMARK  status: ('A' for Active; 'I' for Inactive)
REMARK    1  A    between atoms: S_1  and  C_23
REMARK    2  A    between atoms: S_1  and  C_29
REMARK    3  A    between atoms: O_7  and  C_28
REMARK    4  A    between atoms: O_7  and  C_30
REMARK    5  A    between atoms: C_17  and  C_22
REMARK    6  A    between atoms: C_19  and  C_23
REMARK                            x       y       z     vdW  Elec       q    Type
REMARK                         _______ _______ _______ _____ _____    ______ ____
ROOT
ATOM      5  O   UNL     1       7.100   9.556   4.870  0.00  0.00    -0.268 OA
ATOM      6  O   UNL     1      11.687   9.794   7.447  0.00  0.00    -0.275 OA
ATOM      8  N   UNL     1      11.305   7.619   6.726  0.00  0.00    -0.300 N 
ATOM      9  N   UNL     1       8.600   7.767   5.057  0.00  0.00    -0.311 N 
ATOM     10  C   UNL     1       9.085   6.656   7.316  0.00  0.00    +0.027 C 
ATOM     11  C   UNL     1      10.246   5.881   5.292  0.00  0.00    +0.054 C 
ATOM     12  C   UNL     1       9.399   5.425   6.480  0.00  0.00    +0.018 C 
ATOM     13  C   UNL     1      10.379   7.320   7.818  0.00  0.00    +0.113 C 
ATOM     14  C   UNL     1       8.242   7.613   6.474  0.00  0.00    +0.130 C 
ATOM     15  C   UNL     1      11.562   6.501   5.808  0.00  0.00    +0.117 C 
ATOM     16  C   UNL     1       9.495   6.887   4.416  0.00  0.00    +0.034 A 
ATOM     17  C   UNL     1       9.681   6.972   3.073  0.00  0.00    +0.002 A 
ATOM     18  C   UNL     1       7.901   8.772   4.363  0.00  0.00    +0.252 A 
ATOM     19  C   UNL     1      11.919   8.870   6.663  0.00  0.00    +0.225 C 
ATOM     20  C   UNL     1       8.980   7.998   2.324  0.00  0.00    +0.015 A 
ATOM     21  C   UNL     1       8.151   8.864   2.907  0.00  0.00    +0.071 A 
ENDROOT
BRANCH  17  22
ATOM     22  C   UNL     1      10.595   6.058   2.354  0.00  0.00    -0.016 A 
ATOM     24  C   UNL     1      11.903   6.453   2.092  0.00  0.00    +0.012 A 
ATOM     25  C   UNL     1      10.140   4.808   1.943  0.00  0.00    +0.012 A 
ATOM     26  C   UNL     1      12.764   5.591   1.414  0.00  0.00    +0.046 A 
ATOM     27  C   UNL     1      11.001   3.946   1.266  0.00  0.00    +0.046 A 
ATOM     28  C   UNL     1      12.314   4.336   1.001  0.00  0.00    +0.130 A 
BRANCH  28   7
ATOM      7  O   UNL     1      13.154   3.496   0.339  0.00  0.00    -0.406 OA
BRANCH   7  30
ATOM      2  F   UNL     1      12.580   2.258  -1.495  0.00  0.00    -0.133 F 
ATOM      3  F   UNL     1      14.319   3.576  -1.593  0.00  0.00    -0.133 F 
ATOM      4  F   UNL     1      12.317   4.451  -1.563  0.00  0.00    -0.133 F 
ATOM     30  C   UNL     1      13.074   3.443  -1.081  0.00  0.00    +0.575 C 
ENDBRANCH   7  30
ENDBRANCH  28   7
ENDBRANCH  17  22
BRANCH  19  23
ATOM     23  C   UNL     1      12.917   9.077   5.552  0.00  0.00    +0.164 C 
BRANCH  23   1
ATOM      1  S   UNL     1      14.527   9.348   6.307  0.00  0.00    -0.155 S 
ATOM     29  C   UNL     1      15.124   7.640   6.315  0.00  0.00    +0.085 C 
ENDBRANCH  23   1
ENDBRANCH  19  23
TORSDOF 5
ENDMDL
MODEL 4
REMARK VINA RESULT:      -6.3     26.887     29.219
REMARK  Name = 7144189
REMARK  6 active torsions:
REMARK  status: ('A' for Active; 'I' for Inactive)
REMARK    1  A    between atoms: S_1  and  C_23
REMARK    2  A    between atoms: S_1  and  C_29
REMARK    3  A    between atoms: O_7  and  C_28
REMARK    4  A    between atoms: O_7  and  C_30
REMARK    5  A    between atoms: C_17  and  C_22
REMARK    6  A    between atoms: C_19  and  C_23
REMARK                            x       y       z     vdW  Elec       q    Type
REMARK                         _______ _______ _______ _____ _____    ______ ____
ROOT
ATOM      5  O   UNL     1      -5.958 -11.483  20.847  0.00  0.00    -0.268 OA
ATOM      6  O   UNL     1      -9.399 -13.747  17.564  0.00  0.00    -0.275 OA
ATOM      8  N   UNL     1      -8.374 -11.950  16.508  0.00  0.00    -0.300 N 
ATOM      9  N   UNL     1      -6.232 -10.876  18.602  0.00  0.00    -0.311 N 
ATOM     10  C   UNL     1      -8.400  -9.797  17.760  0.00  0.00    +0.027 C 
ATOM     11  C   UNL     1      -6.570 -10.264  16.186  0.00  0.00    +0.054 C 
ATOM     12  C   UNL     1      -7.508  -9.171  16.700  0.00  0.00    +0.018 C 
ATOM     13  C   UNL     1      -9.219 -10.957  17.170  0.00  0.00    +0.113 C 
ATOM     14  C   UNL     1      -7.523 -10.253  18.926  0.00  0.00    +0.130 C 
ATOM     15  C   UNL     1      -7.403 -11.399  15.553  0.00  0.00    +0.117 C 
ATOM     16  C   UNL     1      -5.684 -10.819  17.304  0.00  0.00    +0.034 A 
ATOM     17  C   UNL     1      -4.423 -11.272  17.084  0.00  0.00    +0.002 A 
ATOM     18  C   UNL     1      -5.533 -11.421  19.694  0.00  0.00    +0.252 A 
ATOM     19  C   UNL     1      -8.576 -13.307  16.757  0.00  0.00    +0.225 C 
ATOM     20  C   UNL     1      -3.672 -11.845  18.184  0.00  0.00    +0.015 A 
ATOM     21  C   UNL     1      -4.175 -11.941  19.416  0.00  0.00    +0.071 A 
ENDROOT
BRANCH  17  22
ATOM     22  C   UNL     1      -3.798 -11.216  15.744  0.00  0.00    -0.016 A 
ATOM     24  C   UNL     1      -4.279 -12.029  14.721  0.00  0.00    +0.012 A 
ATOM     25  C   UNL     1      -2.733 -10.349  15.514  0.00  0.00    +0.012 A 
ATOM     26  C   UNL     1      -3.690 -11.975  13.459  0.00  0.00    +0.046 A 
ATOM     27  C   UNL     1      -2.144 -10.295  14.251  0.00  0.00    +0.046 A 
ATOM     28  C   UNL     1      -2.622 -11.107  13.223  0.00  0.00    +0.130 A 
BRANCH  28   7
ATOM      7  O   UNL     1      -2.048 -11.055  11.990  0.00  0.00    -0.406 OA
BRANCH   7  30
ATOM      2  F   UNL     1      -1.683  -9.191  10.719  0.00  0.00    -0.133 F 
ATOM      3  F   UNL     1      -3.664  -9.536  11.573  0.00  0.00    -0.133 F 
ATOM      4  F   UNL     1      -2.981 -10.791   9.919  0.00  0.00    -0.133 F 
ATOM     30  C   UNL     1      -2.582 -10.145  11.036  0.00  0.00    +0.575 C 
ENDBRANCH   7  30
ENDBRANCH  28   7
ENDBRANCH  17  22
BRANCH  19  23
ATOM     23  C   UNL     1      -7.715 -14.272  15.982  0.00  0.00    +0.164 C 
BRANCH  23   1
ATOM      1  S   UNL     1      -6.251 -14.613  16.971  0.00  0.00    -0.155 S 
ATOM     29  C   UNL     1      -5.250 -15.443  15.712  0.00  0.00    +0.085 C 
ENDBRANCH  23   1
ENDBRANCH  19  23
TORSDOF 5
ENDMDL
MODEL 5
REMARK VINA RESULT:      -6.2     27.790     30.179
REMARK  Name = 7144189
REMARK  6 active torsions:
REMARK  status: ('A' for Active; 'I' for Inactive)
REMARK    1  A    between atoms: S_1  and  C_23
REMARK    2  A    between atoms: S_1  and  C_29
REMARK    3  A    between atoms: O_7  and  C_28
REMARK    4  A    between atoms: O_7  and  C_30
REMARK    5  A    between atoms: C_17  and  C_22
REMARK    6  A    between atoms: C_19  and  C_23
REMARK                            x       y       z     vdW  Elec       q    Type
REMARK                         _______ _______ _______ _____ _____    ______ ____
ROOT
ATOM      5  O   UNL     1     -10.365 -11.757  20.456  0.00  0.00    -0.268 OA
ATOM      6  O   UNL     1     -11.935 -11.978  15.433  0.00  0.00    -0.275 OA
ATOM      8  N   UNL     1     -10.088 -10.582  15.616  0.00  0.00    -0.300 N 
ATOM      9  N   UNL     1      -9.222 -10.756  18.674  0.00  0.00    -0.311 N 
ATOM     10  C   UNL     1     -10.239  -8.805  17.356  0.00  0.00    +0.027 C 
ATOM     11  C   UNL     1      -8.039  -9.700  16.723  0.00  0.00    +0.054 C 
ATOM     12  C   UNL     1      -8.793  -8.422  17.088  0.00  0.00    +0.018 C 
ATOM     13  C   UNL     1     -10.872  -9.451  16.113  0.00  0.00    +0.113 C 
ATOM     14  C   UNL     1     -10.278  -9.738  18.566  0.00  0.00    +0.130 C 
ATOM     15  C   UNL     1      -8.653 -10.312  15.446  0.00  0.00    +0.117 C 
ATOM     16  C   UNL     1      -8.069 -10.719  17.865  0.00  0.00    +0.034 A 
ATOM     17  C   UNL     1      -7.051 -11.588  18.100  0.00  0.00    +0.002 A 
ATOM     18  C   UNL     1      -9.387 -11.690  19.713  0.00  0.00    +0.252 A 
ATOM     19  C   UNL     1     -10.728 -11.775  15.281  0.00  0.00    +0.225 C 
ATOM     20  C   UNL     1      -7.186 -12.567  19.161  0.00  0.00    +0.015 A 
ATOM     21  C   UNL     1      -8.277 -12.647  19.923  0.00  0.00    +0.071 A 
ENDROOT
BRANCH  17  22
ATOM     22  C   UNL     1      -5.813 -11.575  17.290  0.00  0.00    -0.016 A 
ATOM     24  C   UNL     1      -5.663 -12.477  16.242  0.00  0.00    +0.012 A 
ATOM     25  C   UNL     1      -4.806 -10.659  17.583  0.00  0.00    +0.012 A 
ATOM     26  C   UNL     1      -4.496 -12.464  15.478  0.00  0.00    +0.046 A 
ATOM     27  C   UNL     1      -3.639 -10.646  16.820  0.00  0.00    +0.046 A 
ATOM     28  C   UNL     1      -3.483 -11.548  15.767  0.00  0.00    +0.130 A 
BRANCH  28   7
ATOM      7  O   UNL     1      -2.345 -11.536  15.022  0.00  0.00    -0.406 OA
BRANCH   7  30
ATOM      2  F   UNL     1      -1.808 -11.326  12.810  0.00  0.00    -0.133 F 
ATOM      3  F   UNL     1      -1.457  -9.647  14.163  0.00  0.00    -0.133 F 
ATOM      4  F   UNL     1      -3.508 -10.162  13.610  0.00  0.00    -0.133 F 
ATOM     30  C   UNL     1      -2.290 -10.676  13.889  0.00  0.00    +0.575 C 
ENDBRANCH   7  30
ENDBRANCH  28   7
ENDBRANCH  17  22
BRANCH  19  23
ATOM     23  C   UNL     1      -9.862 -12.868  14.708  0.00  0.00    +0.164 C 
BRANCH  23   1
ATOM      1  S   UNL     1      -9.367 -13.941  16.064  0.00  0.00    -0.155 S 
ATOM     29  C   UNL     1      -8.231 -15.023  15.164  0.00  0.00    +0.085 C 
ENDBRANCH  23   1
ENDBRANCH  19  23
TORSDOF 5
ENDMDL
MODEL 6
REMARK VINA RESULT:      -6.2     15.607     18.564
REMARK  Name = 7144189
REMARK  6 active torsions:
REMARK  status: ('A' for Active; 'I' for Inactive)
REMARK    1  A    between atoms: S_1  and  C_23
REMARK    2  A    between atoms: S_1  and  C_29
REMARK    3  A    between atoms: O_7  and  C_28
REMARK    4  A    between atoms: O_7  and  C_30
REMARK    5  A    between atoms: C_17  and  C_22
REMARK    6  A    between atoms: C_19  and  C_23
REMARK                            x       y       z     vdW  Elec       q    Type
REMARK                         _______ _______ _______ _____ _____    ______ ____
ROOT
ATOM      5  O   UNL     1      10.475   6.329   8.242  0.00  0.00    -0.268 OA
ATOM      6  O   UNL     1      10.402  10.858   5.555  0.00  0.00    -0.275 OA
ATOM      8  N   UNL     1      11.835   9.354   4.517  0.00  0.00    -0.300 N 
ATOM      9  N   UNL     1      11.569   6.666   6.199  0.00  0.00    -0.311 N 
ATOM     10  C   UNL     1      13.541   8.291   5.987  0.00  0.00    +0.027 C 
ATOM     11  C   UNL     1      12.725   7.086   4.006  0.00  0.00    +0.054 C 
ATOM     12  C   UNL     1      13.970   7.393   4.837  0.00  0.00    +0.018 C 
ATOM     13  C   UNL     1      12.927   9.598   5.460  0.00  0.00    +0.113 C 
ATOM     14  C   UNL     1      12.564   7.516   6.870  0.00  0.00    +0.130 C 
ATOM     15  C   UNL     1      12.146   8.401   3.443  0.00  0.00    +0.117 C 
ATOM     16  C   UNL     1      11.664   6.350   4.829  0.00  0.00    +0.034 A 
ATOM     17  C   UNL     1      10.813   5.442   4.285  0.00  0.00    +0.002 A 
ATOM     18  C   UNL     1      10.594   6.099   7.039  0.00  0.00    +0.252 A 
ATOM     19  C   UNL     1      10.640  10.062   4.644  0.00  0.00    +0.225 C 
ATOM     20  C   UNL     1       9.792   4.839   5.119  0.00  0.00    +0.015 A 
ATOM     21  C   UNL     1       9.657   5.140   6.411  0.00  0.00    +0.071 A 
ENDROOT
BRANCH  17  22
ATOM     22  C   UNL     1      10.886   5.064   2.856  0.00  0.00    -0.016 A 
ATOM     24  C   UNL     1      11.718   4.022   2.458  0.00  0.00    +0.012 A 
ATOM     25  C   UNL     1      10.122   5.754   1.919  0.00  0.00    +0.012 A 
ATOM     26  C   UNL     1      11.787   3.666   1.112  0.00  0.00    +0.046 A 
ATOM     27  C   UNL     1      10.190   5.398   0.573  0.00  0.00    +0.046 A 
ATOM     28  C   UNL     1      11.022   4.354   0.168  0.00  0.00    +0.130 A 
BRANCH  28   7
ATOM      7  O   UNL     1      11.090   4.006  -1.145  0.00  0.00    -0.406 OA
BRANCH   7  30
ATOM      2  F   UNL     1      13.173   3.329  -1.799  0.00  0.00    -0.133 F 
ATOM      3  F   UNL     1      12.830   5.432  -1.319  0.00  0.00    -0.133 F 
ATOM      4  F   UNL     1      11.991   4.606  -3.160  0.00  0.00    -0.133 F 
ATOM     30  C   UNL     1      12.272   4.330  -1.868  0.00  0.00    +0.575 C 
ENDBRANCH   7  30
ENDBRANCH  28   7
ENDBRANCH  17  22
BRANCH  19  23
ATOM     23  C   UNL     1       9.590   9.810   3.591  0.00  0.00    +0.164 C 
BRANCH  23   1
ATOM      1  S   UNL     1       8.412   8.629   4.266  0.00  0.00    -0.155 S 
ATOM     29  C   UNL     1       6.901   9.606   4.081  0.00  0.00    +0.085 C 
ENDBRANCH  23   1
ENDBRANCH  19  23
TORSDOF 5
ENDMDL
MODEL 7
REMARK VINA RESULT:      -6.2      3.675      5.617
REMARK  Name = 7144189
REMARK  6 active torsions:
REMARK  status: ('A' for Active; 'I' for Inactive)
REMARK    1  A    between atoms: S_1  and  C_23
REMARK    2  A    between atoms: S_1  and  C_29
REMARK    3  A    between atoms: O_7  and  C_28
REMARK    4  A    between atoms: O_7  and  C_30
REMARK    5  A    between atoms: C_17  and  C_22
REMARK    6  A    between atoms: C_19  and  C_23
REMARK                            x       y       z     vdW  Elec       q    Type
REMARK                         _______ _______ _______ _____ _____    ______ ____
ROOT
ATOM      5  O   UNL     1      10.954   7.191  20.835  0.00  0.00    -0.268 OA
ATOM      6  O   UNL     1      14.251  10.538  23.216  0.00  0.00    -0.275 OA
ATOM      8  N   UNL     1      15.270   9.641  21.331  0.00  0.00    -0.300 N 
ATOM      9  N   UNL     1      13.041   7.816  19.979  0.00  0.00    -0.311 N 
ATOM     10  C   UNL     1      15.224   7.157  21.152  0.00  0.00    +0.027 C 
ATOM     11  C   UNL     1      15.293   8.521  19.108  0.00  0.00    +0.054 C 
ATOM     12  C   UNL     1      15.830   7.248  19.761  0.00  0.00    +0.018 C 
ATOM     13  C   UNL     1      15.609   8.383  21.997  0.00  0.00    +0.113 C 
ATOM     14  C   UNL     1      13.708   7.013  21.013  0.00  0.00    +0.130 C 
ATOM     15  C   UNL     1      15.727   9.747  19.939  0.00  0.00    +0.117 C 
ATOM     16  C   UNL     1      13.768   8.486  18.974  0.00  0.00    +0.034 A 
ATOM     17  C   UNL     1      13.108   9.090  17.952  0.00  0.00    +0.002 A 
ATOM     18  C   UNL     1      11.636   7.772  19.992  0.00  0.00    +0.252 A 
ATOM     19  C   UNL     1      14.625  10.650  22.046  0.00  0.00    +0.225 C 
ATOM     20  C   UNL     1      11.658   9.068  17.933  0.00  0.00    +0.015 A 
ATOM     21  C   UNL     1      10.942   8.469  18.886  0.00  0.00    +0.071 A 
ENDROOT
BRANCH  17  22
ATOM     22  C   UNL     1      13.828   9.788  16.864  0.00  0.00    -0.016 A 
ATOM     24  C   UNL     1      14.294   9.067  15.769  0.00  0.00    +0.012 A 
ATOM     25  C   UNL     1      14.033  11.163  16.943  0.00  0.00    +0.012 A 
ATOM     26  C   UNL     1      14.972   9.725  14.744  0.00  0.00    +0.046 A 
ATOM     27  C   UNL     1      14.711  11.821  15.918  0.00  0.00    +0.046 A 
ATOM     28  C   UNL     1      15.180  11.103  14.817  0.00  0.00    +0.130 A 
BRANCH  28   7
ATOM      7  O   UNL     1      15.842  11.745  13.817  0.00  0.00    -0.406 OA
BRANCH   7  30
ATOM      2  F   UNL     1      17.257  13.357  14.608  0.00  0.00    -0.133 F 
ATOM      3  F   UNL     1      17.835  12.190  12.854  0.00  0.00    -0.133 F 
ATOM      4  F   UNL     1      17.833  11.234  14.819  0.00  0.00    -0.133 F 
ATOM     30  C   UNL     1      17.192  12.134  14.043  0.00  0.00    +0.575 C 
ENDBRANCH   7  30
ENDBRANCH  28   7
ENDBRANCH  17  22
BRANCH  19  23
ATOM     23  C   UNL     1      14.376  11.944  21.312  0.00  0.00    +0.164 C 
BRANCH  23   1
ATOM      1  S   UNL     1      12.727  11.858  20.598  0.00  0.00    -0.155 S 
ATOM     29  C   UNL     1      11.845  12.874  21.808  0.00  0.00    +0.085 C 
ENDBRANCH  23   1
ENDBRANCH  19  23
TORSDOF 5
ENDMDL
MODEL 8
REMARK VINA RESULT:      -6.1     27.856     29.600
REMARK  Name = 7144189
REMARK  6 active torsions:
REMARK  status: ('A' for Active; 'I' for Inactive)
REMARK    1  A    between atoms: S_1  and  C_23
REMARK    2  A    between atoms: S_1  and  C_29
REMARK    3  A    between atoms: O_7  and  C_28
REMARK    4  A    between atoms: O_7  and  C_30
REMARK    5  A    between atoms: C_17  and  C_22
REMARK    6  A    between atoms: C_19  and  C_23
REMARK                            x       y       z     vdW  Elec       q    Type
REMARK                         _______ _______ _______ _____ _____    ______ ____
ROOT
ATOM      5  O   UNL     1      -7.548 -14.900  17.465  0.00  0.00    -0.268 OA
ATOM      6  O   UNL     1      -9.598 -10.217  18.733  0.00  0.00    -0.275 OA
ATOM      8  N   UNL     1      -7.463  -9.929  17.863  0.00  0.00    -0.300 N 
ATOM      9  N   UNL     1      -6.520 -12.846  17.010  0.00  0.00    -0.311 N 
ATOM     10  C   UNL     1      -5.675 -11.324  18.893  0.00  0.00    +0.027 C 
ATOM     11  C   UNL     1      -5.461 -10.612  16.550  0.00  0.00    +0.054 C 
ATOM     12  C   UNL     1      -4.687 -10.825  17.851  0.00  0.00    +0.018 C 
ATOM     13  C   UNL     1      -6.801 -10.300  19.114  0.00  0.00    +0.113 C 
ATOM     14  C   UNL     1      -6.217 -12.680  18.439  0.00  0.00    +0.130 C 
ATOM     15  C   UNL     1      -6.556  -9.548  16.772  0.00  0.00    +0.117 C 
ATOM     16  C   UNL     1      -6.086 -11.915  16.045  0.00  0.00    +0.034 A 
ATOM     17  C   UNL     1      -6.255 -12.184  14.724  0.00  0.00    +0.002 A 
ATOM     18  C   UNL     1      -7.162 -14.049  16.665  0.00  0.00    +0.252 A 
ATOM     19  C   UNL     1      -8.856  -9.892  17.802  0.00  0.00    +0.225 C 
ATOM     20  C   UNL     1      -6.916 -13.413  14.330  0.00  0.00    +0.015 A 
ATOM     21  C   UNL     1      -7.365 -14.298  15.220  0.00  0.00    +0.071 A 
ENDROOT
BRANCH  17  22
ATOM     22  C   UNL     1      -5.798 -11.247  13.674  0.00  0.00    -0.016 A 
ATOM     24  C   UNL     1      -4.444 -11.161  13.365  0.00  0.00    +0.012 A 
ATOM     25  C   UNL     1      -6.728 -10.459  13.001  0.00  0.00    +0.012 A 
ATOM     26  C   UNL     1      -4.015 -10.278  12.375  0.00  0.00    +0.046 A 
ATOM     27  C   UNL     1      -6.298  -9.576  12.011  0.00  0.00    +0.046 A 
ATOM     28  C   UNL     1      -4.942  -9.485  11.697  0.00  0.00    +0.130 A 
BRANCH  28   7
ATOM      7  O   UNL     1      -4.522  -8.624  10.731  0.00  0.00    -0.406 OA
BRANCH   7  30
ATOM      2  F   UNL     1      -4.074 -10.437   9.413  0.00  0.00    -0.133 F 
ATOM      3  F   UNL     1      -2.450  -9.084   9.963  0.00  0.00    -0.133 F 
ATOM      4  F   UNL     1      -3.954  -8.418   8.525  0.00  0.00    -0.133 F 
ATOM     30  C   UNL     1      -3.763  -9.146   9.646  0.00  0.00    +0.575 C 
ENDBRANCH   7  30
ENDBRANCH  28   7
ENDBRANCH  17  22
BRANCH  19  23
ATOM     23  C   UNL     1      -9.463  -9.429  16.503  0.00  0.00    +0.164 C 
BRANCH  23   1
ATOM      1  S   UNL     1     -10.127  -7.778  16.767  0.00  0.00    -0.155 S 
ATOM     29  C   UNL     1     -11.793  -8.038  16.111  0.00  0.00    +0.085 C 
ENDBRANCH  23   1
ENDBRANCH  19  23
TORSDOF 5
ENDMDL
MODEL 9
REMARK VINA RESULT:      -6.1     13.292     15.700
REMARK  Name = 7144189
REMARK  6 active torsions:
REMARK  status: ('A' for Active; 'I' for Inactive)
REMARK    1  A    between atoms: S_1  and  C_23
REMARK    2  A    between atoms: S_1  and  C_29
REMARK    3  A    between atoms: O_7  and  C_28
REMARK    4  A    between atoms: O_7  and  C_30
REMARK    5  A    between atoms: C_17  and  C_22
REMARK    6  A    between atoms: C_19  and  C_23
REMARK                            x       y       z     vdW  Elec       q    Type
REMARK                         _______ _______ _______ _____ _____    ______ ____
ROOT
ATOM      5  O   UNL     1      19.517  -4.947  21.477  0.00  0.00    -0.268 OA
ATOM      6  O   UNL     1      20.926  -1.244  24.948  0.00  0.00    -0.275 OA
ATOM      8  N   UNL     1      18.732  -1.895  25.344  0.00  0.00    -0.300 N 
ATOM      9  N   UNL     1      18.180  -4.241  23.265  0.00  0.00    -0.311 N 
ATOM     10  C   UNL     1      17.219  -1.866  23.365  0.00  0.00    +0.027 C 
ATOM     11  C   UNL     1      16.787  -3.444  25.201  0.00  0.00    +0.054 C 
ATOM     12  C   UNL     1      16.118  -2.502  24.199  0.00  0.00    +0.018 C 
ATOM     13  C   UNL     1      18.193  -1.079  24.256  0.00  0.00    +0.113 C 
ATOM     14  C   UNL     1      17.929  -2.967  22.577  0.00  0.00    +0.130 C 
ATOM     15  C   UNL     1      17.725  -2.633  26.119  0.00  0.00    +0.117 C 
ATOM     16  C   UNL     1      17.568  -4.555  24.495  0.00  0.00    +0.034 A 
ATOM     17  C   UNL     1      17.708  -5.800  25.021  0.00  0.00    +0.002 A 
ATOM     18  C   UNL     1      18.973  -5.164  22.558  0.00  0.00    +0.252 A 
ATOM     19  C   UNL     1      20.099  -1.873  25.615  0.00  0.00    +0.225 C 
ATOM     20  C   UNL     1      18.520  -6.777  24.322  0.00  0.00    +0.015 A 
ATOM     21  C   UNL     1      19.137  -6.501  23.173  0.00  0.00    +0.071 A 
ENDROOT
BRANCH  17  22
ATOM     22  C   UNL     1      17.069  -6.183  26.299  0.00  0.00    -0.016 A 
ATOM     24  C   UNL     1      17.760  -6.018  27.495  0.00  0.00    +0.012 A 
ATOM     25  C   UNL     1      15.778  -6.705  26.297  0.00  0.00    +0.012 A 
ATOM     26  C   UNL     1      17.157  -6.378  28.700  0.00  0.00    +0.046 A 
ATOM     27  C   UNL     1      15.175  -7.065  27.501  0.00  0.00    +0.046 A 
ATOM     28  C   UNL     1      15.864  -6.902  28.703  0.00  0.00    +0.130 A 
BRANCH  28   7
ATOM      7  O   UNL     1      15.276  -7.253  29.879  0.00  0.00    -0.406 OA
BRANCH   7  30
ATOM      2  F   UNL     1      13.071  -6.649  29.854  0.00  0.00    -0.133 F 
ATOM      3  F   UNL     1      14.600  -5.115  30.135  0.00  0.00    -0.133 F 
ATOM      4  F   UNL     1      14.190  -6.522  31.755  0.00  0.00    -0.133 F 
ATOM     30  C   UNL     1      14.272  -6.397  30.413  0.00  0.00    +0.575 C 
ENDBRANCH   7  30
ENDBRANCH  28   7
ENDBRANCH  17  22
BRANCH  19  23
ATOM     23  C   UNL     1      20.567  -2.683  26.797  0.00  0.00    +0.164 C 
BRANCH  23   1
ATOM      1  S   UNL     1      21.099  -4.288  26.183  0.00  0.00    -0.155 S 
ATOM     29  C   UNL     1      22.298  -4.698  27.475  0.00  0.00    +0.085 C 
ENDBRANCH  23   1
ENDBRANCH  19  23
TORSDOF 5
ENDMDL
MODEL 10
REMARK VINA RESULT:      -6.1     27.209     29.657
REMARK  Name = 7144189
REMARK  6 active torsions:
REMARK  status: ('A' for Active; 'I' for Inactive)
REMARK    1  A    between atoms: S_1  and  C_23
REMARK    2  A    between atoms: S_1  and  C_29
REMARK    3  A    between atoms: O_7  and  C_28
REMARK    4  A    between atoms: O_7  and  C_30
REMARK    5  A    between atoms: C_17  and  C_22
REMARK    6  A    between atoms: C_19  and  C_23
REMARK                            x       y       z     vdW  Elec       q    Type
REMARK                         _______ _______ _______ _____ _____    ______ ____
ROOT
ATOM      5  O   UNL     1      -1.960 -10.676  16.667  0.00  0.00    -0.268 OA
ATOM      6  O   UNL     1      -5.141 -14.798  15.871  0.00  0.00    -0.275 OA
ATOM      8  N   UNL     1      -5.923 -12.963  14.681  0.00  0.00    -0.300 N 
ATOM      9  N   UNL     1      -3.759 -10.682  15.168  0.00  0.00    -0.311 N 
ATOM     10  C   UNL     1      -6.184 -10.856  15.983  0.00  0.00    +0.027 C 
ATOM     11  C   UNL     1      -5.704 -10.744  13.575  0.00  0.00    +0.054 C 
ATOM     12  C   UNL     1      -6.517 -10.108  14.703  0.00  0.00    +0.018 C 
ATOM     13  C   UNL     1      -6.542 -12.346  15.854  0.00  0.00    +0.113 C 
ATOM     14  C   UNL     1      -4.701 -10.650  16.295  0.00  0.00    +0.130 C 
ATOM     15  C   UNL     1      -6.108 -12.225  13.424  0.00  0.00    +0.117 C 
ATOM     16  C   UNL     1      -4.199 -10.628  13.830  0.00  0.00    +0.034 A 
ATOM     17  C   UNL     1      -3.292 -10.506  12.826  0.00  0.00    +0.002 A 
ATOM     18  C   UNL     1      -2.397 -10.647  15.517  0.00  0.00    +0.252 A 
ATOM     19  C   UNL     1      -5.284 -14.197  14.804  0.00  0.00    +0.225 C 
ATOM     20  C   UNL     1      -1.879 -10.471  13.147  0.00  0.00    +0.015 A 
ATOM     21  C   UNL     1      -1.431 -10.550  14.400  0.00  0.00    +0.071 A 
ENDROOT
BRANCH  17  22
ATOM     22  C   UNL     1      -3.707 -10.427  11.407  0.00  0.00    -0.016 A 
ATOM     24  C   UNL     1      -3.866 -11.595  10.667  0.00  0.00    +0.012 A 
ATOM     25  C   UNL     1      -3.935  -9.185  10.823  0.00  0.00    +0.012 A 
ATOM     26  C   UNL     1      -4.257 -11.520   9.331  0.00  0.00    +0.046 A 
ATOM     27  C   UNL     1      -4.326  -9.110   9.487  0.00  0.00    +0.046 A 
ATOM     28  C   UNL     1      -4.487 -10.277   8.740  0.00  0.00    +0.130 A 
BRANCH  28   7
ATOM      7  O   UNL     1      -4.869 -10.204   7.436  0.00  0.00    -0.406 OA
BRANCH   7  30
ATOM      2  F   UNL     1      -6.631 -11.230   6.402  0.00  0.00    -0.133 F 
ATOM      3  F   UNL     1      -6.524  -9.049   6.426  0.00  0.00    -0.133 F 
ATOM      4  F   UNL     1      -6.995 -10.115   8.274  0.00  0.00    -0.133 F 
ATOM     30  C   UNL     1      -6.261 -10.165   7.142  0.00  0.00    +0.575 C 
ENDBRANCH   7  30
ENDBRANCH  28   7
ENDBRANCH  17  22
BRANCH  19  23
ATOM     23  C   UNL     1      -4.736 -14.803  13.537  0.00  0.00    +0.164 C 
BRANCH  23   1
ATOM      1  S   UNL     1      -2.999 -14.349  13.421  0.00  0.00    -0.155 S 
ATOM     29  C   UNL     1      -2.644 -15.019  11.778  0.00  0.00    +0.085 C 
ENDBRANCH  23   1
ENDBRANCH  19  23
TORSDOF 5
ENDMDL
