MODEL 1
REMARK VINA RESULT:      -6.8      0.000      0.000
REMARK  Name = 45783278
REMARK  8 active torsions:
REMARK  status: ('A' for Active; 'I' for Inactive)
REMARK    1  A    between atoms: O_2  and  C_27
REMARK    2  A    between atoms: O_2  and  C_28
REMARK    3  A    between atoms: N_3  and  C_13
REMARK    4  A    between atoms: N_7  and  C_26
REMARK    5  A    between atoms: C_9  and  C_14
REMARK    6  A    between atoms: C_13  and  C_15
REMARK    7  A    between atoms: C_16  and  C_18
REMARK    8  A    between atoms: C_26  and  C_27
REMARK                            x       y       z     vdW  Elec       q    Type
REMARK                         _______ _______ _______ _____ _____    ______ ____
ROOT
ATOM      1  O   UNL     1      -4.280 -13.213  15.384  0.00  0.00    -0.336 OA
ATOM      4  N   UNL     1      -4.403 -11.280  16.507  0.00  0.00    -0.190 NA
ATOM      5  N   UNL     1      -5.413 -13.309  16.201  0.00  0.00    -0.056 NA
ATOM     14  C   UNL     1      -3.744 -11.989  15.626  0.00  0.00    +0.245 A 
ATOM     16  C   UNL     1      -5.419 -12.131  16.831  0.00  0.00    +0.202 A 
ENDROOT
BRANCH  16  18
ATOM      7  N   UNL     1      -9.209  -9.429  18.160  0.00  0.00    -0.327 N 
ATOM      8  N   UNL     1      -8.381 -11.083  19.662  0.00  0.00    -0.240 NA
ATOM     18  C   UNL     1      -6.423 -11.774  17.792  0.00  0.00    +0.027 A 
ATOM     22  C   UNL     1      -7.336 -10.766  17.506  0.00  0.00    +0.055 A 
ATOM     23  C   UNL     1      -6.488 -12.438  19.012  0.00  0.00    +0.031 A 
ATOM     24  C   UNL     1      -8.287 -10.460  18.466  0.00  0.00    +0.119 A 
ATOM     25  C   UNL     1      -7.477 -12.057  19.905  0.00  0.00    +0.113 A 
ATOM     29  H   UNL     1      -9.903  -9.218  18.869  0.00  0.00    +0.148 HD
BRANCH   7  26
ATOM     26  C   UNL     1      -9.186  -8.717  16.925  0.00  0.00    +0.131 C 
BRANCH  26  27
ATOM     27  C   UNL     1     -10.334  -7.722  16.877  0.00  0.00    +0.178 C 
BRANCH  27   2
ATOM      2  O   UNL     1     -10.053  -6.722  15.906  0.00  0.00    -0.381 OA
ATOM     28  C   UNL     1     -11.197  -5.922  15.637  0.00  0.00    +0.194 C 
ENDBRANCH  27   2
ENDBRANCH  26  27
ENDBRANCH   7  26
ENDBRANCH  16  18
BRANCH  14   9
ATOM      3  N   UNL     1      -2.739 -10.645  13.788  0.00  0.00    -0.286 NA
ATOM      9  C   UNL     1      -2.490 -11.636  14.853  0.00  0.00    +0.146 C 
ATOM     10  C   UNL     1      -1.407 -10.994  15.739  0.00  0.00    +0.030 C 
ATOM     11  C   UNL     1      -1.068  -9.674  15.060  0.00  0.00    +0.017 C 
ATOM     12  C   UNL     1      -1.495  -9.893  13.622  0.00  0.00    +0.085 C 
BRANCH   3  13
ATOM     13  C   UNL     1      -3.187 -11.245  12.538  0.00  0.00    +0.140 C 
BRANCH  13  15
ATOM      6  N   UNL     1      -4.980  -9.676  12.043  0.00  0.00    -0.259 NA
ATOM     15  C   UNL     1      -3.821 -10.230  11.624  0.00  0.00    +0.055 A 
ATOM     17  C   UNL     1      -3.201  -9.917  10.425  0.00  0.00    +0.024 A 
ATOM     19  C   UNL     1      -3.812  -8.976   9.602  0.00  0.00    +0.003 A 
ATOM     20  C   UNL     1      -5.544  -8.765  11.218  0.00  0.00    +0.111 A 
ATOM     21  C   UNL     1      -5.006  -8.385  10.000  0.00  0.00    +0.020 A 
ENDBRANCH  13  15
ENDBRANCH   3  13
ENDBRANCH  14   9
TORSDOF 7
ENDMDL
MODEL 2
REMARK VINA RESULT:      -6.4     26.852     30.197
REMARK  Name = 45783278
REMARK  8 active torsions:
REMARK  status: ('A' for Active; 'I' for Inactive)
REMARK    1  A    between atoms: O_2  and  C_27
REMARK    2  A    between atoms: O_2  and  C_28
REMARK    3  A    between atoms: N_3  and  C_13
REMARK    4  A    between atoms: N_7  and  C_26
REMARK    5  A    between atoms: C_9  and  C_14
REMARK    6  A    between atoms: C_13  and  C_15
REMARK    7  A    between atoms: C_16  and  C_18
REMARK    8  A    between atoms: C_26  and  C_27
REMARK                            x       y       z     vdW  Elec       q    Type
REMARK                         _______ _______ _______ _____ _____    ______ ____
ROOT
ATOM      1  O   UNL     1      16.832  11.103  22.436  0.00  0.00    -0.336 OA
ATOM      4  N   UNL     1      15.135   9.770  21.837  0.00  0.00    -0.190 NA
ATOM      5  N   UNL     1      17.392  10.089  21.650  0.00  0.00    -0.056 NA
ATOM     14  C   UNL     1      15.501  10.840  22.496  0.00  0.00    +0.245 A 
ATOM     16  C   UNL     1      16.329   9.344  21.333  0.00  0.00    +0.202 A 
ENDROOT
BRANCH  16  18
ATOM      7  N   UNL     1      18.807   5.485  19.782  0.00  0.00    -0.327 N 
ATOM      8  N   UNL     1      16.613   5.870  18.937  0.00  0.00    -0.240 NA
ATOM     18  C   UNL     1      16.427   8.166  20.520  0.00  0.00    +0.027 A 
ATOM     22  C   UNL     1      17.580   7.392  20.547  0.00  0.00    +0.055 A 
ATOM     23  C   UNL     1      15.365   7.794  19.701  0.00  0.00    +0.031 A 
ATOM     24  C   UNL     1      17.624   6.264  19.744  0.00  0.00    +0.119 A 
ATOM     25  C   UNL     1      15.508   6.648  18.936  0.00  0.00    +0.113 A 
ATOM     29  H   UNL     1      18.824   4.659  19.194  0.00  0.00    +0.148 HD
BRANCH   7  26
ATOM     26  C   UNL     1      19.924   5.822  20.602  0.00  0.00    +0.131 C 
BRANCH  26  27
ATOM     27  C   UNL     1      20.970   4.721  20.534  0.00  0.00    +0.178 C 
BRANCH  27   2
ATOM      2  O   UNL     1      21.981   4.968  21.503  0.00  0.00    -0.381 OA
ATOM     28  C   UNL     1      23.271   5.019  20.908  0.00  0.00    +0.194 C 
ENDBRANCH  27   2
ENDBRANCH  26  27
ENDBRANCH   7  26
ENDBRANCH  16  18
BRANCH  14   9
ATOM      3  N   UNL     1      13.311  11.277  23.594  0.00  0.00    -0.286 NA
ATOM      9  C   UNL     1      14.657  11.806  23.302  0.00  0.00    +0.146 C 
ATOM     10  C   UNL     1      15.263  12.118  24.682  0.00  0.00    +0.030 C 
ATOM     11  C   UNL     1      14.164  11.789  25.683  0.00  0.00    +0.017 C 
ATOM     12  C   UNL     1      12.895  11.881  24.860  0.00  0.00    +0.085 C 
BRANCH   3  13
ATOM     13  C   UNL     1      12.350  11.527  22.527  0.00  0.00    +0.140 C 
BRANCH  13  15
ATOM      6  N   UNL     1      11.205   9.408  22.872  0.00  0.00    -0.259 NA
ATOM     15  C   UNL     1      11.774  10.248  21.979  0.00  0.00    +0.055 A 
ATOM     17  C   UNL     1      11.852   9.997  20.619  0.00  0.00    +0.024 A 
ATOM     19  C   UNL     1      11.311   8.807  20.144  0.00  0.00    +0.003 A 
ATOM     20  C   UNL     1      10.689   8.262  22.374  0.00  0.00    +0.111 A 
ATOM     21  C   UNL     1      10.717   7.918  21.033  0.00  0.00    +0.020 A 
ENDBRANCH  13  15
ENDBRANCH   3  13
ENDBRANCH  14   9
TORSDOF 7
ENDMDL
MODEL 3
REMARK VINA RESULT:      -6.3     23.091     26.620
REMARK  Name = 45783278
REMARK  8 active torsions:
REMARK  status: ('A' for Active; 'I' for Inactive)
REMARK    1  A    between atoms: O_2  and  C_27
REMARK    2  A    between atoms: O_2  and  C_28
REMARK    3  A    between atoms: N_3  and  C_13
REMARK    4  A    between atoms: N_7  and  C_26
REMARK    5  A    between atoms: C_9  and  C_14
REMARK    6  A    between atoms: C_13  and  C_15
REMARK    7  A    between atoms: C_16  and  C_18
REMARK    8  A    between atoms: C_26  and  C_27
REMARK                            x       y       z     vdW  Elec       q    Type
REMARK                         _______ _______ _______ _____ _____    ______ ____
ROOT
ATOM      1  O   UNL     1      12.391   2.889   1.778  0.00  0.00    -0.336 OA
ATOM      4  N   UNL     1      12.115   5.050   1.260  0.00  0.00    -0.190 NA
ATOM      5  N   UNL     1      11.442   3.386   2.679  0.00  0.00    -0.056 NA
ATOM     14  C   UNL     1      12.735   3.932   0.979  0.00  0.00    +0.245 A 
ATOM     16  C   UNL     1      11.332   4.666   2.310  0.00  0.00    +0.202 A 
ENDROOT
BRANCH  16  18
ATOM      7  N   UNL     1       9.116   6.245   6.314  0.00  0.00    -0.327 N 
ATOM      8  N   UNL     1       8.740   7.384   4.255  0.00  0.00    -0.240 NA
ATOM     18  C   UNL     1      10.452   5.587   2.970  0.00  0.00    +0.027 A 
ATOM     22  C   UNL     1      10.210   5.466   4.333  0.00  0.00    +0.055 A 
ATOM     23  C   UNL     1       9.839   6.605   2.248  0.00  0.00    +0.031 A 
ATOM     24  C   UNL     1       9.354   6.382   4.923  0.00  0.00    +0.119 A 
ATOM     25  C   UNL     1       8.999   7.470   2.931  0.00  0.00    +0.113 A 
ATOM     29  H   UNL     1       8.491   6.924   6.735  0.00  0.00    +0.148 HD
BRANCH   7  26
ATOM     26  C   UNL     1       9.717   5.219   7.100  0.00  0.00    +0.131 C 
BRANCH  26  27
ATOM     27  C   UNL     1      10.721   5.826   8.067  0.00  0.00    +0.178 C 
BRANCH  27   2
ATOM      2  O   UNL     1      10.499   5.302   9.370  0.00  0.00    -0.381 OA
ATOM     28  C   UNL     1       9.406   4.393   9.386  0.00  0.00    +0.194 C 
ENDBRANCH  27   2
ENDBRANCH  26  27
ENDBRANCH   7  26
ENDBRANCH  16  18
BRANCH  14   9
ATOM      3  N   UNL     1      13.273   3.975  -1.450  0.00  0.00    -0.286 NA
ATOM      9  C   UNL     1      13.763   3.649  -0.097  0.00  0.00    +0.146 C 
ATOM     10  C   UNL     1      15.043   4.487   0.068  0.00  0.00    +0.030 C 
ATOM     11  C   UNL     1      15.225   5.204  -1.262  0.00  0.00    +0.017 C 
ATOM     12  C   UNL     1      14.450   4.342  -2.239  0.00  0.00    +0.085 C 
BRANCH   3  13
ATOM     13  C   UNL     1      12.518   2.891  -2.065  0.00  0.00    +0.140 C 
BRANCH  13  15
ATOM      6  N   UNL     1      10.675   2.617  -3.631  0.00  0.00    -0.259 NA
ATOM     15  C   UNL     1      11.218   3.375  -2.652  0.00  0.00    +0.055 A 
ATOM     17  C   UNL     1      10.652   4.544  -2.173  0.00  0.00    +0.024 A 
ATOM     19  C   UNL     1       9.451   4.965  -2.736  0.00  0.00    +0.003 A 
ATOM     20  C   UNL     1       9.508   3.056  -4.154  0.00  0.00    +0.111 A 
ATOM     21  C   UNL     1       8.863   4.211  -3.745  0.00  0.00    +0.020 A 
ENDBRANCH  13  15
ENDBRANCH   3  13
ENDBRANCH  14   9
TORSDOF 7
ENDMDL
MODEL 4
REMARK VINA RESULT:      -6.0      2.249      3.574
REMARK  Name = 45783278
REMARK  8 active torsions:
REMARK  status: ('A' for Active; 'I' for Inactive)
REMARK    1  A    between atoms: O_2  and  C_27
REMARK    2  A    between atoms: O_2  and  C_28
REMARK    3  A    between atoms: N_3  and  C_13
REMARK    4  A    between atoms: N_7  and  C_26
REMARK    5  A    between atoms: C_9  and  C_14
REMARK    6  A    between atoms: C_13  and  C_15
REMARK    7  A    between atoms: C_16  and  C_18
REMARK    8  A    between atoms: C_26  and  C_27
REMARK                            x       y       z     vdW  Elec       q    Type
REMARK                         _______ _______ _______ _____ _____    ______ ____
ROOT
ATOM      1  O   UNL     1      -4.093 -11.293  17.841  0.00  0.00    -0.336 OA
ATOM      4  N   UNL     1      -5.428 -10.553  16.203  0.00  0.00    -0.190 NA
ATOM      5  N   UNL     1      -5.319 -10.989  18.445  0.00  0.00    -0.056 NA
ATOM     14  C   UNL     1      -4.243 -11.007  16.522  0.00  0.00    +0.245 A 
ATOM     16  C   UNL     1      -6.054 -10.560  17.415  0.00  0.00    +0.202 A 
ENDROOT
BRANCH  16  18
ATOM      7  N   UNL     1     -10.442 -11.061  19.398  0.00  0.00    -0.327 N 
ATOM      8  N   UNL     1     -10.063  -9.286  17.854  0.00  0.00    -0.240 NA
ATOM     18  C   UNL     1      -7.414 -10.129  17.563  0.00  0.00    +0.027 A 
ATOM     22  C   UNL     1      -8.274 -10.811  18.416  0.00  0.00    +0.055 A 
ATOM     23  C   UNL     1      -7.878  -9.025  16.855  0.00  0.00    +0.031 A 
ATOM     24  C   UNL     1      -9.577 -10.354  18.526  0.00  0.00    +0.119 A 
ATOM     25  C   UNL     1      -9.198  -8.648  17.034  0.00  0.00    +0.113 A 
ATOM     29  H   UNL     1     -11.392 -10.714  19.473  0.00  0.00    +0.148 HD
BRANCH   7  26
ATOM     26  C   UNL     1     -10.018 -12.199  20.146  0.00  0.00    +0.131 C 
BRANCH  26  27
ATOM     27  C   UNL     1     -10.747 -13.441  19.661  0.00  0.00    +0.178 C 
BRANCH  27   2
ATOM      2  O   UNL     1     -10.233 -14.584  20.332  0.00  0.00    -0.381 OA
ATOM     28  C   UNL     1     -11.277 -15.401  20.843  0.00  0.00    +0.194 C 
ENDBRANCH  27   2
ENDBRANCH  26  27
ENDBRANCH   7  26
ENDBRANCH  16  18
BRANCH  14   9
ATOM      3  N   UNL     1      -3.107 -10.508  14.364  0.00  0.00    -0.286 NA
ATOM      9  C   UNL     1      -3.039 -11.253  15.636  0.00  0.00    +0.146 C 
ATOM     10  C   UNL     1      -1.720 -10.798  16.286  0.00  0.00    +0.030 C 
ATOM     11  C   UNL     1      -1.089  -9.845  15.280  0.00  0.00    +0.017 C 
ATOM     12  C   UNL     1      -1.725 -10.245  13.964  0.00  0.00    +0.085 C 
BRANCH   3  13
ATOM     13  C   UNL     1      -3.854 -11.209  13.327  0.00  0.00    +0.140 C 
BRANCH  13  15
ATOM      6  N   UNL     1      -5.326  -9.566  12.299  0.00  0.00    -0.259 NA
ATOM     15  C   UNL     1      -4.199 -10.302  12.175  0.00  0.00    +0.055 A 
ATOM     17  C   UNL     1      -3.366 -10.264  11.069  0.00  0.00    +0.024 A 
ATOM     19  C   UNL     1      -3.713  -9.417  10.021  0.00  0.00    +0.003 A 
ATOM     20  C   UNL     1      -5.630  -8.754  11.262  0.00  0.00    +0.111 A 
ATOM     21  C   UNL     1      -4.865  -8.645  10.113  0.00  0.00    +0.020 A 
ENDBRANCH  13  15
ENDBRANCH   3  13
ENDBRANCH  14   9
TORSDOF 7
ENDMDL
MODEL 5
REMARK VINA RESULT:      -6.0      1.813      2.650
REMARK  Name = 45783278
REMARK  8 active torsions:
REMARK  status: ('A' for Active; 'I' for Inactive)
REMARK    1  A    between atoms: O_2  and  C_27
REMARK    2  A    between atoms: O_2  and  C_28
REMARK    3  A    between atoms: N_3  and  C_13
REMARK    4  A    between atoms: N_7  and  C_26
REMARK    5  A    between atoms: C_9  and  C_14
REMARK    6  A    between atoms: C_13  and  C_15
REMARK    7  A    between atoms: C_16  and  C_18
REMARK    8  A    between atoms: C_26  and  C_27
REMARK                            x       y       z     vdW  Elec       q    Type
REMARK                         _______ _______ _______ _____ _____    ______ ____
ROOT
ATOM      1  O   UNL     1      -2.125 -10.628  14.790  0.00  0.00    -0.336 OA
ATOM      4  N   UNL     1      -4.354 -10.790  14.660  0.00  0.00    -0.190 NA
ATOM      5  N   UNL     1      -2.595 -10.593  16.109  0.00  0.00    -0.056 NA
ATOM     14  C   UNL     1      -3.224 -10.745  14.001  0.00  0.00    +0.245 A 
ATOM     16  C   UNL     1      -3.918 -10.694  15.949  0.00  0.00    +0.202 A 
ENDROOT
BRANCH  16  18
ATOM      7  N   UNL     1      -8.168  -9.462  17.912  0.00  0.00    -0.327 N 
ATOM      8  N   UNL     1      -6.611 -10.714  19.210  0.00  0.00    -0.240 NA
ATOM     18  C   UNL     1      -4.831 -10.700  17.056  0.00  0.00    +0.027 A 
ATOM     22  C   UNL     1      -6.066 -10.072  16.944  0.00  0.00    +0.055 A 
ATOM     23  C   UNL     1      -4.484 -11.334  18.244  0.00  0.00    +0.031 A 
ATOM     24  C   UNL     1      -6.913 -10.107  18.040  0.00  0.00    +0.119 A 
ATOM     25  C   UNL     1      -5.401 -11.312  19.282  0.00  0.00    +0.113 A 
ATOM     29  H   UNL     1      -8.781  -9.499  18.720  0.00  0.00    +0.148 HD
BRANCH   7  26
ATOM     26  C   UNL     1      -8.573  -8.797  16.717  0.00  0.00    +0.131 C 
BRANCH  26  27
ATOM     27  C   UNL     1      -9.884  -9.380  16.216  0.00  0.00    +0.178 C 
BRANCH  27   2
ATOM      2  O   UNL     1     -10.569  -8.406  15.439  0.00  0.00    -0.381 OA
ATOM     28  C   UNL     1     -10.372  -7.097  15.956  0.00  0.00    +0.194 C 
ENDBRANCH  27   2
ENDBRANCH  26  27
ENDBRANCH   7  26
ENDBRANCH  16  18
BRANCH  14   9
ATOM      3  N   UNL     1      -3.916  -9.957  11.745  0.00  0.00    -0.286 NA
ATOM      9  C   UNL     1      -2.980 -10.806  12.508  0.00  0.00    +0.146 C 
ATOM     10  C   UNL     1      -1.582 -10.299  12.112  0.00  0.00    +0.030 C 
ATOM     11  C   UNL     1      -1.830  -9.208  11.080  0.00  0.00    +0.017 C 
ATOM     12  C   UNL     1      -3.205  -9.540  10.536  0.00  0.00    +0.085 C 
BRANCH   3  13
ATOM     13  C   UNL     1      -5.176 -10.622  11.437  0.00  0.00    +0.140 C 
BRANCH  13  15
ATOM      6  N   UNL     1      -5.785 -10.732   9.084  0.00  0.00    -0.259 NA
ATOM     15  C   UNL     1      -5.848 -10.021  10.231  0.00  0.00    +0.055 A 
ATOM     17  C   UNL     1      -6.487  -8.797  10.351  0.00  0.00    +0.024 A 
ATOM     19  C   UNL     1      -7.098  -8.268   9.219  0.00  0.00    +0.003 A 
ATOM     20  C   UNL     1      -6.391 -10.187   8.005  0.00  0.00    +0.111 A 
ATOM     21  C   UNL     1      -7.054  -8.971   8.020  0.00  0.00    +0.020 A 
ENDBRANCH  13  15
ENDBRANCH   3  13
ENDBRANCH  14   9
TORSDOF 7
ENDMDL
MODEL 6
REMARK VINA RESULT:      -5.9      2.168      3.260
REMARK  Name = 45783278
REMARK  8 active torsions:
REMARK  status: ('A' for Active; 'I' for Inactive)
REMARK    1  A    between atoms: O_2  and  C_27
REMARK    2  A    between atoms: O_2  and  C_28
REMARK    3  A    between atoms: N_3  and  C_13
REMARK    4  A    between atoms: N_7  and  C_26
REMARK    5  A    between atoms: C_9  and  C_14
REMARK    6  A    between atoms: C_13  and  C_15
REMARK    7  A    between atoms: C_16  and  C_18
REMARK    8  A    between atoms: C_26  and  C_27
REMARK                            x       y       z     vdW  Elec       q    Type
REMARK                         _______ _______ _______ _____ _____    ______ ____
ROOT
ATOM      1  O   UNL     1      -2.275 -10.884  14.304  0.00  0.00    -0.336 OA
ATOM      4  N   UNL     1      -4.513 -10.873  14.376  0.00  0.00    -0.190 NA
ATOM      5  N   UNL     1      -2.620 -10.794  15.658  0.00  0.00    -0.056 NA
ATOM     14  C   UNL     1      -3.447 -10.925  13.619  0.00  0.00    +0.245 A 
ATOM     16  C   UNL     1      -3.956 -10.794  15.619  0.00  0.00    +0.202 A 
ENDROOT
BRANCH  16  18
ATOM      7  N   UNL     1      -8.011  -9.404  17.869  0.00  0.00    -0.327 N 
ATOM      8  N   UNL     1      -6.336 -10.559  19.108  0.00  0.00    -0.240 NA
ATOM     18  C   UNL     1      -4.763 -10.713  16.803  0.00  0.00    +0.027 A 
ATOM     22  C   UNL     1      -6.005 -10.092  16.759  0.00  0.00    +0.055 A 
ATOM     23  C   UNL     1      -4.305 -11.258  17.998  0.00  0.00    +0.031 A 
ATOM     24  C   UNL     1      -6.747 -10.042  17.928  0.00  0.00    +0.119 A 
ATOM     25  C   UNL     1      -5.122 -11.155  19.112  0.00  0.00    +0.113 A 
ATOM     29  H   UNL     1      -8.545  -9.378  18.730  0.00  0.00    +0.148 HD
BRANCH   7  26
ATOM     26  C   UNL     1      -8.526  -8.828  16.670  0.00  0.00    +0.131 C 
BRANCH  26  27
ATOM     27  C   UNL     1      -9.647  -7.857  17.001  0.00  0.00    +0.178 C 
BRANCH  27   2
ATOM      2  O   UNL     1     -10.026  -7.153  15.824  0.00  0.00    -0.381 OA
ATOM     28  C   UNL     1     -11.153  -6.319  16.057  0.00  0.00    +0.194 C 
ENDBRANCH  27   2
ENDBRANCH  26  27
ENDBRANCH   7  26
ENDBRANCH  16  18
BRANCH  14   9
ATOM      3  N   UNL     1      -4.575 -10.580  11.428  0.00  0.00    -0.286 NA
ATOM      9  C   UNL     1      -3.345 -11.025  12.111  0.00  0.00    +0.146 C 
ATOM     10  C   UNL     1      -2.231 -10.135  11.530  0.00  0.00    +0.030 C 
ATOM     11  C   UNL     1      -2.920  -9.265  10.487  0.00  0.00    +0.017 C 
ATOM     12  C   UNL     1      -4.160 -10.058  10.125  0.00  0.00    +0.085 C 
BRANCH   3  13
ATOM     13  C   UNL     1      -5.575 -11.632  11.301  0.00  0.00    +0.140 C 
BRANCH  13  15
ATOM      6  N   UNL     1      -7.312 -10.031  11.886  0.00  0.00    -0.259 NA
ATOM     15  C   UNL     1      -6.845 -11.290  12.035  0.00  0.00    +0.055 A 
ATOM     17  C   UNL     1      -7.463 -12.259  12.809  0.00  0.00    +0.024 A 
ATOM     19  C   UNL     1      -8.634 -11.912  13.475  0.00  0.00    +0.003 A 
ATOM     20  C   UNL     1      -8.452  -9.730  12.547  0.00  0.00    +0.111 A 
ATOM     21  C   UNL     1      -9.144 -10.626  13.345  0.00  0.00    +0.020 A 
ENDBRANCH  13  15
ENDBRANCH   3  13
ENDBRANCH  14   9
TORSDOF 7
ENDMDL
MODEL 7
REMARK VINA RESULT:      -5.8      2.018      7.372
REMARK  Name = 45783278
REMARK  8 active torsions:
REMARK  status: ('A' for Active; 'I' for Inactive)
REMARK    1  A    between atoms: O_2  and  C_27
REMARK    2  A    between atoms: O_2  and  C_28
REMARK    3  A    between atoms: N_3  and  C_13
REMARK    4  A    between atoms: N_7  and  C_26
REMARK    5  A    between atoms: C_9  and  C_14
REMARK    6  A    between atoms: C_13  and  C_15
REMARK    7  A    between atoms: C_16  and  C_18
REMARK    8  A    between atoms: C_26  and  C_27
REMARK                            x       y       z     vdW  Elec       q    Type
REMARK                         _______ _______ _______ _____ _____    ______ ____
ROOT
ATOM      1  O   UNL     1      -6.969 -12.112  17.004  0.00  0.00    -0.336 OA
ATOM      4  N   UNL     1      -5.765 -10.231  17.178  0.00  0.00    -0.190 NA
ATOM      5  N   UNL     1      -5.814 -12.316  16.239  0.00  0.00    -0.056 NA
ATOM     14  C   UNL     1      -6.860 -10.861  17.521  0.00  0.00    +0.245 A 
ATOM     16  C   UNL     1      -5.154 -11.164  16.392  0.00  0.00    +0.202 A 
ENDROOT
BRANCH  16  18
ATOM      7  N   UNL     1      -2.499 -10.251  12.448  0.00  0.00    -0.327 N 
ATOM      8  N   UNL     1      -1.414 -10.418  14.563  0.00  0.00    -0.240 NA
ATOM     18  C   UNL     1      -3.886 -10.913  15.771  0.00  0.00    +0.027 A 
ATOM     22  C   UNL     1      -3.810 -10.703  14.399  0.00  0.00    +0.055 A 
ATOM     23  C   UNL     1      -2.728 -10.876  16.540  0.00  0.00    +0.031 A 
ATOM     24  C   UNL     1      -2.561 -10.462  13.848  0.00  0.00    +0.119 A 
ATOM     25  C   UNL     1      -1.528 -10.627  15.894  0.00  0.00    +0.113 A 
ATOM     29  H   UNL     1      -1.581 -10.071  12.058  0.00  0.00    +0.148 HD
BRANCH   7  26
ATOM     26  C   UNL     1      -3.656 -10.279  11.614  0.00  0.00    +0.131 C 
BRANCH  26  27
ATOM     27  C   UNL     1      -3.322  -9.712  10.244  0.00  0.00    +0.178 C 
BRANCH  27   2
ATOM      2  O   UNL     1      -4.526  -9.397   9.556  0.00  0.00    -0.381 OA
ATOM     28  C   UNL     1      -5.130  -8.220  10.075  0.00  0.00    +0.194 C 
ENDBRANCH  27   2
ENDBRANCH  26  27
ENDBRANCH   7  26
ENDBRANCH  16  18
BRANCH  14   9
ATOM      3  N   UNL     1      -9.147  -9.884  17.622  0.00  0.00    -0.286 NA
ATOM      9  C   UNL     1      -8.001 -10.392  18.401  0.00  0.00    +0.146 C 
ATOM     10  C   UNL     1      -8.587 -11.522  19.267  0.00  0.00    +0.030 C 
ATOM     11  C   UNL     1     -10.076 -11.534  18.951  0.00  0.00    +0.017 C 
ATOM     12  C   UNL     1     -10.341 -10.135  18.430  0.00  0.00    +0.085 C 
BRANCH   3  13
ATOM     13  C   UNL     1      -9.017  -8.478  17.261  0.00  0.00    +0.140 C 
BRANCH  13  15
ATOM      6  N   UNL     1     -10.235  -8.752  15.172  0.00  0.00    -0.259 NA
ATOM     15  C   UNL     1     -10.102  -8.040  16.313  0.00  0.00    +0.055 A 
ATOM     17  C   UNL     1     -10.897  -6.955  16.646  0.00  0.00    +0.024 A 
ATOM     19  C   UNL     1     -11.890  -6.575  15.749  0.00  0.00    +0.003 A 
ATOM     20  C   UNL     1     -11.211  -8.355  14.325  0.00  0.00    +0.111 A 
ATOM     21  C   UNL     1     -12.056  -7.284  14.564  0.00  0.00    +0.020 A 
ENDBRANCH  13  15
ENDBRANCH   3  13
ENDBRANCH  14   9
TORSDOF 7
ENDMDL
MODEL 8
REMARK VINA RESULT:      -5.8     24.591     27.505
REMARK  Name = 45783278
REMARK  8 active torsions:
REMARK  status: ('A' for Active; 'I' for Inactive)
REMARK    1  A    between atoms: O_2  and  C_27
REMARK    2  A    between atoms: O_2  and  C_28
REMARK    3  A    between atoms: N_3  and  C_13
REMARK    4  A    between atoms: N_7  and  C_26
REMARK    5  A    between atoms: C_9  and  C_14
REMARK    6  A    between atoms: C_13  and  C_15
REMARK    7  A    between atoms: C_16  and  C_18
REMARK    8  A    between atoms: C_26  and  C_27
REMARK                            x       y       z     vdW  Elec       q    Type
REMARK                         _______ _______ _______ _____ _____    ______ ____
ROOT
ATOM      1  O   UNL     1      11.105   7.026   3.977  0.00  0.00    -0.336 OA
ATOM      4  N   UNL     1      10.801   4.828   3.678  0.00  0.00    -0.190 NA
ATOM      5  N   UNL     1      11.581   6.739   2.692  0.00  0.00    -0.056 NA
ATOM     14  C   UNL     1      10.665   5.847   4.487  0.00  0.00    +0.245 A 
ATOM     16  C   UNL     1      11.367   5.424   2.588  0.00  0.00    +0.202 A 
ENDROOT
BRANCH  16  18
ATOM      7  N   UNL     1      10.515   4.177  -2.011  0.00  0.00    -0.327 N 
ATOM      8  N   UNL     1      12.380   3.221  -0.877  0.00  0.00    -0.240 NA
ATOM     18  C   UNL     1      11.709   4.676   1.413  0.00  0.00    +0.027 A 
ATOM     22  C   UNL     1      10.938   4.792   0.263  0.00  0.00    +0.055 A 
ATOM     23  C   UNL     1      12.816   3.833   1.420  0.00  0.00    +0.031 A 
ATOM     24  C   UNL     1      11.312   4.049  -0.846  0.00  0.00    +0.119 A 
ATOM     25  C   UNL     1      13.105   3.134   0.260  0.00  0.00    +0.113 A 
ATOM     29  H   UNL     1      10.801   3.632  -2.817  0.00  0.00    +0.148 HD
BRANCH   7  26
ATOM     26  C   UNL     1       9.370   5.025  -2.071  0.00  0.00    +0.131 C 
BRANCH  26  27
ATOM     27  C   UNL     1       9.184   5.547  -3.486  0.00  0.00    +0.178 C 
BRANCH  27   2
ATOM      2  O   UNL     1       8.130   4.834  -4.119  0.00  0.00    -0.381 OA
ATOM     28  C   UNL     1       7.066   5.700  -4.493  0.00  0.00    +0.194 C 
ENDBRANCH  27   2
ENDBRANCH  26  27
ENDBRANCH   7  26
ENDBRANCH  16  18
BRANCH  14   9
ATOM      3  N   UNL     1      10.670   6.975   6.706  0.00  0.00    -0.286 NA
ATOM      9  C   UNL     1      10.092   5.890   5.889  0.00  0.00    +0.146 C 
ATOM     10  C   UNL     1       8.576   6.153   5.905  0.00  0.00    +0.030 C 
ATOM     11  C   UNL     1       8.392   7.369   6.803  0.00  0.00    +0.017 C 
ATOM     12  C   UNL     1       9.638   7.365   7.666  0.00  0.00    +0.085 C 
BRANCH   3  13
ATOM     13  C   UNL     1      11.916   6.599   7.363  0.00  0.00    +0.140 C 
BRANCH  13  15
ATOM      6  N   UNL     1      14.235   6.892   6.688  0.00  0.00    -0.259 NA
ATOM     15  C   UNL     1      13.056   7.495   6.957  0.00  0.00    +0.055 A 
ATOM     17  C   UNL     1      12.850   8.863   6.879  0.00  0.00    +0.024 A 
ATOM     19  C   UNL     1      13.923   9.663   6.502  0.00  0.00    +0.003 A 
ATOM     20  C   UNL     1      15.255   7.701   6.325  0.00  0.00    +0.111 A 
ATOM     21  C   UNL     1      15.152   9.078   6.218  0.00  0.00    +0.020 A 
ENDBRANCH  13  15
ENDBRANCH   3  13
ENDBRANCH  14   9
TORSDOF 7
ENDMDL
MODEL 9
REMARK VINA RESULT:      -5.7      2.036      8.082
REMARK  Name = 45783278
REMARK  8 active torsions:
REMARK  status: ('A' for Active; 'I' for Inactive)
REMARK    1  A    between atoms: O_2  and  C_27
REMARK    2  A    between atoms: O_2  and  C_28
REMARK    3  A    between atoms: N_3  and  C_13
REMARK    4  A    between atoms: N_7  and  C_26
REMARK    5  A    between atoms: C_9  and  C_14
REMARK    6  A    between atoms: C_13  and  C_15
REMARK    7  A    between atoms: C_16  and  C_18
REMARK    8  A    between atoms: C_26  and  C_27
REMARK                            x       y       z     vdW  Elec       q    Type
REMARK                         _______ _______ _______ _____ _____    ______ ____
ROOT
ATOM      1  O   UNL     1      -9.112  -9.969  12.474  0.00  0.00    -0.336 OA
ATOM      4  N   UNL     1      -7.152  -9.513  13.455  0.00  0.00    -0.190 NA
ATOM      5  N   UNL     1      -8.163  -9.927  11.446  0.00  0.00    -0.056 NA
ATOM     14  C   UNL     1      -8.434  -9.715  13.623  0.00  0.00    +0.245 A 
ATOM     16  C   UNL     1      -7.032  -9.653  12.103  0.00  0.00    +0.202 A 
ENDROOT
BRANCH  16  18
ATOM      7  N   UNL     1      -2.235 -10.295  11.994  0.00  0.00    -0.327 N 
ATOM      8  N   UNL     1      -3.306  -9.238  10.146  0.00  0.00    -0.240 NA
ATOM     18  C   UNL     1      -5.768  -9.511  11.440  0.00  0.00    +0.027 A 
ATOM     22  C   UNL     1      -4.606  -9.977  12.046  0.00  0.00    +0.055 A 
ATOM     23  C   UNL     1      -5.700  -8.909  10.188  0.00  0.00    +0.031 A 
ATOM     24  C   UNL     1      -3.411  -9.817  11.363  0.00  0.00    +0.119 A 
ATOM     25  C   UNL     1      -4.456  -8.797   9.589  0.00  0.00    +0.113 A 
ATOM     29  H   UNL     1      -1.368 -10.177  11.482  0.00  0.00    +0.148 HD
BRANCH   7  26
ATOM     26  C   UNL     1      -2.249 -10.919  13.276  0.00  0.00    +0.131 C 
BRANCH  26  27
ATOM     27  C   UNL     1      -1.832 -12.375  13.150  0.00  0.00    +0.178 C 
BRANCH  27   2
ATOM      2  O   UNL     1      -2.209 -13.078  14.327  0.00  0.00    -0.381 OA
ATOM     28  C   UNL     1      -3.593 -12.919  14.608  0.00  0.00    +0.194 C 
ENDBRANCH  27   2
ENDBRANCH  26  27
ENDBRANCH   7  26
ENDBRANCH  16  18
BRANCH  14   9
ATOM      3  N   UNL     1      -8.407  -9.749  16.111  0.00  0.00    -0.286 NA
ATOM      9  C   UNL     1      -9.249  -9.705  14.900  0.00  0.00    +0.146 C 
ATOM     10  C   UNL     1     -10.093  -8.428  15.057  0.00  0.00    +0.030 C 
ATOM     11  C   UNL     1      -9.700  -7.854  16.412  0.00  0.00    +0.017 C 
ATOM     12  C   UNL     1      -9.153  -9.054  17.160  0.00  0.00    +0.085 C 
BRANCH   3  13
ATOM     13  C   UNL     1      -8.039 -11.103  16.507  0.00  0.00    +0.140 C 
BRANCH  13  15
ATOM      6  N   UNL     1      -5.766 -10.239  16.595  0.00  0.00    -0.259 NA
ATOM     15  C   UNL     1      -6.637 -11.167  17.051  0.00  0.00    +0.055 A 
ATOM     17  C   UNL     1      -6.311 -12.149  17.972  0.00  0.00    +0.024 A 
ATOM     19  C   UNL     1      -5.007 -12.182  18.456  0.00  0.00    +0.003 A 
ATOM     20  C   UNL     1      -4.508 -10.302  17.087  0.00  0.00    +0.111 A 
ATOM     21  C   UNL     1      -4.083 -11.244  18.009  0.00  0.00    +0.020 A 
ENDBRANCH  13  15
ENDBRANCH   3  13
ENDBRANCH  14   9
TORSDOF 7
ENDMDL
MODEL 10
REMARK VINA RESULT:      -5.7     28.129     29.976
REMARK  Name = 45783278
REMARK  8 active torsions:
REMARK  status: ('A' for Active; 'I' for Inactive)
REMARK    1  A    between atoms: O_2  and  C_27
REMARK    2  A    between atoms: O_2  and  C_28
REMARK    3  A    between atoms: N_3  and  C_13
REMARK    4  A    between atoms: N_7  and  C_26
REMARK    5  A    between atoms: C_9  and  C_14
REMARK    6  A    between atoms: C_13  and  C_15
REMARK    7  A    between atoms: C_16  and  C_18
REMARK    8  A    between atoms: C_26  and  C_27
REMARK                            x       y       z     vdW  Elec       q    Type
REMARK                         _______ _______ _______ _____ _____    ______ ____
ROOT
ATOM      1  O   UNL     1      13.530  -5.444  -4.458  0.00  0.00    -0.336 OA
ATOM      4  N   UNL     1      15.607  -5.062  -5.204  0.00  0.00    -0.190 NA
ATOM      5  N   UNL     1      14.258  -4.972  -3.358  0.00  0.00    -0.056 NA
ATOM     14  C   UNL     1      14.398  -5.467  -5.502  0.00  0.00    +0.245 A 
ATOM     16  C   UNL     1      15.472  -4.769  -3.878  0.00  0.00    +0.202 A 
ENDROOT
BRANCH  16  18
ATOM      7  N   UNL     1      19.444  -5.555  -1.224  0.00  0.00    -0.327 N 
ATOM      8  N   UNL     1      18.717  -3.315  -1.587  0.00  0.00    -0.240 NA
ATOM     18  C   UNL     1      16.572  -4.276  -3.100  0.00  0.00    +0.027 A 
ATOM     22  C   UNL     1      17.481  -5.164  -2.535  0.00  0.00    +0.055 A 
ATOM     23  C   UNL     1      16.734  -2.908  -2.909  0.00  0.00    +0.031 A 
ATOM     24  C   UNL     1      18.526  -4.637  -1.794  0.00  0.00    +0.119 A 
ATOM     25  C   UNL     1      17.813  -2.483  -2.151  0.00  0.00    +0.113 A 
ATOM     29  H   UNL     1      20.208  -5.157  -0.688  0.00  0.00    +0.148 HD
BRANCH   7  26
ATOM     26  C   UNL     1      19.323  -6.966  -1.388  0.00  0.00    +0.131 C 
BRANCH  26  27
ATOM     27  C   UNL     1      20.161  -7.684  -0.343  0.00  0.00    +0.178 C 
BRANCH  27   2
ATOM      2  O   UNL     1      20.185  -6.916   0.853  0.00  0.00    -0.381 OA
ATOM     28  C   UNL     1      21.440  -7.017   1.512  0.00  0.00    +0.194 C 
ENDBRANCH  27   2
ENDBRANCH  26  27
ENDBRANCH   7  26
ENDBRANCH  16  18
BRANCH  14   9
ATOM      3  N   UNL     1      13.201  -7.271  -6.729  0.00  0.00    -0.286 NA
ATOM      9  C   UNL     1      13.847  -5.947  -6.829  0.00  0.00    +0.146 C 
ATOM     10  C   UNL     1      12.754  -5.020  -7.389  0.00  0.00    +0.030 C 
ATOM     11  C   UNL     1      11.551  -5.922  -7.630  0.00  0.00    +0.017 C 
ATOM     12  C   UNL     1      12.162  -7.303  -7.759  0.00  0.00    +0.085 C 
BRANCH   3  13
ATOM     13  C   UNL     1      14.138  -8.379  -6.863  0.00  0.00    +0.140 C 
BRANCH  13  15
ATOM      6  N   UNL     1      14.275  -8.711  -4.456  0.00  0.00    -0.259 NA
ATOM     15  C   UNL     1      14.957  -8.575  -5.614  0.00  0.00    +0.055 A 
ATOM     17  C   UNL     1      16.339  -8.607  -5.708  0.00  0.00    +0.024 A 
ATOM     19  C   UNL     1      17.068  -8.789  -4.537  0.00  0.00    +0.003 A 
ATOM     20  C   UNL     1      15.016  -8.887  -3.339  0.00  0.00    +0.111 A 
ATOM     21  C   UNL     1      16.400  -8.933  -3.326  0.00  0.00    +0.020 A 
ENDBRANCH  13  15
ENDBRANCH   3  13
ENDBRANCH  14   9
TORSDOF 7
ENDMDL
