MODEL 1
REMARK VINA RESULT:      -6.7      0.000      0.000
REMARK  Name = 38030802
REMARK  14 active torsions:
REMARK  status: ('A' for Active; 'I' for Inactive)
REMARK    1  A    between atoms: O_2  and  C_28
REMARK    2  A    between atoms: O_2  and  C_29
REMARK    3  A    between atoms: N_3  and  C_13
REMARK    4  A    between atoms: N_3  and  C_19
REMARK    5  A    between atoms: C_6  and  C_10
REMARK    6  A    between atoms: C_7  and  C_13
REMARK    7  A    between atoms: C_9  and  C_14
REMARK    8  A    between atoms: C_10  and  C_15
REMARK    9  A    between atoms: C_10  and  C_16
REMARK   10  A    between atoms: C_11  and  C_17
REMARK   11  A    between atoms: C_14  and  C_18
REMARK   12  A    between atoms: C_19  and  C_20
REMARK   13  A    between atoms: C_19  and  C_21
REMARK   14  A    between atoms: C_22  and  C_23
REMARK                            x       y       z     vdW  Elec       q    Type
REMARK                         _______ _______ _______ _____ _____    ______ ____
ROOT
ATOM      6  C   UNL     1      12.951   9.767  20.288  0.00  0.00    +0.000 C 
ATOM      7  C   UNL     1      11.499   9.684  20.819  0.00  0.00    +0.029 C 
ATOM      8  C   UNL     1      13.286   8.528  19.444  0.00  0.00    +0.012 C 
ATOM      9  C   UNL     1      13.131   7.219  20.242  0.00  0.00    +0.024 C 
ATOM     11  C   UNL     1      11.828   7.181  21.014  0.00  0.00    -0.073 C 
ATOM     12  C   UNL     1      11.105   8.290  21.251  0.00  0.00    -0.023 C 
ATOM     17  C   UNL     1      11.350   5.830  21.469  0.00  0.00    +0.039 C 
ENDROOT
BRANCH   6  10
ATOM     10  C   UNL     1      13.184  11.035  19.462  0.00  0.00    -0.013 C 
ATOM     15  C   UNL     1      14.376  11.814  20.006  0.00  0.00    +0.007 C 
ATOM     16  C   UNL     1      13.393  10.683  17.993  0.00  0.00    +0.007 C 
ENDBRANCH   6  10
BRANCH   7  13
ATOM     13  C   UNL     1      11.277  10.659  21.981  0.00  0.00    +0.089 C 
BRANCH  13   3
ATOM      3  N   UNL     1      12.250  10.430  23.036  0.00  0.00    -0.313 NA
ATOM     30  H   UNL     1      11.862   9.781  23.720  0.00  0.00    +0.122 HD
BRANCH   3  19
ATOM     19  C   UNL     1      12.606  11.677  23.701  0.00  0.00    +0.047 C 
ATOM     20  C   UNL     1      11.967  11.741  25.085  0.00  0.00    +0.023 C 
ATOM     21  C   UNL     1      12.166  12.856  22.839  0.00  0.00    +0.023 C 
ENDBRANCH   3  19
ENDBRANCH  13   3
ENDBRANCH   7  13
BRANCH   9  14
ATOM     14  C   UNL     1      14.327   6.997  21.174  0.00  0.00    +0.105 C 
BRANCH  14  18
ATOM      1  O   UNL     1      16.738   6.629  21.072  0.00  0.00    -0.420 OA
ATOM      4  N   UNL     1      15.660   6.177  19.164  0.00  0.00    -0.112 NA
ATOM      5  N   UNL     1      17.005   5.927  18.965  0.00  0.00    -0.107 NA
ATOM     18  C   UNL     1      15.551   6.584  20.407  0.00  0.00    +0.218 A 
ATOM     22  C   UNL     1      17.595   6.204  20.104  0.00  0.00    +0.248 A 
BRANCH  22  23
ATOM     23  C   UNL     1      18.978   6.130  20.479  0.00  0.00    +0.039 A 
ATOM     24  C   UNL     1      19.731   5.004  20.148  0.00  0.00    +0.017 A 
ATOM     25  C   UNL     1      19.569   7.184  21.175  0.00  0.00    +0.017 A 
ATOM     26  C   UNL     1      21.075   4.932  20.513  0.00  0.00    +0.046 A 
ATOM     27  C   UNL     1      20.913   7.112  21.539  0.00  0.00    +0.046 A 
ATOM     28  C   UNL     1      21.666   5.986  21.208  0.00  0.00    +0.120 A 
BRANCH  28   2
ATOM      2  O   UNL     1      22.979   5.917  21.562  0.00  0.00    -0.495 OA
ATOM     29  C   UNL     1      23.268   5.619  22.928  0.00  0.00    +0.277 C 
ENDBRANCH  28   2
ENDBRANCH  22  23
ENDBRANCH  14  18
ENDBRANCH   9  14
TORSDOF 8
ENDMDL
MODEL 2
REMARK VINA RESULT:      -6.4     27.545     29.449
REMARK  Name = 38030802
REMARK  14 active torsions:
REMARK  status: ('A' for Active; 'I' for Inactive)
REMARK    1  A    between atoms: O_2  and  C_28
REMARK    2  A    between atoms: O_2  and  C_29
REMARK    3  A    between atoms: N_3  and  C_13
REMARK    4  A    between atoms: N_3  and  C_19
REMARK    5  A    between atoms: C_6  and  C_10
REMARK    6  A    between atoms: C_7  and  C_13
REMARK    7  A    between atoms: C_9  and  C_14
REMARK    8  A    between atoms: C_10  and  C_15
REMARK    9  A    between atoms: C_10  and  C_16
REMARK   10  A    between atoms: C_11  and  C_17
REMARK   11  A    between atoms: C_14  and  C_18
REMARK   12  A    between atoms: C_19  and  C_20
REMARK   13  A    between atoms: C_19  and  C_21
REMARK   14  A    between atoms: C_22  and  C_23
REMARK                            x       y       z     vdW  Elec       q    Type
REMARK                         _______ _______ _______ _____ _____    ______ ____
ROOT
ATOM      6  C   UNL     1      -6.539 -10.900  16.160  0.00  0.00    +0.000 C 
ATOM      7  C   UNL     1      -7.036 -10.952  17.626  0.00  0.00    +0.029 C 
ATOM      8  C   UNL     1      -5.514 -12.015  15.901  0.00  0.00    +0.012 C 
ATOM      9  C   UNL     1      -4.294 -11.915  16.836  0.00  0.00    +0.024 C 
ATOM     11  C   UNL     1      -4.705 -11.695  18.278  0.00  0.00    -0.073 C 
ATOM     12  C   UNL     1      -5.939 -11.277  18.613  0.00  0.00    -0.023 C 
ATOM     17  C   UNL     1      -3.679 -12.010  19.330  0.00  0.00    +0.039 C 
ENDROOT
BRANCH   6  10
ATOM     10  C   UNL     1      -7.694 -11.015  15.162  0.00  0.00    -0.013 C 
ATOM     15  C   UNL     1      -7.234 -10.611  13.765  0.00  0.00    +0.007 C 
ATOM     16  C   UNL     1      -8.254 -12.434  15.157  0.00  0.00    +0.007 C 
ENDBRANCH   6  10
BRANCH   7  13
ATOM     13  C   UNL     1      -7.711  -9.636  18.028  0.00  0.00    +0.089 C 
BRANCH  13   3
ATOM      3  N   UNL     1      -9.008  -9.889  18.633  0.00  0.00    -0.313 NA
ATOM     30  H   UNL     1      -9.171 -10.895  18.680  0.00  0.00    +0.122 HD
BRANCH   3  19
ATOM     19  C   UNL     1     -10.077  -9.262  17.864  0.00  0.00    +0.047 C 
ATOM     20  C   UNL     1     -10.838 -10.313  17.061  0.00  0.00    +0.023 C 
ATOM     21  C   UNL     1      -9.484  -8.195  16.948  0.00  0.00    +0.023 C 
ENDBRANCH   3  19
ENDBRANCH  13   3
ENDBRANCH   7  13
BRANCH   9  14
ATOM     14  C   UNL     1      -3.329 -10.820  16.368  0.00  0.00    +0.105 C 
BRANCH  14  18
ATOM      1  O   UNL     1      -3.632 -10.561  13.960  0.00  0.00    -0.420 OA
ATOM      4  N   UNL     1      -1.799 -11.707  14.535  0.00  0.00    -0.112 NA
ATOM      5  N   UNL     1      -1.844 -11.639  13.155  0.00  0.00    -0.107 NA
ATOM     18  C   UNL     1      -2.861 -11.066  14.962  0.00  0.00    +0.218 A 
ATOM     22  C   UNL     1      -2.930 -10.961  12.865  0.00  0.00    +0.248 A 
BRANCH  22  23
ATOM     23  C   UNL     1      -3.480 -10.584  11.595  0.00  0.00    +0.039 A 
ATOM     24  C   UNL     1      -4.596 -11.253  11.091  0.00  0.00    +0.017 A 
ATOM     25  C   UNL     1      -2.900  -9.548  10.863  0.00  0.00    +0.017 A 
ATOM     26  C   UNL     1      -5.130 -10.886   9.856  0.00  0.00    +0.046 A 
ATOM     27  C   UNL     1      -3.435  -9.181   9.629  0.00  0.00    +0.046 A 
ATOM     28  C   UNL     1      -4.550  -9.850   9.125  0.00  0.00    +0.120 A 
BRANCH  28   2
ATOM      2  O   UNL     1      -5.074  -9.490   7.922  0.00  0.00    -0.495 OA
ATOM     29  C   UNL     1      -5.306 -10.535   6.977  0.00  0.00    +0.277 C 
ENDBRANCH  28   2
ENDBRANCH  22  23
ENDBRANCH  14  18
ENDBRANCH   9  14
TORSDOF 8
ENDMDL
MODEL 3
REMARK VINA RESULT:      -6.4     26.617     30.305
REMARK  Name = 38030802
REMARK  14 active torsions:
REMARK  status: ('A' for Active; 'I' for Inactive)
REMARK    1  A    between atoms: O_2  and  C_28
REMARK    2  A    between atoms: O_2  and  C_29
REMARK    3  A    between atoms: N_3  and  C_13
REMARK    4  A    between atoms: N_3  and  C_19
REMARK    5  A    between atoms: C_6  and  C_10
REMARK    6  A    between atoms: C_7  and  C_13
REMARK    7  A    between atoms: C_9  and  C_14
REMARK    8  A    between atoms: C_10  and  C_15
REMARK    9  A    between atoms: C_10  and  C_16
REMARK   10  A    between atoms: C_11  and  C_17
REMARK   11  A    between atoms: C_14  and  C_18
REMARK   12  A    between atoms: C_19  and  C_20
REMARK   13  A    between atoms: C_19  and  C_21
REMARK   14  A    between atoms: C_22  and  C_23
REMARK                            x       y       z     vdW  Elec       q    Type
REMARK                         _______ _______ _______ _____ _____    ______ ____
ROOT
ATOM      6  C   UNL     1     -10.342  -9.662  18.582  0.00  0.00    +0.000 C 
ATOM      7  C   UNL     1     -11.258 -10.653  19.341  0.00  0.00    +0.029 C 
ATOM      8  C   UNL     1      -9.321 -10.424  17.724  0.00  0.00    +0.012 C 
ATOM      9  C   UNL     1      -8.435 -11.361  18.567  0.00  0.00    +0.024 C 
ATOM     11  C   UNL     1      -9.254 -12.187  19.539  0.00  0.00    -0.073 C 
ATOM     12  C   UNL     1     -10.519 -11.862  19.863  0.00  0.00    -0.023 C 
ATOM     17  C   UNL     1      -8.601 -13.421  20.096  0.00  0.00    +0.039 C 
ENDROOT
BRANCH   6  10
ATOM     10  C   UNL     1     -11.147  -8.703  17.700  0.00  0.00    -0.013 C 
ATOM     15  C   UNL     1     -10.215  -7.756  16.953  0.00  0.00    +0.007 C 
ATOM     16  C   UNL     1     -12.021  -9.485  16.723  0.00  0.00    +0.007 C 
ENDBRANCH   6  10
BRANCH   7  13
ATOM     13  C   UNL     1     -11.984  -9.960  20.500  0.00  0.00    +0.089 C 
BRANCH  13   3
ATOM      3  N   UNL     1     -12.698 -10.930  21.311  0.00  0.00    -0.313 NA
ATOM     30  H   UNL     1     -12.406 -11.872  21.050  0.00  0.00    +0.122 HD
BRANCH   3  19
ATOM     19  C   UNL     1     -14.140 -10.804  21.133  0.00  0.00    +0.047 C 
ATOM     20  C   UNL     1     -14.647 -11.862  20.157  0.00  0.00    +0.023 C 
ATOM     21  C   UNL     1     -14.469  -9.399  20.639  0.00  0.00    +0.023 C 
ENDBRANCH   3  19
ENDBRANCH  13   3
ENDBRANCH   7  13
BRANCH   9  14
ATOM     14  C   UNL     1      -7.342 -10.575  19.300  0.00  0.00    +0.105 C 
BRANCH  14  18
ATOM      1  O   UNL     1      -5.620 -10.599  17.570  0.00  0.00    -0.420 OA
ATOM      4  N   UNL     1      -5.035 -11.643  19.460  0.00  0.00    -0.112 NA
ATOM      5  N   UNL     1      -3.976 -11.734  18.577  0.00  0.00    -0.107 NA
ATOM     18  C   UNL     1      -5.972 -10.973  18.830  0.00  0.00    +0.218 A 
ATOM     22  C   UNL     1      -4.362 -11.111  17.488  0.00  0.00    +0.248 A 
BRANCH  22  23
ATOM     23  C   UNL     1      -3.675 -10.890  16.248  0.00  0.00    +0.039 A 
ATOM     24  C   UNL     1      -4.377 -10.937  15.043  0.00  0.00    +0.017 A 
ATOM     25  C   UNL     1      -2.306 -10.628  16.246  0.00  0.00    +0.017 A 
ATOM     26  C   UNL     1      -3.709 -10.723  13.838  0.00  0.00    +0.046 A 
ATOM     27  C   UNL     1      -1.638 -10.413  15.041  0.00  0.00    +0.046 A 
ATOM     28  C   UNL     1      -2.339 -10.460  13.837  0.00  0.00    +0.120 A 
BRANCH  28   2
ATOM      2  O   UNL     1      -1.689 -10.249  12.661  0.00  0.00    -0.495 OA
ATOM     29  C   UNL     1      -2.487 -10.185  11.479  0.00  0.00    +0.277 C 
ENDBRANCH  28   2
ENDBRANCH  22  23
ENDBRANCH  14  18
ENDBRANCH   9  14
TORSDOF 8
ENDMDL
MODEL 4
REMARK VINA RESULT:      -6.4     26.700     28.493
REMARK  Name = 38030802
REMARK  14 active torsions:
REMARK  status: ('A' for Active; 'I' for Inactive)
REMARK    1  A    between atoms: O_2  and  C_28
REMARK    2  A    between atoms: O_2  and  C_29
REMARK    3  A    between atoms: N_3  and  C_13
REMARK    4  A    between atoms: N_3  and  C_19
REMARK    5  A    between atoms: C_6  and  C_10
REMARK    6  A    between atoms: C_7  and  C_13
REMARK    7  A    between atoms: C_9  and  C_14
REMARK    8  A    between atoms: C_10  and  C_15
REMARK    9  A    between atoms: C_10  and  C_16
REMARK   10  A    between atoms: C_11  and  C_17
REMARK   11  A    between atoms: C_14  and  C_18
REMARK   12  A    between atoms: C_19  and  C_20
REMARK   13  A    between atoms: C_19  and  C_21
REMARK   14  A    between atoms: C_22  and  C_23
REMARK                            x       y       z     vdW  Elec       q    Type
REMARK                         _______ _______ _______ _____ _____    ______ ____
ROOT
ATOM      6  C   UNL     1     -11.854  10.305  18.377  0.00  0.00    +0.000 C 
ATOM      7  C   UNL     1     -11.684   8.928  17.689  0.00  0.00    +0.029 C 
ATOM      8  C   UNL     1     -11.202  10.295  19.768  0.00  0.00    +0.012 C 
ATOM      9  C   UNL     1     -11.802   9.213  20.685  0.00  0.00    +0.024 C 
ATOM     11  C   UNL     1     -11.915   7.876  19.980  0.00  0.00    -0.073 C 
ATOM     12  C   UNL     1     -11.847   7.767  18.642  0.00  0.00    -0.023 C 
ATOM     17  C   UNL     1     -12.063   6.661  20.853  0.00  0.00    +0.039 C 
ENDROOT
BRANCH   6  10
ATOM     10  C   UNL     1     -11.263  11.439  17.535  0.00  0.00    -0.013 C 
ATOM     15  C   UNL     1     -11.303  12.753  18.308  0.00  0.00    +0.007 C 
ATOM     16  C   UNL     1      -9.835  11.102  17.115  0.00  0.00    +0.007 C 
ENDBRANCH   6  10
BRANCH   7  13
ATOM     13  C   UNL     1     -12.661   8.769  16.519  0.00  0.00    +0.089 C 
BRANCH  13   3
ATOM      3  N   UNL     1     -12.105   7.892  15.502  0.00  0.00    -0.313 NA
ATOM     30  H   UNL     1     -11.723   7.057  15.946  0.00  0.00    +0.122 HD
BRANCH   3  19
ATOM     19  C   UNL     1     -11.052   8.564  14.749  0.00  0.00    +0.047 C 
ATOM     20  C   UNL     1     -11.629   9.744  13.972  0.00  0.00    +0.023 C 
ATOM     21  C   UNL     1     -10.382   7.565  13.812  0.00  0.00    +0.023 C 
ENDBRANCH   3  19
ENDBRANCH  13   3
ENDBRANCH   7  13
BRANCH   9  14
ATOM     14  C   UNL     1     -13.159   9.654  21.245  0.00  0.00    +0.105 C 
BRANCH  14  18
ATOM      1  O   UNL     1     -12.711   9.969  23.623  0.00  0.00    -0.420 OA
ATOM      4  N   UNL     1     -13.083  11.868  22.502  0.00  0.00    -0.112 NA
ATOM      5  N   UNL     1     -12.847  12.193  23.824  0.00  0.00    -0.107 NA
ATOM     18  C   UNL     1     -12.995  10.561  22.431  0.00  0.00    +0.218 A 
ATOM     22  C   UNL     1     -12.635  11.054  24.441  0.00  0.00    +0.248 A 
BRANCH  22  23
ATOM     23  C   UNL     1     -12.340  10.781  25.819  0.00  0.00    +0.039 A 
ATOM     24  C   UNL     1     -11.024  10.552  26.219  0.00  0.00    +0.017 A 
ATOM     25  C   UNL     1     -13.371  10.745  26.758  0.00  0.00    +0.017 A 
ATOM     26  C   UNL     1     -10.738  10.287  27.558  0.00  0.00    +0.046 A 
ATOM     27  C   UNL     1     -13.085  10.481  28.097  0.00  0.00    +0.046 A 
ATOM     28  C   UNL     1     -11.768  10.252  28.497  0.00  0.00    +0.120 A 
BRANCH  28   2
ATOM      2  O   UNL     1     -11.488   9.996  29.804  0.00  0.00    -0.495 OA
ATOM     29  C   UNL     1     -11.259  11.121  30.651  0.00  0.00    +0.277 C 
ENDBRANCH  28   2
ENDBRANCH  22  23
ENDBRANCH  14  18
ENDBRANCH   9  14
TORSDOF 8
ENDMDL
MODEL 5
REMARK VINA RESULT:      -6.2     27.494     30.284
REMARK  Name = 38030802
REMARK  14 active torsions:
REMARK  status: ('A' for Active; 'I' for Inactive)
REMARK    1  A    between atoms: O_2  and  C_28
REMARK    2  A    between atoms: O_2  and  C_29
REMARK    3  A    between atoms: N_3  and  C_13
REMARK    4  A    between atoms: N_3  and  C_19
REMARK    5  A    between atoms: C_6  and  C_10
REMARK    6  A    between atoms: C_7  and  C_13
REMARK    7  A    between atoms: C_9  and  C_14
REMARK    8  A    between atoms: C_10  and  C_15
REMARK    9  A    between atoms: C_10  and  C_16
REMARK   10  A    between atoms: C_11  and  C_17
REMARK   11  A    between atoms: C_14  and  C_18
REMARK   12  A    between atoms: C_19  and  C_20
REMARK   13  A    between atoms: C_19  and  C_21
REMARK   14  A    between atoms: C_22  and  C_23
REMARK                            x       y       z     vdW  Elec       q    Type
REMARK                         _______ _______ _______ _____ _____    ______ ____
ROOT
ATOM      6  C   UNL     1      -6.484  -9.642   9.687  0.00  0.00    +0.000 C 
ATOM      7  C   UNL     1      -5.492  -9.266   8.559  0.00  0.00    +0.029 C 
ATOM      8  C   UNL     1      -6.072  -8.977  11.009  0.00  0.00    +0.012 C 
ATOM      9  C   UNL     1      -4.653  -9.385  11.450  0.00  0.00    +0.024 C 
ATOM     11  C   UNL     1      -3.661  -9.294  10.307  0.00  0.00    -0.073 C 
ATOM     12  C   UNL     1      -4.055  -9.229   9.023  0.00  0.00    -0.023 C 
ATOM     17  C   UNL     1      -2.205  -9.235  10.679  0.00  0.00    +0.039 C 
ENDROOT
BRANCH   6  10
ATOM     10  C   UNL     1      -7.922  -9.250   9.336  0.00  0.00    -0.013 C 
ATOM     15  C   UNL     1      -8.834  -9.428  10.545  0.00  0.00    +0.007 C 
ATOM     16  C   UNL     1      -7.972  -7.812   8.827  0.00  0.00    +0.007 C 
ENDBRANCH   6  10
BRANCH   7  13
ATOM     13  C   UNL     1      -5.619 -10.221   7.368  0.00  0.00    +0.089 C 
BRANCH  13   3
ATOM      3  N   UNL     1      -4.567 -11.223   7.400  0.00  0.00    -0.313 NA
ATOM     30  H   UNL     1      -4.070 -11.222   6.510  0.00  0.00    +0.122 HD
BRANCH   3  19
ATOM     19  C   UNL     1      -5.116 -12.552   7.645  0.00  0.00    +0.047 C 
ATOM     20  C   UNL     1      -6.621 -12.557   7.394  0.00  0.00    +0.023 C 
ATOM     21  C   UNL     1      -4.797 -12.978   9.074  0.00  0.00    +0.023 C 
ENDBRANCH   3  19
ENDBRANCH  13   3
ENDBRANCH   7  13
BRANCH   9  14
ATOM     14  C   UNL     1      -4.649 -10.786  12.070  0.00  0.00    +0.105 C 
BRANCH  14  18
ATOM      1  O   UNL     1      -5.434 -10.800  14.381  0.00  0.00    -0.420 OA
ATOM      4  N   UNL     1      -3.213 -10.632  14.168  0.00  0.00    -0.112 NA
ATOM      5  N   UNL     1      -3.514 -10.627  15.516  0.00  0.00    -0.107 NA
ATOM     18  C   UNL     1      -4.363 -10.734  13.543  0.00  0.00    +0.218 A 
ATOM     22  C   UNL     1      -4.820 -10.726  15.593  0.00  0.00    +0.248 A 
BRANCH  22  23
ATOM     23  C   UNL     1      -5.686 -10.770  16.737  0.00  0.00    +0.039 A 
ATOM     24  C   UNL     1      -5.152 -10.653  18.020  0.00  0.00    +0.017 A 
ATOM     25  C   UNL     1      -7.060 -10.929  16.566  0.00  0.00    +0.017 A 
ATOM     26  C   UNL     1      -5.993 -10.695  19.132  0.00  0.00    +0.046 A 
ATOM     27  C   UNL     1      -7.902 -10.971  17.677  0.00  0.00    +0.046 A 
ATOM     28  C   UNL     1      -7.368 -10.854  18.961  0.00  0.00    +0.120 A 
BRANCH  28   2
ATOM      2  O   UNL     1      -8.189 -10.893  20.045  0.00  0.00    -0.495 OA
ATOM     29  C   UNL     1      -9.580 -11.100  19.800  0.00  0.00    +0.277 C 
ENDBRANCH  28   2
ENDBRANCH  22  23
ENDBRANCH  14  18
ENDBRANCH   9  14
TORSDOF 8
ENDMDL
MODEL 6
REMARK VINA RESULT:      -5.9     16.117     18.263
REMARK  Name = 38030802
REMARK  14 active torsions:
REMARK  status: ('A' for Active; 'I' for Inactive)
REMARK    1  A    between atoms: O_2  and  C_28
REMARK    2  A    between atoms: O_2  and  C_29
REMARK    3  A    between atoms: N_3  and  C_13
REMARK    4  A    between atoms: N_3  and  C_19
REMARK    5  A    between atoms: C_6  and  C_10
REMARK    6  A    between atoms: C_7  and  C_13
REMARK    7  A    between atoms: C_9  and  C_14
REMARK    8  A    between atoms: C_10  and  C_15
REMARK    9  A    between atoms: C_10  and  C_16
REMARK   10  A    between atoms: C_11  and  C_17
REMARK   11  A    between atoms: C_14  and  C_18
REMARK   12  A    between atoms: C_19  and  C_20
REMARK   13  A    between atoms: C_19  and  C_21
REMARK   14  A    between atoms: C_22  and  C_23
REMARK                            x       y       z     vdW  Elec       q    Type
REMARK                         _______ _______ _______ _____ _____    ______ ____
ROOT
ATOM      6  C   UNL     1       8.842   8.253   5.478  0.00  0.00    +0.000 C 
ATOM      7  C   UNL     1       8.512   7.722   6.895  0.00  0.00    +0.029 C 
ATOM      8  C   UNL     1       8.636   7.149   4.430  0.00  0.00    +0.012 C 
ATOM      9  C   UNL     1       9.511   5.912   4.706  0.00  0.00    +0.024 C 
ATOM     11  C   UNL     1       9.445   5.487   6.159  0.00  0.00    -0.073 C 
ATOM     12  C   UNL     1       8.983   6.305   7.122  0.00  0.00    -0.023 C 
ATOM     17  C   UNL     1       9.880   4.083   6.474  0.00  0.00    +0.039 C 
ENDROOT
BRANCH   6  10
ATOM     10  C   UNL     1       7.995   9.477   5.117  0.00  0.00    -0.013 C 
ATOM     15  C   UNL     1       8.882  10.704   4.939  0.00  0.00    +0.007 C 
ATOM     16  C   UNL     1       7.183   9.207   3.853  0.00  0.00    +0.007 C 
ENDBRANCH   6  10
BRANCH   7  13
ATOM     13  C   UNL     1       9.099   8.634   7.979  0.00  0.00    +0.089 C 
BRANCH  13   3
ATOM      3  N   UNL     1      10.507   8.890   7.726  0.00  0.00    -0.313 NA
ATOM     30  H   UNL     1      11.068   8.152   8.151  0.00  0.00    +0.122 HD
BRANCH   3  19
ATOM     19  C   UNL     1      10.911  10.180   8.272  0.00  0.00    +0.047 C 
ATOM     20  C   UNL     1       9.684  10.990   8.680  0.00  0.00    +0.023 C 
ATOM     21  C   UNL     1      11.744  10.930   7.238  0.00  0.00    +0.023 C 
ENDBRANCH   3  19
ENDBRANCH  13   3
ENDBRANCH   7  13
BRANCH   9  14
ATOM     14  C   UNL     1      10.961   6.155   4.271  0.00  0.00    +0.105 C 
BRANCH  14  18
ATOM      1  O   UNL     1      12.423   5.460   2.443  0.00  0.00    -0.420 OA
ATOM      4  N   UNL     1      11.010   3.872   3.141  0.00  0.00    -0.112 NA
ATOM      5  N   UNL     1      11.769   3.346   2.113  0.00  0.00    -0.107 NA
ATOM     18  C   UNL     1      11.425   5.107   3.299  0.00  0.00    +0.218 A 
ATOM     22  C   UNL     1      12.580   4.308   1.737  0.00  0.00    +0.248 A 
BRANCH  22  23
ATOM     23  C   UNL     1      13.587   4.331   0.715  0.00  0.00    +0.039 A 
ATOM     24  C   UNL     1      14.927   4.146   1.052  0.00  0.00    +0.017 A 
ATOM     25  C   UNL     1      13.225   4.540  -0.615  0.00  0.00    +0.017 A 
ATOM     26  C   UNL     1      15.906   4.169   0.059  0.00  0.00    +0.046 A 
ATOM     27  C   UNL     1      14.203   4.562  -1.609  0.00  0.00    +0.046 A 
ATOM     28  C   UNL     1      15.544   4.376  -1.272  0.00  0.00    +0.120 A 
BRANCH  28   2
ATOM      2  O   UNL     1      16.499   4.396  -2.241  0.00  0.00    -0.495 OA
ATOM     29  C   UNL     1      17.851   4.568  -1.817  0.00  0.00    +0.277 C 
ENDBRANCH  28   2
ENDBRANCH  22  23
ENDBRANCH  14  18
ENDBRANCH   9  14
TORSDOF 8
ENDMDL
MODEL 7
REMARK VINA RESULT:      -5.9     27.139     30.220
REMARK  Name = 38030802
REMARK  14 active torsions:
REMARK  status: ('A' for Active; 'I' for Inactive)
REMARK    1  A    between atoms: O_2  and  C_28
REMARK    2  A    between atoms: O_2  and  C_29
REMARK    3  A    between atoms: N_3  and  C_13
REMARK    4  A    between atoms: N_3  and  C_19
REMARK    5  A    between atoms: C_6  and  C_10
REMARK    6  A    between atoms: C_7  and  C_13
REMARK    7  A    between atoms: C_9  and  C_14
REMARK    8  A    between atoms: C_10  and  C_15
REMARK    9  A    between atoms: C_10  and  C_16
REMARK   10  A    between atoms: C_11  and  C_17
REMARK   11  A    between atoms: C_14  and  C_18
REMARK   12  A    between atoms: C_19  and  C_20
REMARK   13  A    between atoms: C_19  and  C_21
REMARK   14  A    between atoms: C_22  and  C_23
REMARK                            x       y       z     vdW  Elec       q    Type
REMARK                         _______ _______ _______ _____ _____    ______ ____
ROOT
ATOM      6  C   UNL     1      -6.011 -10.105   9.885  0.00  0.00    +0.000 C 
ATOM      7  C   UNL     1      -5.171  -9.375   8.808  0.00  0.00    +0.029 C 
ATOM      8  C   UNL     1      -5.650  -9.590  11.287  0.00  0.00    +0.012 C 
ATOM      9  C   UNL     1      -4.158  -9.788  11.615  0.00  0.00    +0.024 C 
ATOM     11  C   UNL     1      -3.266  -9.333  10.476  0.00  0.00    -0.073 C 
ATOM     12  C   UNL     1      -3.739  -9.141   9.232  0.00  0.00    -0.023 C 
ATOM     17  C   UNL     1      -1.827  -9.059  10.812  0.00  0.00    +0.039 C 
ENDROOT
BRANCH   6  10
ATOM     10  C   UNL     1      -7.514  -9.940   9.643  0.00  0.00    -0.013 C 
ATOM     15  C   UNL     1      -8.146 -11.281   9.286  0.00  0.00    +0.007 C 
ATOM     16  C   UNL     1      -8.187  -9.334  10.871  0.00  0.00    +0.007 C 
ENDBRANCH   6  10
BRANCH   7  13
ATOM     13  C   UNL     1      -5.191 -10.137   7.479  0.00  0.00    +0.089 C 
BRANCH  13   3
ATOM      3  N   UNL     1      -5.972  -9.418   6.487  0.00  0.00    -0.313 NA
ATOM     30  H   UNL     1      -6.725  -8.910   6.950  0.00  0.00    +0.122 HD
BRANCH   3  19
ATOM     19  C   UNL     1      -6.539 -10.332   5.502  0.00  0.00    +0.047 C 
ATOM     20  C   UNL     1      -8.037 -10.082   5.350  0.00  0.00    +0.023 C 
ATOM     21  C   UNL     1      -6.263 -11.770   5.927  0.00  0.00    +0.023 C 
ENDBRANCH   3  19
ENDBRANCH  13   3
ENDBRANCH   7  13
BRANCH   9  14
ATOM     14  C   UNL     1      -3.864 -11.243  11.993  0.00  0.00    +0.105 C 
BRANCH  14  18
ATOM      1  O   UNL     1      -4.543 -11.455  14.328  0.00  0.00    -0.420 OA
ATOM      4  N   UNL     1      -2.328 -11.416  14.018  0.00  0.00    -0.112 NA
ATOM      5  N   UNL     1      -2.568 -11.537  15.374  0.00  0.00    -0.107 NA
ATOM     18  C   UNL     1      -3.509 -11.371  13.448  0.00  0.00    +0.218 A 
ATOM     22  C   UNL     1      -3.873 -11.556  15.508  0.00  0.00    +0.248 A 
BRANCH  22  23
ATOM     23  C   UNL     1      -4.687 -11.665  16.684  0.00  0.00    +0.039 A 
ATOM     24  C   UNL     1      -5.453 -12.811  16.899  0.00  0.00    +0.017 A 
ATOM     25  C   UNL     1      -4.714 -10.625  17.613  0.00  0.00    +0.017 A 
ATOM     26  C   UNL     1      -6.244 -12.917  18.043  0.00  0.00    +0.046 A 
ATOM     27  C   UNL     1      -5.505 -10.731  18.757  0.00  0.00    +0.046 A 
ATOM     28  C   UNL     1      -6.270 -11.877  18.972  0.00  0.00    +0.120 A 
BRANCH  28   2
ATOM      2  O   UNL     1      -7.040 -11.982  20.088  0.00  0.00    -0.495 OA
ATOM     29  C   UNL     1      -8.162 -12.863  20.023  0.00  0.00    +0.277 C 
ENDBRANCH  28   2
ENDBRANCH  22  23
ENDBRANCH  14  18
ENDBRANCH   9  14
TORSDOF 8
ENDMDL
MODEL 8
REMARK VINA RESULT:      -5.8     11.811     15.304
REMARK  Name = 38030802
REMARK  14 active torsions:
REMARK  status: ('A' for Active; 'I' for Inactive)
REMARK    1  A    between atoms: O_2  and  C_28
REMARK    2  A    between atoms: O_2  and  C_29
REMARK    3  A    between atoms: N_3  and  C_13
REMARK    4  A    between atoms: N_3  and  C_19
REMARK    5  A    between atoms: C_6  and  C_10
REMARK    6  A    between atoms: C_7  and  C_13
REMARK    7  A    between atoms: C_9  and  C_14
REMARK    8  A    between atoms: C_10  and  C_15
REMARK    9  A    between atoms: C_10  and  C_16
REMARK   10  A    between atoms: C_11  and  C_17
REMARK   11  A    between atoms: C_14  and  C_18
REMARK   12  A    between atoms: C_19  and  C_20
REMARK   13  A    between atoms: C_19  and  C_21
REMARK   14  A    between atoms: C_22  and  C_23
REMARK                            x       y       z     vdW  Elec       q    Type
REMARK                         _______ _______ _______ _____ _____    ______ ____
ROOT
ATOM      6  C   UNL     1      17.659  -5.640  24.626  0.00  0.00    +0.000 C 
ATOM      7  C   UNL     1      17.411  -5.542  23.101  0.00  0.00    +0.029 C 
ATOM      8  C   UNL     1      16.955  -4.488  25.359  0.00  0.00    +0.012 C 
ATOM      9  C   UNL     1      17.435  -3.107  24.873  0.00  0.00    +0.024 C 
ATOM     11  C   UNL     1      17.473  -3.024  23.360  0.00  0.00    -0.073 C 
ATOM     12  C   UNL     1      17.449  -4.123  22.584  0.00  0.00    -0.023 C 
ATOM     17  C   UNL     1      17.494  -1.647  22.758  0.00  0.00    +0.039 C 
ENDROOT
BRANCH   6  10
ATOM     10  C   UNL     1      17.189  -6.982  25.195  0.00  0.00    -0.013 C 
ATOM     15  C   UNL     1      18.370  -7.768  25.751  0.00  0.00    +0.007 C 
ATOM     16  C   UNL     1      16.130  -6.761  26.271  0.00  0.00    +0.007 C 
ENDBRANCH   6  10
BRANCH   7  13
ATOM     13  C   UNL     1      18.418  -6.395  22.320  0.00  0.00    +0.089 C 
BRANCH  13   3
ATOM      3  N   UNL     1      19.552  -5.591  21.896  0.00  0.00    -0.313 NA
ATOM     30  H   UNL     1      19.641  -5.638  20.882  0.00  0.00    +0.122 HD
BRANCH   3  19
ATOM     19  C   UNL     1      20.787  -6.059  22.514  0.00  0.00    +0.047 C 
ATOM     20  C   UNL     1      20.691  -7.551  22.822  0.00  0.00    +0.023 C 
ATOM     21  C   UNL     1      21.059  -5.254  23.780  0.00  0.00    +0.023 C 
ENDBRANCH   3  19
ENDBRANCH  13   3
ENDBRANCH   7  13
BRANCH   9  14
ATOM     14  C   UNL     1      18.799  -2.754  25.476  0.00  0.00    +0.105 C 
BRANCH  14  18
ATOM      1  O   UNL     1      18.320  -2.110  27.781  0.00  0.00    -0.420 OA
ATOM      4  N   UNL     1      19.315  -4.104  27.574  0.00  0.00    -0.112 NA
ATOM      5  N   UNL     1      19.106  -3.869  28.920  0.00  0.00    -0.107 NA
ATOM     18  C   UNL     1      18.842  -3.051  26.948  0.00  0.00    +0.218 A 
ATOM     22  C   UNL     1      18.523  -2.695  28.993  0.00  0.00    +0.248 A 
BRANCH  22  23
ATOM     23  C   UNL     1      18.076  -1.947  30.133  0.00  0.00    +0.039 A 
ATOM     24  C   UNL     1      16.865  -2.267  30.746  0.00  0.00    +0.017 A 
ATOM     25  C   UNL     1      18.852  -0.899  30.628  0.00  0.00    +0.017 A 
ATOM     26  C   UNL     1      16.430  -1.539  31.853  0.00  0.00    +0.046 A 
ATOM     27  C   UNL     1      18.417  -0.172  31.736  0.00  0.00    +0.046 A 
ATOM     28  C   UNL     1      17.206  -0.492  32.349  0.00  0.00    +0.120 A 
BRANCH  28   2
ATOM      2  O   UNL     1      16.783   0.216  33.431  0.00  0.00    -0.495 OA
ATOM     29  C   UNL     1      16.607   1.622  33.259  0.00  0.00    +0.277 C 
ENDBRANCH  28   2
ENDBRANCH  22  23
ENDBRANCH  14  18
ENDBRANCH   9  14
TORSDOF 8
ENDMDL
MODEL 9
REMARK VINA RESULT:      -5.8     26.892     30.720
REMARK  Name = 38030802
REMARK  14 active torsions:
REMARK  status: ('A' for Active; 'I' for Inactive)
REMARK    1  A    between atoms: O_2  and  C_28
REMARK    2  A    between atoms: O_2  and  C_29
REMARK    3  A    between atoms: N_3  and  C_13
REMARK    4  A    between atoms: N_3  and  C_19
REMARK    5  A    between atoms: C_6  and  C_10
REMARK    6  A    between atoms: C_7  and  C_13
REMARK    7  A    between atoms: C_9  and  C_14
REMARK    8  A    between atoms: C_10  and  C_15
REMARK    9  A    between atoms: C_10  and  C_16
REMARK   10  A    between atoms: C_11  and  C_17
REMARK   11  A    between atoms: C_14  and  C_18
REMARK   12  A    between atoms: C_19  and  C_20
REMARK   13  A    between atoms: C_19  and  C_21
REMARK   14  A    between atoms: C_22  and  C_23
REMARK                            x       y       z     vdW  Elec       q    Type
REMARK                         _______ _______ _______ _____ _____    ______ ____
ROOT
ATOM      6  C   UNL     1      -4.148 -11.705  12.145  0.00  0.00    +0.000 C 
ATOM      7  C   UNL     1      -2.901 -11.663  13.062  0.00  0.00    +0.029 C 
ATOM      8  C   UNL     1      -3.740 -11.514  10.676  0.00  0.00    +0.012 C 
ATOM      9  C   UNL     1      -3.005 -10.180  10.443  0.00  0.00    +0.024 C 
ATOM     11  C   UNL     1      -1.928  -9.941  11.482  0.00  0.00    -0.073 C 
ATOM     12  C   UNL     1      -1.890 -10.622  12.641  0.00  0.00    -0.023 C 
ATOM     17  C   UNL     1      -0.868  -8.932  11.138  0.00  0.00    +0.039 C 
ENDROOT
BRANCH   6  10
ATOM     10  C   UNL     1      -4.926 -13.014  12.300  0.00  0.00    -0.013 C 
ATOM     15  C   UNL     1      -6.217 -12.966  11.490  0.00  0.00    +0.007 C 
ATOM     16  C   UNL     1      -4.064 -14.199  11.876  0.00  0.00    +0.007 C 
ENDBRANCH   6  10
BRANCH   7  13
ATOM     13  C   UNL     1      -3.297 -11.427  14.524  0.00  0.00    +0.089 C 
BRANCH  13   3
ATOM      3  N   UNL     1      -4.229 -10.317  14.629  0.00  0.00    -0.313 NA
ATOM     30  H   UNL     1      -3.712  -9.452  14.780  0.00  0.00    +0.122 HD
BRANCH   3  19
ATOM     19  C   UNL     1      -5.163 -10.520  15.731  0.00  0.00    +0.047 C 
ATOM     20  C   UNL     1      -4.444 -10.370  17.068  0.00  0.00    +0.023 C 
ATOM     21  C   UNL     1      -5.806 -11.897  15.605  0.00  0.00    +0.023 C 
ENDBRANCH   3  19
ENDBRANCH  13   3
ENDBRANCH   7  13
BRANCH   9  14
ATOM     14  C   UNL     1      -3.992  -9.008  10.397  0.00  0.00    +0.105 C 
BRANCH  14  18
ATOM      1  O   UNL     1      -4.635  -9.900   8.218  0.00  0.00    -0.420 OA
ATOM      4  N   UNL     1      -6.264  -8.783   9.267  0.00  0.00    -0.112 NA
ATOM      5  N   UNL     1      -6.762  -9.227   8.057  0.00  0.00    -0.107 NA
ATOM     18  C   UNL     1      -5.020  -9.198   9.318  0.00  0.00    +0.218 A 
ATOM     22  C   UNL     1      -5.777  -9.874   7.479  0.00  0.00    +0.248 A 
BRANCH  22  23
ATOM     23  C   UNL     1      -5.720 -10.546   6.213  0.00  0.00    +0.039 A 
ATOM     24  C   UNL     1      -6.705 -10.311   5.253  0.00  0.00    +0.017 A 
ATOM     25  C   UNL     1      -4.680 -11.434   5.941  0.00  0.00    +0.017 A 
ATOM     26  C   UNL     1      -6.649 -10.965   4.022  0.00  0.00    +0.046 A 
ATOM     27  C   UNL     1      -4.623 -12.086   4.709  0.00  0.00    +0.046 A 
ATOM     28  C   UNL     1      -5.608 -11.852   3.750  0.00  0.00    +0.120 A 
BRANCH  28   2
ATOM      2  O   UNL     1      -5.553 -12.487   2.548  0.00  0.00    -0.495 OA
ATOM     29  C   UNL     1      -4.283 -12.998   2.142  0.00  0.00    +0.277 C 
ENDBRANCH  28   2
ENDBRANCH  22  23
ENDBRANCH  14  18
ENDBRANCH   9  14
TORSDOF 8
ENDMDL
MODEL 10
REMARK VINA RESULT:      -5.7     29.206     31.729
REMARK  Name = 38030802
REMARK  14 active torsions:
REMARK  status: ('A' for Active; 'I' for Inactive)
REMARK    1  A    between atoms: O_2  and  C_28
REMARK    2  A    between atoms: O_2  and  C_29
REMARK    3  A    between atoms: N_3  and  C_13
REMARK    4  A    between atoms: N_3  and  C_19
REMARK    5  A    between atoms: C_6  and  C_10
REMARK    6  A    between atoms: C_7  and  C_13
REMARK    7  A    between atoms: C_9  and  C_14
REMARK    8  A    between atoms: C_10  and  C_15
REMARK    9  A    between atoms: C_10  and  C_16
REMARK   10  A    between atoms: C_11  and  C_17
REMARK   11  A    between atoms: C_14  and  C_18
REMARK   12  A    between atoms: C_19  and  C_20
REMARK   13  A    between atoms: C_19  and  C_21
REMARK   14  A    between atoms: C_22  and  C_23
REMARK                            x       y       z     vdW  Elec       q    Type
REMARK                         _______ _______ _______ _____ _____    ______ ____
ROOT
ATOM      6  C   UNL     1     -12.273   9.952  32.820  0.00  0.00    +0.000 C 
ATOM      7  C   UNL     1     -13.333  10.664  31.943  0.00  0.00    +0.029 C 
ATOM      8  C   UNL     1     -12.103   8.491  32.377  0.00  0.00    +0.012 C 
ATOM      9  C   UNL     1     -13.421   7.699  32.463  0.00  0.00    +0.024 C 
ATOM     11  C   UNL     1     -14.579   8.462  31.851  0.00  0.00    -0.073 C 
ATOM     12  C   UNL     1     -14.517   9.784  31.614  0.00  0.00    -0.023 C 
ATOM     17  C   UNL     1     -15.794   7.661  31.476  0.00  0.00    +0.039 C 
ENDROOT
BRANCH   6  10
ATOM     10  C   UNL     1     -10.921  10.669  32.772  0.00  0.00    -0.013 C 
ATOM     15  C   UNL     1      -9.827   9.782  33.356  0.00  0.00    +0.007 C 
ATOM     16  C   UNL     1     -10.583  11.074  31.341  0.00  0.00    +0.007 C 
ENDBRANCH   6  10
BRANCH   7  13
ATOM     13  C   UNL     1     -13.826  11.954  32.608  0.00  0.00    +0.089 C 
BRANCH  13   3
ATOM      3  N   UNL     1     -13.294  13.120  31.923  0.00  0.00    -0.313 NA
ATOM     30  H   UNL     1     -13.681  13.965  32.342  0.00  0.00    +0.122 HD
BRANCH   3  19
ATOM     19  C   UNL     1     -13.624  13.089  30.503  0.00  0.00    +0.047 C 
ATOM     20  C   UNL     1     -12.635  13.940  29.712  0.00  0.00    +0.023 C 
ATOM     21  C   UNL     1     -15.054  13.581  30.303  0.00  0.00    +0.023 C 
ENDBRANCH   3  19
ENDBRANCH  13   3
ENDBRANCH   7  13
BRANCH   9  14
ATOM     14  C   UNL     1     -13.731   7.300  33.910  0.00  0.00    +0.105 C 
BRANCH  14  18
ATOM      1  O   UNL     1     -13.989   5.104  32.875  0.00  0.00    -0.420 OA
ATOM      4  N   UNL     1     -14.220   5.101  35.101  0.00  0.00    -0.112 NA
ATOM      5  N   UNL     1     -14.390   3.805  34.652  0.00  0.00    -0.107 NA
ATOM     18  C   UNL     1     -13.989   5.825  34.030  0.00  0.00    +0.218 A 
ATOM     22  C   UNL     1     -14.247   3.855  33.348  0.00  0.00    +0.248 A 
BRANCH  22  23
ATOM     23  C   UNL     1     -14.318   2.814  32.363  0.00  0.00    +0.039 A 
ATOM     24  C   UNL     1     -13.952   3.076  31.043  0.00  0.00    +0.017 A 
ATOM     25  C   UNL     1     -14.755   1.540  32.726  0.00  0.00    +0.017 A 
ATOM     26  C   UNL     1     -14.022   2.064  30.086  0.00  0.00    +0.046 A 
ATOM     27  C   UNL     1     -14.824   0.528  31.768  0.00  0.00    +0.046 A 
ATOM     28  C   UNL     1     -14.457   0.790  30.448  0.00  0.00    +0.120 A 
BRANCH  28   2
ATOM      2  O   UNL     1     -14.523  -0.198  29.515  0.00  0.00    -0.495 OA
ATOM     29  C   UNL     1     -13.367  -1.021  29.359  0.00  0.00    +0.277 C 
ENDBRANCH  28   2
ENDBRANCH  22  23
ENDBRANCH  14  18
ENDBRANCH   9  14
TORSDOF 8
ENDMDL
