MODEL 1
REMARK VINA RESULT:      -6.6      0.000      0.000
REMARK  Name = 26763158
REMARK  6 active torsions:
REMARK  status: ('A' for Active; 'I' for Inactive)
REMARK    1  A    between atoms: O_5  and  C_25
REMARK    2  A    between atoms: O_5  and  C_29
REMARK    3  A    between atoms: N_9  and  C_15
REMARK    4  A    between atoms: N_10  and  C_28
REMARK    5  A    between atoms: C_21  and  C_22
REMARK    6  A    between atoms: C_23  and  C_25
REMARK                            x       y       z     vdW  Elec       q    Type
REMARK                         _______ _______ _______ _____ _____    ______ ____
ROOT
ATOM      1  O   UNL     1      -6.192  -9.684  15.590  0.00  0.00    -0.273 OA
ATOM      2  O   UNL     1      -3.257 -12.191  19.817  0.00  0.00    -0.274 OA
ATOM      3  O   UNL     1      -6.185 -11.979  13.617  0.00  0.00    -0.268 OA
ATOM      6  N   UNL     1      -5.742 -10.584  17.681  0.00  0.00    -0.287 N 
ATOM      7  N   UNL     1      -4.165 -11.100  14.359  0.00  0.00    -0.283 N 
ATOM      8  N   UNL     1      -2.835 -11.467  17.718  0.00  0.00    -0.309 N 
ATOM     11  C   UNL     1      -4.409 -11.299  15.786  0.00  0.00    +0.182 C 
ATOM     12  C   UNL     1      -3.136 -10.797  16.472  0.00  0.00    +0.104 C 
ATOM     13  C   UNL     1      -5.210 -11.668  18.514  0.00  0.00    +0.164 C 
ATOM     14  C   UNL     1      -5.958 -11.505  19.853  0.00  0.00    +0.055 C 
ATOM     15  C   UNL     1      -7.248 -10.781  19.480  0.00  0.00    +0.092 C 
ATOM     16  C   UNL     1      -2.065 -10.999  15.405  0.00  0.00    +0.043 C 
ATOM     17  C   UNL     1      -6.784  -9.839  18.378  0.00  0.00    +0.131 C 
ATOM     18  C   UNL     1      -5.548 -10.445  16.311  0.00  0.00    +0.239 C 
ATOM     19  C   UNL     1      -2.802 -10.625  14.127  0.00  0.00    +0.111 C 
ATOM     20  C   UNL     1      -3.697 -11.727  18.758  0.00  0.00    +0.234 C 
ATOM     21  C   UNL     1      -5.041 -11.585  13.394  0.00  0.00    +0.264 C 
ATOM     30  H   UNL     1      -1.848 -11.581  17.934  0.00  0.00    +0.149 HD
ENDROOT
BRANCH  21  22
ATOM     10  N   UNL     1      -4.672 -10.569  11.119  0.00  0.00    -0.346 N 
ATOM     22  C   UNL     1      -4.575 -11.618  11.996  0.00  0.00    +0.104 A 
ATOM     24  C   UNL     1      -3.976 -12.667  11.335  0.00  0.00    +0.032 A 
ATOM     26  C   UNL     1      -4.142 -10.933   9.908  0.00  0.00    +0.086 A 
ATOM     27  C   UNL     1      -3.701 -12.234  10.015  0.00  0.00    +0.020 A 
ATOM     28  C   UNL     1      -5.241  -9.272  11.409  0.00  0.00    +0.149 C 
ENDBRANCH  21  22
BRANCH  15   9
ATOM      4  O   UNL     1      -9.988 -11.001  20.383  0.00  0.00    -0.273 OA
ATOM      9  N   UNL     1      -8.253 -11.702  19.003  0.00  0.00    -0.309 N 
ATOM     23  C   UNL     1      -9.547 -11.732  19.500  0.00  0.00    +0.239 C 
ATOM     31  H   UNL     1      -7.978 -12.389  18.305  0.00  0.00    +0.149 HD
BRANCH  23  25
ATOM     25  C   UNL     1     -10.386 -12.792  18.818  0.00  0.00    +0.255 C 
BRANCH  25   5
ATOM      5  O   UNL     1     -10.495 -12.529  17.436  0.00  0.00    -0.374 OA
ATOM     29  C   UNL     1     -11.498 -11.556  17.158  0.00  0.00    +0.194 C 
ENDBRANCH  25   5
ENDBRANCH  23  25
ENDBRANCH  15   9
TORSDOF 4
ENDMDL
MODEL 2
REMARK VINA RESULT:      -6.6     27.642     30.430
REMARK  Name = 26763158
REMARK  6 active torsions:
REMARK  status: ('A' for Active; 'I' for Inactive)
REMARK    1  A    between atoms: O_5  and  C_25
REMARK    2  A    between atoms: O_5  and  C_29
REMARK    3  A    between atoms: N_9  and  C_15
REMARK    4  A    between atoms: N_10  and  C_28
REMARK    5  A    between atoms: C_21  and  C_22
REMARK    6  A    between atoms: C_23  and  C_25
REMARK                            x       y       z     vdW  Elec       q    Type
REMARK                         _______ _______ _______ _____ _____    ______ ____
ROOT
ATOM      1  O   UNL     1      14.247  11.190  20.705  0.00  0.00    -0.273 OA
ATOM      2  O   UNL     1      11.229   6.333  20.966  0.00  0.00    -0.274 OA
ATOM      3  O   UNL     1      15.110  11.338  23.602  0.00  0.00    -0.268 OA
ATOM      6  N   UNL     1      13.638   8.990  20.288  0.00  0.00    -0.287 N 
ATOM      7  N   UNL     1      12.845  11.305  23.082  0.00  0.00    -0.283 N 
ATOM      8  N   UNL     1      11.044   8.437  21.770  0.00  0.00    -0.309 N 
ATOM     11  C   UNL     1      12.864  10.055  22.325  0.00  0.00    +0.182 C 
ATOM     12  C   UNL     1      11.409   9.830  21.908  0.00  0.00    +0.104 C 
ATOM     13  C   UNL     1      13.220   7.670  20.773  0.00  0.00    +0.164 C 
ATOM     14  C   UNL     1      13.657   6.709  19.649  0.00  0.00    +0.055 C 
ATOM     15  C   UNL     1      14.799   7.440  18.949  0.00  0.00    +0.092 C 
ATOM     16  C   UNL     1      10.621  10.555  22.995  0.00  0.00    +0.043 C 
ATOM     17  C   UNL     1      14.344   8.891  19.016  0.00  0.00    +0.131 C 
ATOM     18  C   UNL     1      13.670  10.158  21.043  0.00  0.00    +0.239 C 
ATOM     19  C   UNL     1      11.475  11.788  23.250  0.00  0.00    +0.111 C 
ATOM     20  C   UNL     1      11.740   7.451  21.109  0.00  0.00    +0.234 C 
ATOM     21  C   UNL     1      13.967  11.763  23.763  0.00  0.00    +0.264 C 
ATOM     30  H   UNL     1      10.085   8.203  22.014  0.00  0.00    +0.149 HD
ENDROOT
BRANCH  21  22
ATOM     10  N   UNL     1      13.786  14.184  24.434  0.00  0.00    -0.346 N 
ATOM     22  C   UNL     1      13.782  12.849  24.742  0.00  0.00    +0.104 A 
ATOM     24  C   UNL     1      13.573  12.730  26.098  0.00  0.00    +0.032 A 
ATOM     26  C   UNL     1      13.583  14.920  25.572  0.00  0.00    +0.086 A 
ATOM     27  C   UNL     1      13.448  14.040  26.624  0.00  0.00    +0.020 A 
ATOM     28  C   UNL     1      13.974  14.749  23.115  0.00  0.00    +0.149 C 
ENDBRANCH  21  22
BRANCH  15   9
ATOM      4  O   UNL     1      16.812   5.441  18.382  0.00  0.00    -0.273 OA
ATOM      9  N   UNL     1      16.053   7.245  19.638  0.00  0.00    -0.309 N 
ATOM     23  C   UNL     1      16.959   6.254  19.291  0.00  0.00    +0.239 C 
ATOM     31  H   UNL     1      16.252   7.833  20.443  0.00  0.00    +0.149 HD
BRANCH  23  25
ATOM     25  C   UNL     1      18.186   6.279  20.177  0.00  0.00    +0.255 C 
BRANCH  25   5
ATOM      5  O   UNL     1      17.962   7.081  21.316  0.00  0.00    -0.374 OA
ATOM     29  C   UNL     1      19.179   7.418  21.977  0.00  0.00    +0.194 C 
ENDBRANCH  25   5
ENDBRANCH  23  25
ENDBRANCH  15   9
TORSDOF 4
ENDMDL
MODEL 3
REMARK VINA RESULT:      -6.4      3.131      7.902
REMARK  Name = 26763158
REMARK  6 active torsions:
REMARK  status: ('A' for Active; 'I' for Inactive)
REMARK    1  A    between atoms: O_5  and  C_25
REMARK    2  A    between atoms: O_5  and  C_29
REMARK    3  A    between atoms: N_9  and  C_15
REMARK    4  A    between atoms: N_10  and  C_28
REMARK    5  A    between atoms: C_21  and  C_22
REMARK    6  A    between atoms: C_23  and  C_25
REMARK                            x       y       z     vdW  Elec       q    Type
REMARK                         _______ _______ _______ _____ _____    ______ ____
ROOT
ATOM      1  O   UNL     1      -5.809 -12.000  12.651  0.00  0.00    -0.273 OA
ATOM      2  O   UNL     1      -1.294  -9.068  10.706  0.00  0.00    -0.274 OA
ATOM      3  O   UNL     1      -6.544 -10.206  14.974  0.00  0.00    -0.268 OA
ATOM      6  N   UNL     1      -4.499 -10.743  11.207  0.00  0.00    -0.287 N 
ATOM      7  N   UNL     1      -4.431 -11.171  14.896  0.00  0.00    -0.283 N 
ATOM      8  N   UNL     1      -1.811 -10.276  12.545  0.00  0.00    -0.309 N 
ATOM     11  C   UNL     1      -4.051 -10.640  13.589  0.00  0.00    +0.182 C 
ATOM     12  C   UNL     1      -2.627 -11.151  13.359  0.00  0.00    +0.104 C 
ATOM     13  C   UNL     1      -3.630  -9.588  10.954  0.00  0.00    +0.164 C 
ATOM     14  C   UNL     1      -3.758  -9.356   9.435  0.00  0.00    +0.055 C 
ATOM     15  C   UNL     1      -5.111  -9.961   9.072  0.00  0.00    +0.092 C 
ATOM     16  C   UNL     1      -2.091 -11.330  14.776  0.00  0.00    +0.043 C 
ATOM     17  C   UNL     1      -5.182 -11.172   9.992  0.00  0.00    +0.131 C 
ATOM     18  C   UNL     1      -4.898 -11.198  12.459  0.00  0.00    +0.239 C 
ATOM     19  C   UNL     1      -3.306 -11.866  15.520  0.00  0.00    +0.111 C 
ATOM     20  C   UNL     1      -2.152  -9.684  11.351  0.00  0.00    +0.234 C 
ATOM     21  C   UNL     1      -5.612 -10.790  15.524  0.00  0.00    +0.264 C 
ATOM     30  H   UNL     1      -0.821 -10.254  12.774  0.00  0.00    +0.149 HD
ENDROOT
BRANCH  21  22
ATOM     10  N   UNL     1      -6.333 -12.278  17.424  0.00  0.00    -0.346 N 
ATOM     22  C   UNL     1      -5.769 -11.121  16.951  0.00  0.00    +0.104 A 
ATOM     24  C   UNL     1      -5.391 -10.362  18.036  0.00  0.00    +0.032 A 
ATOM     26  C   UNL     1      -6.319 -12.268  18.794  0.00  0.00    +0.086 A 
ATOM     27  C   UNL     1      -5.739 -11.088  19.202  0.00  0.00    +0.020 A 
ATOM     28  C   UNL     1      -6.864 -13.353  16.616  0.00  0.00    +0.149 C 
ENDBRANCH  21  22
BRANCH  15   9
ATOM      4  O   UNL     1      -7.117  -9.052   7.197  0.00  0.00    -0.273 OA
ATOM      9  N   UNL     1      -6.190  -9.037   9.329  0.00  0.00    -0.309 N 
ATOM     23  C   UNL     1      -7.108  -8.659   8.361  0.00  0.00    +0.239 C 
ATOM     31  H   UNL     1      -6.244  -8.609  10.250  0.00  0.00    +0.149 HD
BRANCH  23  25
ATOM     25  C   UNL     1      -8.129  -7.682   8.904  0.00  0.00    +0.255 C 
BRANCH  25   5
ATOM      5  O   UNL     1      -8.183  -6.522   8.103  0.00  0.00    -0.374 OA
ATOM     29  C   UNL     1      -9.274  -5.679   8.464  0.00  0.00    +0.194 C 
ENDBRANCH  25   5
ENDBRANCH  23  25
ENDBRANCH  15   9
TORSDOF 4
ENDMDL
MODEL 4
REMARK VINA RESULT:      -6.3     25.018     27.844
REMARK  Name = 26763158
REMARK  6 active torsions:
REMARK  status: ('A' for Active; 'I' for Inactive)
REMARK    1  A    between atoms: O_5  and  C_25
REMARK    2  A    between atoms: O_5  and  C_29
REMARK    3  A    between atoms: N_9  and  C_15
REMARK    4  A    between atoms: N_10  and  C_28
REMARK    5  A    between atoms: C_21  and  C_22
REMARK    6  A    between atoms: C_23  and  C_25
REMARK                            x       y       z     vdW  Elec       q    Type
REMARK                         _______ _______ _______ _____ _____    ______ ____
ROOT
ATOM      1  O   UNL     1      10.839   6.844   2.893  0.00  0.00    -0.273 OA
ATOM      2  O   UNL     1      15.823   7.824   5.533  0.00  0.00    -0.274 OA
ATOM      3  O   UNL     1      11.368   4.009   1.973  0.00  0.00    -0.268 OA
ATOM      6  N   UNL     1      12.331   7.290   4.613  0.00  0.00    -0.287 N 
ATOM      7  N   UNL     1      12.777   5.722   1.276  0.00  0.00    -0.283 N 
ATOM      8  N   UNL     1      15.113   7.504   3.411  0.00  0.00    -0.309 N 
ATOM     11  C   UNL     1      13.145   6.191   2.610  0.00  0.00    +0.182 C 
ATOM     12  C   UNL     1      14.130   7.336   2.363  0.00  0.00    +0.104 C 
ATOM     13  C   UNL     1      13.575   6.990   5.331  0.00  0.00    +0.164 C 
ATOM     14  C   UNL     1      13.328   7.550   6.746  0.00  0.00    +0.055 C 
ATOM     15  C   UNL     1      11.809   7.549   6.894  0.00  0.00    +0.092 C 
ATOM     16  C   UNL     1      14.743   6.980   1.012  0.00  0.00    +0.043 C 
ATOM     17  C   UNL     1      11.346   7.912   5.491  0.00  0.00    +0.131 C 
ATOM     18  C   UNL     1      11.972   6.786   3.368  0.00  0.00    +0.239 C 
ATOM     19  C   UNL     1      13.551   6.420   0.250  0.00  0.00    +0.111 C 
ATOM     20  C   UNL     1      14.893   7.537   4.769  0.00  0.00    +0.234 C 
ATOM     21  C   UNL     1      12.010   4.577   1.090  0.00  0.00    +0.264 C 
ATOM     30  H   UNL     1      16.029   7.828   3.112  0.00  0.00    +0.149 HD
ENDROOT
BRANCH  21  22
ATOM     10  N   UNL     1      11.005   4.333  -1.206  0.00  0.00    -0.346 N 
ATOM     22  C   UNL     1      11.947   4.004  -0.266  0.00  0.00    +0.104 A 
ATOM     24  C   UNL     1      12.792   3.071  -0.824  0.00  0.00    +0.032 A 
ATOM     26  C   UNL     1      11.236   3.623  -2.356  0.00  0.00    +0.086 A 
ATOM     27  C   UNL     1      12.343   2.830  -2.146  0.00  0.00    +0.020 A 
ATOM     28  C   UNL     1       9.926   5.280  -1.030  0.00  0.00    +0.149 C 
ENDBRANCH  21  22
BRANCH  15   9
ATOM      4  O   UNL     1       9.192   6.921   7.955  0.00  0.00    -0.273 OA
ATOM      9  N   UNL     1      11.319   6.251   7.295  0.00  0.00    -0.309 N 
ATOM     23  C   UNL     1      10.041   6.048   7.795  0.00  0.00    +0.239 C 
ATOM     31  H   UNL     1      11.961   5.464   7.253  0.00  0.00    +0.149 HD
BRANCH  23  25
ATOM     25  C   UNL     1       9.794   4.593   8.132  0.00  0.00    +0.255 C 
BRANCH  25   5
ATOM      5  O   UNL     1      10.155   4.324   9.470  0.00  0.00    -0.374 OA
ATOM     29  C   UNL     1       9.027   4.351  10.340  0.00  0.00    +0.194 C 
ENDBRANCH  25   5
ENDBRANCH  23  25
ENDBRANCH  15   9
TORSDOF 4
ENDMDL
MODEL 5
REMARK VINA RESULT:      -6.3      2.262      7.224
REMARK  Name = 26763158
REMARK  6 active torsions:
REMARK  status: ('A' for Active; 'I' for Inactive)
REMARK    1  A    between atoms: O_5  and  C_25
REMARK    2  A    between atoms: O_5  and  C_29
REMARK    3  A    between atoms: N_9  and  C_15
REMARK    4  A    between atoms: N_10  and  C_28
REMARK    5  A    between atoms: C_21  and  C_22
REMARK    6  A    between atoms: C_23  and  C_25
REMARK                            x       y       z     vdW  Elec       q    Type
REMARK                         _______ _______ _______ _____ _____    ______ ____
ROOT
ATOM      1  O   UNL     1      -6.014 -12.055  13.903  0.00  0.00    -0.273 OA
ATOM      2  O   UNL     1      -0.861 -10.419  15.785  0.00  0.00    -0.274 OA
ATOM      3  O   UNL     1      -7.607  -9.644  14.804  0.00  0.00    -0.268 OA
ATOM      6  N   UNL     1      -3.785 -11.412  13.839  0.00  0.00    -0.287 N 
ATOM      7  N   UNL     1      -6.449 -10.905  16.377  0.00  0.00    -0.283 N 
ATOM      8  N   UNL     1      -2.834 -11.035  16.700  0.00  0.00    -0.309 N 
ATOM     11  C   UNL     1      -5.132 -10.783  15.755  0.00  0.00    +0.182 C 
ATOM     12  C   UNL     1      -4.188 -11.544  16.688  0.00  0.00    +0.104 C 
ATOM     13  C   UNL     1      -2.709 -10.502  14.247  0.00  0.00    +0.164 C 
ATOM     14  C   UNL     1      -1.662 -10.643  13.125  0.00  0.00    +0.055 C 
ATOM     15  C   UNL     1      -2.465 -11.109  11.913  0.00  0.00    +0.092 C 
ATOM     16  C   UNL     1      -4.883 -11.440  18.043  0.00  0.00    +0.043 C 
ATOM     17  C   UNL     1      -3.503 -12.025  12.546  0.00  0.00    +0.131 C 
ATOM     18  C   UNL     1      -5.054 -11.472  14.405  0.00  0.00    +0.239 C 
ATOM     19  C   UNL     1      -6.351 -11.582  17.669  0.00  0.00    +0.111 C 
ATOM     20  C   UNL     1      -2.050 -10.717  15.615  0.00  0.00    +0.234 C 
ATOM     21  C   UNL     1      -7.551 -10.205  15.898  0.00  0.00    +0.264 C 
ATOM     30  H   UNL     1      -2.341 -11.105  17.586  0.00  0.00    +0.149 HD
ENDROOT
BRANCH  21  22
ATOM     10  N   UNL     1      -9.708 -11.116  16.825  0.00  0.00    -0.346 N 
ATOM     22  C   UNL     1      -8.749 -10.140  16.753  0.00  0.00    +0.104 A 
ATOM     24  C   UNL     1      -9.115  -9.126  17.610  0.00  0.00    +0.032 A 
ATOM     26  C   UNL     1     -10.680 -10.741  17.716  0.00  0.00    +0.086 A 
ATOM     27  C   UNL     1     -10.336  -9.506  18.219  0.00  0.00    +0.020 A 
ATOM     28  C   UNL     1      -9.710 -12.358  16.084  0.00  0.00    +0.149 C 
ENDBRANCH  21  22
BRANCH  15   9
ATOM      4  O   UNL     1      -3.809 -11.162   9.352  0.00  0.00    -0.273 OA
ATOM      9  N   UNL     1      -3.084  -9.998  11.230  0.00  0.00    -0.309 N 
ATOM     23  C   UNL     1      -3.708 -10.122   9.998  0.00  0.00    +0.239 C 
ATOM     31  H   UNL     1      -3.012  -9.076  11.654  0.00  0.00    +0.149 HD
BRANCH  23  25
ATOM     25  C   UNL     1      -4.270  -8.801   9.517  0.00  0.00    +0.255 C 
BRANCH  25   5
ATOM      5  O   UNL     1      -5.168  -8.266  10.466  0.00  0.00    -0.374 OA
ATOM     29  C   UNL     1      -6.481  -8.797  10.312  0.00  0.00    +0.194 C 
ENDBRANCH  25   5
ENDBRANCH  23  25
ENDBRANCH  15   9
TORSDOF 4
ENDMDL
MODEL 6
REMARK VINA RESULT:      -6.1      3.301      6.981
REMARK  Name = 26763158
REMARK  6 active torsions:
REMARK  status: ('A' for Active; 'I' for Inactive)
REMARK    1  A    between atoms: O_5  and  C_25
REMARK    2  A    between atoms: O_5  and  C_29
REMARK    3  A    between atoms: N_9  and  C_15
REMARK    4  A    between atoms: N_10  and  C_28
REMARK    5  A    between atoms: C_21  and  C_22
REMARK    6  A    between atoms: C_23  and  C_25
REMARK                            x       y       z     vdW  Elec       q    Type
REMARK                         _______ _______ _______ _____ _____    ______ ____
ROOT
ATOM      1  O   UNL     1      -8.412 -11.680  15.244  0.00  0.00    -0.273 OA
ATOM      2  O   UNL     1      -6.280 -10.587  20.442  0.00  0.00    -0.274 OA
ATOM      3  O   UNL     1      -8.943  -8.832  14.368  0.00  0.00    -0.268 OA
ATOM      6  N   UNL     1      -6.878 -11.583  16.982  0.00  0.00    -0.287 N 
ATOM      7  N   UNL     1      -9.973  -9.653  16.283  0.00  0.00    -0.283 N 
ATOM      8  N   UNL     1      -8.281 -10.406  19.407  0.00  0.00    -0.309 N 
ATOM     11  C   UNL     1      -8.749 -10.040  16.981  0.00  0.00    +0.182 C 
ATOM     12  C   UNL     1      -9.225 -10.592  18.327  0.00  0.00    +0.104 C 
ATOM     13  C   UNL     1      -6.209 -10.832  18.050  0.00  0.00    +0.164 C 
ATOM     14  C   UNL     1      -4.877 -11.583  18.250  0.00  0.00    +0.055 C 
ATOM     15  C   UNL     1      -4.629 -12.276  16.913  0.00  0.00    +0.092 C 
ATOM     16  C   UNL     1     -10.548  -9.865  18.551  0.00  0.00    +0.043 C 
ATOM     17  C   UNL     1      -6.037 -12.664  16.484  0.00  0.00    +0.131 C 
ATOM     18  C   UNL     1      -8.010 -11.170  16.287  0.00  0.00    +0.239 C 
ATOM     19  C   UNL     1     -11.139  -9.823  17.149  0.00  0.00    +0.111 C 
ATOM     20  C   UNL     1      -6.931 -10.672  19.393  0.00  0.00    +0.234 C 
ATOM     21  C   UNL     1      -9.940  -8.960  15.078  0.00  0.00    +0.264 C 
ATOM     30  H   UNL     1      -8.685 -10.254  20.327  0.00  0.00    +0.149 HD
ENDROOT
BRANCH  21  22
ATOM     10  N   UNL     1     -11.621  -7.089  14.954  0.00  0.00    -0.346 N 
ATOM     22  C   UNL     1     -11.191  -8.343  14.604  0.00  0.00    +0.104 A 
ATOM     24  C   UNL     1     -12.125  -8.886  13.751  0.00  0.00    +0.032 A 
ATOM     26  C   UNL     1     -12.816  -6.825  14.336  0.00  0.00    +0.086 A 
ATOM     27  C   UNL     1     -13.153  -7.926  13.581  0.00  0.00    +0.020 A 
ATOM     28  C   UNL     1     -10.933  -6.173  15.837  0.00  0.00    +0.149 C 
ENDBRANCH  21  22
BRANCH  15   9
ATOM      4  O   UNL     1      -2.738 -12.971  14.837  0.00  0.00    -0.273 OA
ATOM      9  N   UNL     1      -4.012 -11.383  15.961  0.00  0.00    -0.309 N 
ATOM     23  C   UNL     1      -3.112 -11.812  14.997  0.00  0.00    +0.239 C 
ATOM     31  H   UNL     1      -4.213 -10.389  16.038  0.00  0.00    +0.149 HD
BRANCH  23  25
ATOM     25  C   UNL     1      -2.624 -10.667  14.134  0.00  0.00    +0.255 C 
BRANCH  25   5
ATOM      5  O   UNL     1      -1.878 -11.152  13.039  0.00  0.00    -0.374 OA
ATOM     29  C   UNL     1      -2.411 -10.708  11.795  0.00  0.00    +0.194 C 
ENDBRANCH  25   5
ENDBRANCH  23  25
ENDBRANCH  15   9
TORSDOF 4
ENDMDL
MODEL 7
REMARK VINA RESULT:      -5.9      2.049      2.825
REMARK  Name = 26763158
REMARK  6 active torsions:
REMARK  status: ('A' for Active; 'I' for Inactive)
REMARK    1  A    between atoms: O_5  and  C_25
REMARK    2  A    between atoms: O_5  and  C_29
REMARK    3  A    between atoms: N_9  and  C_15
REMARK    4  A    between atoms: N_10  and  C_28
REMARK    5  A    between atoms: C_21  and  C_22
REMARK    6  A    between atoms: C_23  and  C_25
REMARK                            x       y       z     vdW  Elec       q    Type
REMARK                         _______ _______ _______ _____ _____    ______ ____
ROOT
ATOM      1  O   UNL     1      -5.996  -9.970  13.345  0.00  0.00    -0.273 OA
ATOM      2  O   UNL     1      -1.604 -10.968  16.878  0.00  0.00    -0.274 OA
ATOM      3  O   UNL     1      -5.973 -12.599  11.846  0.00  0.00    -0.268 OA
ATOM      6  N   UNL     1      -4.844 -10.309  15.330  0.00  0.00    -0.287 N 
ATOM      7  N   UNL     1      -4.082 -11.247  11.819  0.00  0.00    -0.283 N 
ATOM      8  N   UNL     1      -1.899 -10.650  14.659  0.00  0.00    -0.309 N 
ATOM     11  C   UNL     1      -3.906 -11.174  13.267  0.00  0.00    +0.182 C 
ATOM     12  C   UNL     1      -2.648 -10.325  13.465  0.00  0.00    +0.104 C 
ATOM     13  C   UNL     1      -3.889 -11.081  16.133  0.00  0.00    +0.164 C 
ATOM     14  C   UNL     1      -4.291 -10.765  17.588  0.00  0.00    +0.055 C 
ATOM     15  C   UNL     1      -5.763 -10.371  17.497  0.00  0.00    +0.092 C 
ATOM     16  C   UNL     1      -1.864 -10.564  12.178  0.00  0.00    +0.043 C 
ATOM     17  C   UNL     1      -5.816  -9.622  16.173  0.00  0.00    +0.131 C 
ATOM     18  C   UNL     1      -5.038 -10.436  13.959  0.00  0.00    +0.239 C 
ATOM     19  C   UNL     1      -2.964 -10.606  11.128  0.00  0.00    +0.111 C 
ATOM     20  C   UNL     1      -2.390 -10.825  15.933  0.00  0.00    +0.234 C 
ATOM     21  C   UNL     1      -5.041 -12.071  11.240  0.00  0.00    +0.264 C 
ATOM     30  H   UNL     1      -0.891 -10.543  14.594  0.00  0.00    +0.149 HD
ENDROOT
BRANCH  21  22
ATOM     10  N   UNL     1      -5.513 -11.531   8.826  0.00  0.00    -0.346 N 
ATOM     22  C   UNL     1      -4.948 -12.324   9.791  0.00  0.00    +0.104 A 
ATOM     24  C   UNL     1      -4.297 -13.360   9.159  0.00  0.00    +0.032 A 
ATOM     26  C   UNL     1      -5.232 -12.046   7.587  0.00  0.00    +0.086 A 
ATOM     27  C   UNL     1      -4.477 -13.185   7.765  0.00  0.00    +0.020 A 
ATOM     28  C   UNL     1      -6.288 -10.333   9.060  0.00  0.00    +0.149 C 
ENDBRANCH  21  22
BRANCH  15   9
ATOM      4  O   UNL     1      -7.127 -11.559  19.754  0.00  0.00    -0.273 OA
ATOM      9  N   UNL     1      -6.622 -11.532  17.485  0.00  0.00    -0.309 N 
ATOM     23  C   UNL     1      -7.235 -12.029  18.624  0.00  0.00    +0.239 C 
ATOM     31  H   UNL     1      -6.738 -12.031  16.606  0.00  0.00    +0.149 HD
BRANCH  23  25
ATOM     25  C   UNL     1      -8.078 -13.250  18.322  0.00  0.00    +0.255 C 
BRANCH  25   5
ATOM      5  O   UNL     1      -7.482 -14.028  17.307  0.00  0.00    -0.374 OA
ATOM     29  C   UNL     1      -8.255 -15.186  17.002  0.00  0.00    +0.194 C 
ENDBRANCH  25   5
ENDBRANCH  23  25
ENDBRANCH  15   9
TORSDOF 4
ENDMDL
MODEL 8
REMARK VINA RESULT:      -5.7      3.325      7.027
REMARK  Name = 26763158
REMARK  6 active torsions:
REMARK  status: ('A' for Active; 'I' for Inactive)
REMARK    1  A    between atoms: O_5  and  C_25
REMARK    2  A    between atoms: O_5  and  C_29
REMARK    3  A    between atoms: N_9  and  C_15
REMARK    4  A    between atoms: N_10  and  C_28
REMARK    5  A    between atoms: C_21  and  C_22
REMARK    6  A    between atoms: C_23  and  C_25
REMARK                            x       y       z     vdW  Elec       q    Type
REMARK                         _______ _______ _______ _____ _____    ______ ____
ROOT
ATOM      1  O   UNL     1      -4.134  -8.714  10.725  0.00  0.00    -0.273 OA
ATOM      2  O   UNL     1      -3.443 -14.395  10.640  0.00  0.00    -0.274 OA
ATOM      3  O   UNL     1      -7.159  -8.629  10.738  0.00  0.00    -0.268 OA
ATOM      6  N   UNL     1      -3.510 -10.833  11.434  0.00  0.00    -0.287 N 
ATOM      7  N   UNL     1      -6.050  -9.676   8.984  0.00  0.00    -0.283 N 
ATOM      8  N   UNL     1      -4.225 -12.806   9.236  0.00  0.00    -0.309 N 
ATOM     11  C   UNL     1      -5.292 -10.619   9.803  0.00  0.00    +0.182 C 
ATOM     12  C   UNL     1      -4.494 -11.453   8.798  0.00  0.00    +0.104 C 
ATOM     13  C   UNL     1      -3.828 -12.248  11.654  0.00  0.00    +0.164 C 
ATOM     14  C   UNL     1      -2.837 -12.682  12.753  0.00  0.00    +0.055 C 
ATOM     15  C   UNL     1      -2.489 -11.387  13.482  0.00  0.00    +0.092 C 
ATOM     16  C   UNL     1      -5.349 -11.387   7.536  0.00  0.00    +0.043 C 
ATOM     17  C   UNL     1      -2.471 -10.372  12.347  0.00  0.00    +0.131 C 
ATOM     18  C   UNL     1      -4.276  -9.935  10.699  0.00  0.00    +0.239 C 
ATOM     19  C   UNL     1      -5.857  -9.953   7.561  0.00  0.00    +0.111 C 
ATOM     20  C   UNL     1      -3.749 -13.209  10.462  0.00  0.00    +0.234 C 
ATOM     21  C   UNL     1      -7.020  -8.845   9.535  0.00  0.00    +0.264 C 
ATOM     30  H   UNL     1      -4.196 -13.512   8.505  0.00  0.00    +0.149 HD
ENDROOT
BRANCH  21  22
ATOM     10  N   UNL     1      -9.096  -8.708   8.116  0.00  0.00    -0.346 N 
ATOM     22  C   UNL     1      -7.942  -8.159   8.613  0.00  0.00    +0.104 A 
ATOM     24  C   UNL     1      -7.826  -6.886   8.101  0.00  0.00    +0.032 A 
ATOM     26  C   UNL     1      -9.717  -7.804   7.295  0.00  0.00    +0.086 A 
ATOM     27  C   UNL     1      -8.949  -6.661   7.267  0.00  0.00    +0.020 A 
ATOM     28  C   UNL     1      -9.596 -10.034   8.403  0.00  0.00    +0.149 C 
ENDBRANCH  21  22
BRANCH  15   9
ATOM      4  O   UNL     1      -2.030 -10.705  16.255  0.00  0.00    -0.273 OA
ATOM      9  N   UNL     1      -3.484 -11.055  14.474  0.00  0.00    -0.309 N 
ATOM     23  C   UNL     1      -3.165 -10.740  15.787  0.00  0.00    +0.239 C 
ATOM     31  H   UNL     1      -4.463 -11.105  14.205  0.00  0.00    +0.149 HD
BRANCH  23  25
ATOM     25  C   UNL     1      -4.399 -10.433  16.607  0.00  0.00    +0.255 C 
BRANCH  25   5
ATOM      5  O   UNL     1      -5.317  -9.666  15.858  0.00  0.00    -0.374 OA
ATOM     29  C   UNL     1      -6.597  -9.610  16.482  0.00  0.00    +0.194 C 
ENDBRANCH  25   5
ENDBRANCH  23  25
ENDBRANCH  15   9
TORSDOF 4
ENDMDL
MODEL 9
REMARK VINA RESULT:      -5.6      2.788      4.363
REMARK  Name = 26763158
REMARK  6 active torsions:
REMARK  status: ('A' for Active; 'I' for Inactive)
REMARK    1  A    between atoms: O_5  and  C_25
REMARK    2  A    between atoms: O_5  and  C_29
REMARK    3  A    between atoms: N_9  and  C_15
REMARK    4  A    between atoms: N_10  and  C_28
REMARK    5  A    between atoms: C_21  and  C_22
REMARK    6  A    between atoms: C_23  and  C_25
REMARK                            x       y       z     vdW  Elec       q    Type
REMARK                         _______ _______ _______ _____ _____    ______ ____
ROOT
ATOM      1  O   UNL     1      -6.478  -9.321  15.932  0.00  0.00    -0.273 OA
ATOM      2  O   UNL     1      -9.542 -11.335  20.328  0.00  0.00    -0.274 OA
ATOM      3  O   UNL     1      -6.115 -11.913  14.413  0.00  0.00    -0.268 OA
ATOM      6  N   UNL     1      -8.279  -9.619  17.364  0.00  0.00    -0.287 N 
ATOM      7  N   UNL     1      -5.333 -11.745  16.595  0.00  0.00    -0.283 N 
ATOM      8  N   UNL     1      -7.428 -11.544  19.556  0.00  0.00    -0.309 N 
ATOM     11  C   UNL     1      -6.608 -11.368  17.202  0.00  0.00    +0.182 C 
ATOM     12  C   UNL     1      -6.304 -11.238  18.697  0.00  0.00    +0.104 C 
ATOM     13  C   UNL     1      -9.191 -10.503  18.098  0.00  0.00    +0.164 C 
ATOM     14  C   UNL     1     -10.450  -9.639  18.311  0.00  0.00    +0.055 C 
ATOM     15  C   UNL     1     -10.399  -8.611  17.185  0.00  0.00    +0.092 C 
ATOM     16  C   UNL     1      -5.121 -12.182  18.893  0.00  0.00    +0.043 C 
ATOM     17  C   UNL     1      -8.907  -8.337  17.063  0.00  0.00    +0.131 C 
ATOM     18  C   UNL     1      -7.098 -10.008  16.741  0.00  0.00    +0.239 C 
ATOM     19  C   UNL     1      -4.315 -11.964  17.622  0.00  0.00    +0.111 C 
ATOM     20  C   UNL     1      -8.721 -11.091  19.434  0.00  0.00    +0.234 C 
ATOM     21  C   UNL     1      -5.241 -12.109  15.256  0.00  0.00    +0.264 C 
ATOM     30  H   UNL     1      -7.200 -11.975  20.447  0.00  0.00    +0.149 HD
ENDROOT
BRANCH  21  22
ATOM     10  N   UNL     1      -2.873 -12.102  14.399  0.00  0.00    -0.346 N 
ATOM     22  C   UNL     1      -4.001 -12.766  14.805  0.00  0.00    +0.104 A 
ATOM     24  C   UNL     1      -3.752 -14.117  14.714  0.00  0.00    +0.032 A 
ATOM     26  C   UNL     1      -1.907 -13.010  14.051  0.00  0.00    +0.086 A 
ATOM     27  C   UNL     1      -2.427 -14.272  14.237  0.00  0.00    +0.020 A 
ATOM     28  C   UNL     1      -2.709 -10.666  14.342  0.00  0.00    +0.149 C 
ENDBRANCH  21  22
BRANCH  15   9
ATOM      4  O   UNL     1     -11.456  -7.114  14.946  0.00  0.00    -0.273 OA
ATOM      9  N   UNL     1     -10.942  -9.144  15.957  0.00  0.00    -0.309 N 
ATOM     23  C   UNL     1     -11.428  -8.342  14.936  0.00  0.00    +0.239 C 
ATOM     31  H   UNL     1     -11.014 -10.154  15.866  0.00  0.00    +0.149 HD
BRANCH  23  25
ATOM     25  C   UNL     1     -11.934  -9.163  13.768  0.00  0.00    +0.255 C 
BRANCH  25   5
ATOM      5  O   UNL     1     -10.955 -10.090  13.350  0.00  0.00    -0.374 OA
ATOM     29  C   UNL     1     -10.319  -9.681  12.142  0.00  0.00    +0.194 C 
ENDBRANCH  25   5
ENDBRANCH  23  25
ENDBRANCH  15   9
TORSDOF 4
ENDMDL
MODEL 10
REMARK VINA RESULT:      -5.5     26.531     30.088
REMARK  Name = 26763158
REMARK  6 active torsions:
REMARK  status: ('A' for Active; 'I' for Inactive)
REMARK    1  A    between atoms: O_5  and  C_25
REMARK    2  A    between atoms: O_5  and  C_29
REMARK    3  A    between atoms: N_9  and  C_15
REMARK    4  A    between atoms: N_10  and  C_28
REMARK    5  A    between atoms: C_21  and  C_22
REMARK    6  A    between atoms: C_23  and  C_25
REMARK                            x       y       z     vdW  Elec       q    Type
REMARK                         _______ _______ _______ _____ _____    ______ ____
ROOT
ATOM      1  O   UNL     1      12.642   8.297   3.183  0.00  0.00    -0.273 OA
ATOM      2  O   UNL     1      14.301   3.602   0.359  0.00  0.00    -0.274 OA
ATOM      3  O   UNL     1      12.793   7.203   6.001  0.00  0.00    -0.268 OA
ATOM      6  N   UNL     1      13.943   6.916   1.846  0.00  0.00    -0.287 N 
ATOM      7  N   UNL     1      11.397   6.182   4.448  0.00  0.00    -0.283 N 
ATOM      8  N   UNL     1      12.515   4.246   1.586  0.00  0.00    -0.309 N 
ATOM     11  C   UNL     1      12.427   5.908   3.449  0.00  0.00    +0.182 C 
ATOM     12  C   UNL     1      11.692   5.182   2.320  0.00  0.00    +0.104 C 
ATOM     13  C   UNL     1      14.612   5.632   1.613  0.00  0.00    +0.164 C 
ATOM     14  C   UNL     1      15.736   5.978   0.615  0.00  0.00    +0.055 C 
ATOM     15  C   UNL     1      16.002   7.463   0.845  0.00  0.00    +0.092 C 
ATOM     16  C   UNL     1      10.521   4.519   3.039  0.00  0.00    +0.043 C 
ATOM     17  C   UNL     1      14.608   8.001   1.135  0.00  0.00    +0.131 C 
ATOM     18  C   UNL     1      13.007   7.173   2.843  0.00  0.00    +0.239 C 
ATOM     19  C   UNL     1      10.124   5.576   4.060  0.00  0.00    +0.111 C 
ATOM     20  C   UNL     1      13.778   4.459   1.082  0.00  0.00    +0.234 C 
ATOM     21  C   UNL     1      11.712   6.698   5.700  0.00  0.00    +0.264 C 
ATOM     30  H   UNL     1      12.041   3.419   1.234  0.00  0.00    +0.149 HD
ENDROOT
BRANCH  21  22
ATOM     10  N   UNL     1       9.742   7.634   6.960  0.00  0.00    -0.346 N 
ATOM     22  C   UNL     1      10.674   6.652   6.745  0.00  0.00    +0.104 A 
ATOM     24  C   UNL     1      10.451   5.651   7.664  0.00  0.00    +0.032 A 
ATOM     26  C   UNL     1       8.928   7.274   8.001  0.00  0.00    +0.086 A 
ATOM     27  C   UNL     1       9.347   6.044   8.459  0.00  0.00    +0.020 A 
ATOM     28  C   UNL     1       9.622   8.866   6.211  0.00  0.00    +0.149 C 
ENDBRANCH  21  22
BRANCH  15   9
ATOM      4  O   UNL     1      18.743   8.384   0.743  0.00  0.00    -0.273 OA
ATOM      9  N   UNL     1      16.894   7.673   1.961  0.00  0.00    -0.309 N 
ATOM     23  C   UNL     1      18.199   8.119   1.812  0.00  0.00    +0.239 C 
ATOM     31  H   UNL     1      16.560   7.434   2.891  0.00  0.00    +0.149 HD
BRANCH  23  25
ATOM     25  C   UNL     1      18.904   8.252   3.145  0.00  0.00    +0.255 C 
BRANCH  25   5
ATOM      5  O   UNL     1      17.969   8.281   4.202  0.00  0.00    -0.374 OA
ATOM     29  C   UNL     1      18.578   8.641   5.439  0.00  0.00    +0.194 C 
ENDBRANCH  25   5
ENDBRANCH  23  25
ENDBRANCH  15   9
TORSDOF 4
ENDMDL
