MODEL 1
REMARK VINA RESULT:      -7.8      0.000      0.000
REMARK  Name = 7144209
REMARK  5 active torsions:
REMARK  status: ('A' for Active; 'I' for Inactive)
REMARK    1  A    between atoms: S_1  and  N_10
REMARK    2  A    between atoms: S_1  and  C_23
REMARK    3  A    between atoms: O_9  and  C_33
REMARK    4  A    between atoms: O_9  and  C_35
REMARK    5  A    between atoms: C_19  and  C_24
REMARK                            x       y       z     vdW  Elec       q    Type
REMARK                         _______ _______ _______ _____ _____    ______ ____
ROOT
ATOM      8  O   UNL     1      11.224   8.199  17.119  0.00  0.00    -0.268 OA
ATOM     10  N   UNL     1      12.166  10.374  21.467  0.00  0.00    -0.176 NA
ATOM     11  N   UNL     1      12.213   8.147  19.241  0.00  0.00    -0.311 N 
ATOM     12  C   UNL     1      10.808   8.288  21.381  0.00  0.00    +0.025 C 
ATOM     13  C   UNL     1      13.254   8.136  21.529  0.00  0.00    +0.053 C 
ATOM     14  C   UNL     1      11.950   7.504  22.007  0.00  0.00    +0.017 C 
ATOM     15  C   UNL     1      10.854   9.761  21.815  0.00  0.00    +0.114 C 
ATOM     16  C   UNL     1      13.320   9.599  22.010  0.00  0.00    +0.119 C 
ATOM     17  C   UNL     1      10.881   8.128  19.862  0.00  0.00    +0.130 C 
ATOM     18  C   UNL     1      13.393   8.059  20.006  0.00  0.00    +0.034 A 
ATOM     19  C   UNL     1      14.594   7.932  19.385  0.00  0.00    +0.002 A 
ATOM     20  C   UNL     1      12.224   8.140  17.834  0.00  0.00    +0.252 A 
ATOM     21  C   UNL     1      14.645   7.926  17.935  0.00  0.00    +0.015 A 
ATOM     22  C   UNL     1      13.550   8.036  17.184  0.00  0.00    +0.071 A 
ENDROOT
BRANCH  19  24
ATOM     24  C   UNL     1      15.858   7.816  20.145  0.00  0.00    -0.016 A 
ATOM     27  C   UNL     1      16.543   8.965  20.526  0.00  0.00    +0.012 A 
ATOM     28  C   UNL     1      16.351   6.557  20.476  0.00  0.00    +0.012 A 
ATOM     29  C   UNL     1      17.735   8.855  21.243  0.00  0.00    +0.046 A 
ATOM     30  C   UNL     1      17.542   6.448  21.193  0.00  0.00    +0.046 A 
ATOM     33  C   UNL     1      18.234   7.597  21.576  0.00  0.00    +0.130 A 
BRANCH  33   9
ATOM      9  O   UNL     1      19.397   7.490  22.276  0.00  0.00    -0.406 OA
BRANCH   9  35
ATOM      3  F   UNL     1      20.580   5.578  21.858  0.00  0.00    -0.133 F 
ATOM      4  F   UNL     1      21.648   7.465  22.128  0.00  0.00    -0.133 F 
ATOM      5  F   UNL     1      20.494   7.143  20.300  0.00  0.00    -0.133 F 
ATOM     35  C   UNL     1      20.522   6.906  21.629  0.00  0.00    +0.575 C 
ENDBRANCH   9  35
ENDBRANCH  33   9
ENDBRANCH  19  24
BRANCH  10   1
ATOM      1  S   UNL     1      12.264  12.072  21.648  0.00  0.00    +0.061 S 
ATOM      6  O   UNL     1      13.290  12.387  22.620  0.00  0.00    -0.153 OA
ATOM      7  O   UNL     1      10.926  12.611  21.775  0.00  0.00    -0.153 OA
BRANCH   1  23
ATOM      2  F   UNL     1      14.312  13.554  16.344  0.00  0.00    -0.205 F 
ATOM     23  C   UNL     1      12.879  12.517  20.053  0.00  0.00    +0.106 A 
ATOM     25  C   UNL     1      12.763  13.829  19.624  0.00  0.00    +0.031 A 
ATOM     26  C   UNL     1      13.469  11.548  19.260  0.00  0.00    +0.031 A 
ATOM     31  C   UNL     1      13.249  14.180  18.365  0.00  0.00    +0.040 A 
ATOM     32  C   UNL     1      13.955  11.899  18.000  0.00  0.00    +0.040 A 
ATOM     34  C   UNL     1      13.845  13.215  17.553  0.00  0.00    +0.124 A 
ENDBRANCH   1  23
ENDBRANCH  10   1
TORSDOF 5
ENDMDL
MODEL 2
REMARK VINA RESULT:      -7.3     15.913     19.181
REMARK  Name = 7144209
REMARK  5 active torsions:
REMARK  status: ('A' for Active; 'I' for Inactive)
REMARK    1  A    between atoms: S_1  and  N_10
REMARK    2  A    between atoms: S_1  and  C_23
REMARK    3  A    between atoms: O_9  and  C_33
REMARK    4  A    between atoms: O_9  and  C_35
REMARK    5  A    between atoms: C_19  and  C_24
REMARK                            x       y       z     vdW  Elec       q    Type
REMARK                         _______ _______ _______ _____ _____    ______ ____
ROOT
ATOM      8  O   UNL     1       9.702   8.882  -0.185  0.00  0.00    -0.268 OA
ATOM     10  N   UNL     1      13.008   5.484   1.248  0.00  0.00    -0.176 NA
ATOM     11  N   UNL     1      11.160   8.027   1.437  0.00  0.00    -0.311 N 
ATOM     12  C   UNL     1      13.686   7.870   1.023  0.00  0.00    +0.025 C 
ATOM     13  C   UNL     1      12.739   7.074   3.144  0.00  0.00    +0.053 C 
ATOM     14  C   UNL     1      13.792   7.996   2.534  0.00  0.00    +0.017 C 
ATOM     15  C   UNL     1      13.947   6.424   0.575  0.00  0.00    +0.114 C 
ATOM     16  C   UNL     1      13.034   5.618   2.734  0.00  0.00    +0.119 C 
ATOM     17  C   UNL     1      12.309   8.373   0.587  0.00  0.00    +0.130 C 
ATOM     18  C   UNL     1      11.324   7.480   2.724  0.00  0.00    +0.034 A 
ATOM     19  C   UNL     1      10.243   7.312   3.531  0.00  0.00    +0.002 A 
ATOM     20  C   UNL     1       9.900   8.387   0.924  0.00  0.00    +0.252 A 
ATOM     21  C   UNL     1       8.927   7.668   3.034  0.00  0.00    +0.015 A 
ATOM     22  C   UNL     1       8.737   8.161   1.811  0.00  0.00    +0.071 A 
ENDROOT
BRANCH  19  24
ATOM     24  C   UNL     1      10.368   6.761   4.898  0.00  0.00    -0.016 A 
ATOM     27  C   UNL     1      10.825   7.573   5.931  0.00  0.00    +0.012 A 
ATOM     28  C   UNL     1      10.028   5.434   5.141  0.00  0.00    +0.012 A 
ATOM     29  C   UNL     1      10.942   7.053   7.220  0.00  0.00    +0.046 A 
ATOM     30  C   UNL     1      10.145   4.914   6.430  0.00  0.00    +0.046 A 
ATOM     33  C   UNL     1      10.603   5.724   7.469  0.00  0.00    +0.130 A 
BRANCH  33   9
ATOM      9  O   UNL     1      10.718   5.217   8.727  0.00  0.00    -0.406 OA
BRANCH   9  35
ATOM      3  F   UNL     1       8.600   5.884   9.274  0.00  0.00    -0.133 F 
ATOM      4  F   UNL     1       9.818   4.847  10.763  0.00  0.00    -0.133 F 
ATOM      5  F   UNL     1       9.019   3.723   9.068  0.00  0.00    -0.133 F 
ATOM     35  C   UNL     1       9.526   4.917   9.445  0.00  0.00    +0.575 C 
ENDBRANCH   9  35
ENDBRANCH  33   9
ENDBRANCH  19  24
BRANCH  10   1
ATOM      1  S   UNL     1      13.004   3.882   0.649  0.00  0.00    +0.061 S 
ATOM      6  O   UNL     1      12.492   2.994   1.672  0.00  0.00    -0.153 OA
ATOM      7  O   UNL     1      14.271   3.618  -0.001  0.00  0.00    -0.153 OA
BRANCH   1  23
ATOM      2  F   UNL     1       8.899   4.357  -3.528  0.00  0.00    -0.205 F 
ATOM     23  C   UNL     1      11.770   4.025  -0.607  0.00  0.00    +0.106 A 
ATOM     25  C   UNL     1      10.760   4.961  -0.461  0.00  0.00    +0.031 A 
ATOM     26  C   UNL     1      11.833   3.199  -1.716  0.00  0.00    +0.031 A 
ATOM     31  C   UNL     1       9.785   5.073  -1.452  0.00  0.00    +0.040 A 
ATOM     32  C   UNL     1      10.859   3.310  -2.708  0.00  0.00    +0.040 A 
ATOM     34  C   UNL     1       9.835   4.248  -2.576  0.00  0.00    +0.124 A 
ENDBRANCH   1  23
ENDBRANCH  10   1
TORSDOF 5
ENDMDL
MODEL 3
REMARK VINA RESULT:      -7.1      2.296      3.165
REMARK  Name = 7144209
REMARK  5 active torsions:
REMARK  status: ('A' for Active; 'I' for Inactive)
REMARK    1  A    between atoms: S_1  and  N_10
REMARK    2  A    between atoms: S_1  and  C_23
REMARK    3  A    between atoms: O_9  and  C_33
REMARK    4  A    between atoms: O_9  and  C_35
REMARK    5  A    between atoms: C_19  and  C_24
REMARK                            x       y       z     vdW  Elec       q    Type
REMARK                         _______ _______ _______ _____ _____    ______ ____
ROOT
ATOM      8  O   UNL     1      10.651   8.680  20.944  0.00  0.00    -0.268 OA
ATOM     10  N   UNL     1      14.733  11.404  20.279  0.00  0.00    -0.176 NA
ATOM     11  N   UNL     1      12.926   9.059  21.353  0.00  0.00    -0.311 N 
ATOM     12  C   UNL     1      13.741  11.174  22.552  0.00  0.00    +0.025 C 
ATOM     13  C   UNL     1      15.364   9.510  21.764  0.00  0.00    +0.053 C 
ATOM     14  C   UNL     1      14.907  10.302  22.986  0.00  0.00    +0.017 C 
ATOM     15  C   UNL     1      14.169  12.145  21.441  0.00  0.00    +0.114 C 
ATOM     16  C   UNL     1      15.842  10.486  20.671  0.00  0.00    +0.119 C 
ATOM     17  C   UNL     1      12.588  10.268  22.117  0.00  0.00    +0.130 C 
ATOM     18  C   UNL     1      14.253   8.601  21.233  0.00  0.00    +0.034 A 
ATOM     19  C   UNL     1      14.504   7.403  20.643  0.00  0.00    +0.002 A 
ATOM     20  C   UNL     1      11.829   8.334  20.854  0.00  0.00    +0.252 A 
ATOM     21  C   UNL     1      13.397   6.629  20.112  0.00  0.00    +0.015 A 
ATOM     22  C   UNL     1      12.135   7.049  20.185  0.00  0.00    +0.071 A 
ENDROOT
BRANCH  19  24
ATOM     24  C   UNL     1      15.878   6.870  20.512  0.00  0.00    -0.016 A 
ATOM     27  C   UNL     1      16.703   6.806  21.631  0.00  0.00    +0.012 A 
ATOM     28  C   UNL     1      16.335   6.437  19.272  0.00  0.00    +0.012 A 
ATOM     29  C   UNL     1      17.998   6.304  21.507  0.00  0.00    +0.046 A 
ATOM     30  C   UNL     1      17.630   5.934  19.149  0.00  0.00    +0.046 A 
ATOM     33  C   UNL     1      18.462   5.869  20.267  0.00  0.00    +0.130 A 
BRANCH  33   9
ATOM      9  O   UNL     1      19.726   5.379  20.147  0.00  0.00    -0.406 OA
BRANCH   9  35
ATOM      3  F   UNL     1      21.964   5.834  20.009  0.00  0.00    -0.133 F 
ATOM      4  F   UNL     1      20.955   5.983  21.941  0.00  0.00    -0.133 F 
ATOM      5  F   UNL     1      20.559   7.493  20.411  0.00  0.00    -0.133 F 
ATOM     35  C   UNL     1      20.807   6.181  20.612  0.00  0.00    +0.575 C 
ENDBRANCH   9  35
ENDBRANCH  33   9
ENDBRANCH  19  24
BRANCH  10   1
ATOM      1  S   UNL     1      15.004  12.331  18.867  0.00  0.00    +0.061 S 
ATOM      6  O   UNL     1      16.414  12.294  18.539  0.00  0.00    -0.153 OA
ATOM      7  O   UNL     1      14.300  13.590  18.987  0.00  0.00    -0.153 OA
BRANCH   1  23
ATOM      2  F   UNL     1      12.162   9.040  14.916  0.00  0.00    -0.205 F 
ATOM     23  C   UNL     1      14.150  11.342  17.679  0.00  0.00    +0.106 A 
ATOM     25  C   UNL     1      14.356  11.574  16.330  0.00  0.00    +0.031 A 
ATOM     26  C   UNL     1      13.288  10.351  18.118  0.00  0.00    +0.031 A 
ATOM     31  C   UNL     1      13.681  10.793  15.392  0.00  0.00    +0.040 A 
ATOM     32  C   UNL     1      12.612   9.569  17.180  0.00  0.00    +0.040 A 
ATOM     34  C   UNL     1      12.809   9.791  15.817  0.00  0.00    +0.124 A 
ENDBRANCH   1  23
ENDBRANCH  10   1
TORSDOF 5
ENDMDL
MODEL 4
REMARK VINA RESULT:      -7.1     15.334     18.639
REMARK  Name = 7144209
REMARK  5 active torsions:
REMARK  status: ('A' for Active; 'I' for Inactive)
REMARK    1  A    between atoms: S_1  and  N_10
REMARK    2  A    between atoms: S_1  and  C_23
REMARK    3  A    between atoms: O_9  and  C_33
REMARK    4  A    between atoms: O_9  and  C_35
REMARK    5  A    between atoms: C_19  and  C_24
REMARK                            x       y       z     vdW  Elec       q    Type
REMARK                         _______ _______ _______ _____ _____    ______ ____
ROOT
ATOM      8  O   UNL     1       8.297   9.912   0.773  0.00  0.00    -0.268 OA
ATOM     10  N   UNL     1      11.660   6.309   1.259  0.00  0.00    -0.176 NA
ATOM     11  N   UNL     1       9.959   8.844   2.032  0.00  0.00    -0.311 N 
ATOM     12  C   UNL     1      12.381   8.692   1.204  0.00  0.00    +0.025 C 
ATOM     13  C   UNL     1      11.750   7.666   3.343  0.00  0.00    +0.053 C 
ATOM     14  C   UNL     1      12.727   8.634   2.683  0.00  0.00    +0.017 C 
ATOM     15  C   UNL     1      12.515   7.306   0.557  0.00  0.00    +0.114 C 
ATOM     16  C   UNL     1      11.924   6.264   2.727  0.00  0.00    +0.119 C 
ATOM     17  C   UNL     1      10.972   9.268   1.055  0.00  0.00    +0.130 C 
ATOM     18  C   UNL     1      10.302   8.144   3.205  0.00  0.00    +0.034 A 
ATOM     19  C   UNL     1       9.356   7.900   4.149  0.00  0.00    +0.002 A 
ATOM     20  C   UNL     1       8.648   9.285   1.773  0.00  0.00    +0.252 A 
ATOM     21  C   UNL     1       7.993   8.336   3.914  0.00  0.00    +0.015 A 
ATOM     22  C   UNL     1       7.631   8.975   2.802  0.00  0.00    +0.071 A 
ENDROOT
BRANCH  19  24
ATOM     24  C   UNL     1       9.674   7.188   5.406  0.00  0.00    -0.016 A 
ATOM     27  C   UNL     1      10.086   7.908   6.523  0.00  0.00    +0.012 A 
ATOM     28  C   UNL     1       9.557   5.802   5.463  0.00  0.00    +0.012 A 
ATOM     29  C   UNL     1      10.385   7.235   7.708  0.00  0.00    +0.046 A 
ATOM     30  C   UNL     1       9.856   5.130   6.648  0.00  0.00    +0.046 A 
ATOM     33  C   UNL     1      10.271   5.847   7.770  0.00  0.00    +0.130 A 
BRANCH  33   9
ATOM      9  O   UNL     1      10.563   5.192   8.927  0.00  0.00    -0.406 OA
BRANCH   9  35
ATOM      3  F   UNL     1       8.491   5.529   9.834  0.00  0.00    -0.133 F 
ATOM      4  F   UNL     1       9.943   4.295  10.903  0.00  0.00    -0.133 F 
ATOM      5  F   UNL     1       9.014   3.516   9.085  0.00  0.00    -0.133 F 
ATOM     35  C   UNL     1       9.488   4.634   9.676  0.00  0.00    +0.575 C 
ENDBRANCH   9  35
ENDBRANCH  33   9
ENDBRANCH  19  24
BRANCH  10   1
ATOM      1  S   UNL     1      11.504   4.790   0.488  0.00  0.00    +0.061 S 
ATOM      6  O   UNL     1      10.823   4.969  -0.778  0.00  0.00    -0.153 OA
ATOM      7  O   UNL     1      11.037   3.816   1.452  0.00  0.00    -0.153 OA
BRANCH   1  23
ATOM      2  F   UNL     1      17.148   3.634  -0.661  0.00  0.00    -0.205 F 
ATOM     23  C   UNL     1      13.200   4.442   0.142  0.00  0.00    +0.106 A 
ATOM     25  C   UNL     1      13.680   4.620  -1.144  0.00  0.00    +0.031 A 
ATOM     26  C   UNL     1      14.022   3.998   1.164  0.00  0.00    +0.031 A 
ATOM     31  C   UNL     1      15.020   4.345  -1.417  0.00  0.00    +0.040 A 
ATOM     32  C   UNL     1      15.363   3.723   0.892  0.00  0.00    +0.040 A 
ATOM     34  C   UNL     1      15.862   3.897  -0.398  0.00  0.00    +0.124 A 
ENDBRANCH   1  23
ENDBRANCH  10   1
TORSDOF 5
ENDMDL
MODEL 5
REMARK VINA RESULT:      -7.0      3.959      6.454
REMARK  Name = 7144209
REMARK  5 active torsions:
REMARK  status: ('A' for Active; 'I' for Inactive)
REMARK    1  A    between atoms: S_1  and  N_10
REMARK    2  A    between atoms: S_1  and  C_23
REMARK    3  A    between atoms: O_9  and  C_33
REMARK    4  A    between atoms: O_9  and  C_35
REMARK    5  A    between atoms: C_19  and  C_24
REMARK                            x       y       z     vdW  Elec       q    Type
REMARK                         _______ _______ _______ _____ _____    ______ ____
ROOT
ATOM      8  O   UNL     1      16.151   6.167  18.788  0.00  0.00    -0.268 OA
ATOM     10  N   UNL     1      14.398  10.665  17.684  0.00  0.00    -0.176 NA
ATOM     11  N   UNL     1      14.428   7.751  18.877  0.00  0.00    -0.311 N 
ATOM     12  C   UNL     1      13.303   8.633  16.748  0.00  0.00    +0.025 C 
ATOM     13  C   UNL     1      12.607   9.482  18.944  0.00  0.00    +0.053 C 
ATOM     14  C   UNL     1      12.100   8.851  17.650  0.00  0.00    +0.017 C 
ATOM     15  C   UNL     1      13.997   9.966  16.431  0.00  0.00    +0.114 C 
ATOM     16  C   UNL     1      13.257  10.844  18.629  0.00  0.00    +0.119 C 
ATOM     17  C   UNL     1      14.245   7.635  17.423  0.00  0.00    +0.130 C 
ATOM     18  C   UNL     1      13.595   8.565  19.670  0.00  0.00    +0.034 A 
ATOM     19  C   UNL     1      13.704   8.529  21.023  0.00  0.00    +0.002 A 
ATOM     20  C   UNL     1      15.408   6.908  19.432  0.00  0.00    +0.252 A 
ATOM     21  C   UNL     1      14.707   7.675  21.631  0.00  0.00    +0.015 A 
ATOM     22  C   UNL     1      15.529   6.915  20.907  0.00  0.00    +0.071 A 
ENDROOT
BRANCH  19  24
ATOM     24  C   UNL     1      12.838   9.350  21.898  0.00  0.00    -0.016 A 
ATOM     27  C   UNL     1      13.291  10.584  22.357  0.00  0.00    +0.012 A 
ATOM     28  C   UNL     1      11.577   8.883  22.255  0.00  0.00    +0.012 A 
ATOM     29  C   UNL     1      12.474  11.357  23.181  0.00  0.00    +0.046 A 
ATOM     30  C   UNL     1      10.761   9.657  23.079  0.00  0.00    +0.046 A 
ATOM     33  C   UNL     1      11.210  10.894  23.543  0.00  0.00    +0.130 A 
BRANCH  33   9
ATOM      9  O   UNL     1      10.413  11.650  24.347  0.00  0.00    -0.406 OA
BRANCH   9  35
ATOM      3  F   UNL     1      12.128  12.175  25.766  0.00  0.00    -0.133 F 
ATOM      4  F   UNL     1      10.149  13.035  26.110  0.00  0.00    -0.133 F 
ATOM      5  F   UNL     1      11.340  13.739  24.418  0.00  0.00    -0.133 F 
ATOM     35  C   UNL     1      11.025  12.652  25.153  0.00  0.00    +0.575 C 
ENDBRANCH   9  35
ENDBRANCH  33   9
ENDBRANCH  19  24
BRANCH  10   1
ATOM      1  S   UNL     1      15.413  12.027  17.483  0.00  0.00    +0.061 S 
ATOM      6  O   UNL     1      14.645  13.231  17.723  0.00  0.00    -0.153 OA
ATOM      7  O   UNL     1      16.185  11.866  16.269  0.00  0.00    -0.153 OA
BRANCH   1  23
ATOM      2  F   UNL     1      19.044  11.286  22.042  0.00  0.00    -0.205 F 
ATOM     23  C   UNL     1      16.505  11.804  18.853  0.00  0.00    +0.106 A 
ATOM     25  C   UNL     1      17.631  12.603  18.960  0.00  0.00    +0.031 A 
ATOM     26  C   UNL     1      16.216  10.835  19.799  0.00  0.00    +0.031 A 
ATOM     31  C   UNL     1      18.493  12.426  20.042  0.00  0.00    +0.040 A 
ATOM     32  C   UNL     1      17.078  10.658  20.881  0.00  0.00    +0.040 A 
ATOM     34  C   UNL     1      18.216  11.454  21.003  0.00  0.00    +0.124 A 
ENDBRANCH   1  23
ENDBRANCH  10   1
TORSDOF 5
ENDMDL
MODEL 6
REMARK VINA RESULT:      -6.8     15.198     18.253
REMARK  Name = 7144209
REMARK  5 active torsions:
REMARK  status: ('A' for Active; 'I' for Inactive)
REMARK    1  A    between atoms: S_1  and  N_10
REMARK    2  A    between atoms: S_1  and  C_23
REMARK    3  A    between atoms: O_9  and  C_33
REMARK    4  A    between atoms: O_9  and  C_35
REMARK    5  A    between atoms: C_19  and  C_24
REMARK                            x       y       z     vdW  Elec       q    Type
REMARK                         _______ _______ _______ _____ _____    ______ ____
ROOT
ATOM      8  O   UNL     1       7.194   9.421   5.082  0.00  0.00    -0.268 OA
ATOM     10  N   UNL     1      11.371   6.918   5.985  0.00  0.00    -0.176 NA
ATOM     11  N   UNL     1       8.598   7.596   4.654  0.00  0.00    -0.311 N 
ATOM     12  C   UNL     1       9.161   5.878   6.473  0.00  0.00    +0.025 C 
ATOM     13  C   UNL     1      10.138   5.654   4.232  0.00  0.00    +0.053 C 
ATOM     14  C   UNL     1       9.340   4.921   5.306  0.00  0.00    +0.017 C 
ATOM     15  C   UNL     1      10.522   6.305   7.044  0.00  0.00    +0.114 C 
ATOM     16  C   UNL     1      11.522   6.035   4.791  0.00  0.00    +0.119 C 
ATOM     17  C   UNL     1       8.330   7.072   6.001  0.00  0.00    +0.130 C 
ATOM     18  C   UNL     1       9.395   6.895   3.728  0.00  0.00    +0.034 A 
ATOM     19  C   UNL     1       9.498   7.342   2.449  0.00  0.00    +0.002 A 
ATOM     20  C   UNL     1       7.913   8.778   4.318  0.00  0.00    +0.252 A 
ATOM     21  C   UNL     1       8.809   8.560   2.067  0.00  0.00    +0.015 A 
ATOM     22  C   UNL     1       8.071   9.261   2.927  0.00  0.00    +0.071 A 
ENDROOT
BRANCH  19  24
ATOM     24  C   UNL     1      10.306   6.629   1.435  0.00  0.00    -0.016 A 
ATOM     27  C   UNL     1      11.614   7.032   1.187  0.00  0.00    +0.012 A 
ATOM     28  C   UNL     1       9.752   5.560   0.738  0.00  0.00    +0.012 A 
ATOM     29  C   UNL     1      12.375   6.359   0.231  0.00  0.00    +0.046 A 
ATOM     30  C   UNL     1      10.514   4.887  -0.217  0.00  0.00    +0.046 A 
ATOM     33  C   UNL     1      11.825   5.287  -0.471  0.00  0.00    +0.130 A 
BRANCH  33   9
ATOM      9  O   UNL     1      12.569   4.631  -1.403  0.00  0.00    -0.406 OA
BRANCH   9  35
ATOM      3  F   UNL     1      13.203   3.279   0.329  0.00  0.00    -0.133 F 
ATOM      4  F   UNL     1      14.548   3.546  -1.373  0.00  0.00    -0.133 F 
ATOM      5  F   UNL     1      12.729   2.360  -1.625  0.00  0.00    -0.133 F 
ATOM     35  C   UNL     1      13.249   3.444  -1.010  0.00  0.00    +0.575 C 
ENDBRANCH   9  35
ENDBRANCH  33   9
ENDBRANCH  19  24
BRANCH  10   1
ATOM      1  S   UNL     1      12.803   7.679   6.529  0.00  0.00    +0.061 S 
ATOM      6  O   UNL     1      13.673   6.684   7.122  0.00  0.00    -0.153 OA
ATOM      7  O   UNL     1      12.453   8.885   7.249  0.00  0.00    -0.153 OA
BRANCH   1  23
ATOM      2  F   UNL     1      15.145   9.264   1.379  0.00  0.00    -0.205 F 
ATOM     23  C   UNL     1      13.507   8.156   4.981  0.00  0.00    +0.106 A 
ATOM     25  C   UNL     1      14.642   7.507   4.525  0.00  0.00    +0.031 A 
ATOM     26  C   UNL     1      12.911   9.169   4.249  0.00  0.00    +0.031 A 
ATOM     31  C   UNL     1      15.199   7.885   3.302  0.00  0.00    +0.040 A 
ATOM     32  C   UNL     1      13.467   9.546   3.027  0.00  0.00    +0.040 A 
ATOM     34  C   UNL     1      14.611   8.904   2.553  0.00  0.00    +0.124 A 
ENDBRANCH   1  23
ENDBRANCH  10   1
TORSDOF 5
ENDMDL
MODEL 7
REMARK VINA RESULT:      -6.6     26.301     28.930
REMARK  Name = 7144209
REMARK  5 active torsions:
REMARK  status: ('A' for Active; 'I' for Inactive)
REMARK    1  A    between atoms: S_1  and  N_10
REMARK    2  A    between atoms: S_1  and  C_23
REMARK    3  A    between atoms: O_9  and  C_33
REMARK    4  A    between atoms: O_9  and  C_35
REMARK    5  A    between atoms: C_19  and  C_24
REMARK                            x       y       z     vdW  Elec       q    Type
REMARK                         _______ _______ _______ _____ _____    ______ ____
ROOT
ATOM      8  O   UNL     1     -10.832  12.937  18.192  0.00  0.00    -0.268 OA
ATOM     10  N   UNL     1     -13.067   9.295  15.689  0.00  0.00    -0.176 NA
ATOM     11  N   UNL     1     -11.254  10.655  17.875  0.00  0.00    -0.311 N 
ATOM     12  C   UNL     1     -10.582   9.453  15.712  0.00  0.00    +0.025 C 
ATOM     13  C   UNL     1     -11.735   8.218  17.493  0.00  0.00    +0.053 C 
ATOM     14  C   UNL     1     -10.499   8.220  16.597  0.00  0.00    +0.017 C 
ATOM     15  C   UNL     1     -11.848   9.418  14.843  0.00  0.00    +0.114 C 
ATOM     16  C   UNL     1     -13.001   8.131  16.620  0.00  0.00    +0.119 C 
ATOM     17  C   UNL     1     -10.522  10.696  16.601  0.00  0.00    +0.130 C 
ATOM     18  C   UNL     1     -11.780   9.456  18.394  0.00  0.00    +0.034 A 
ATOM     19  C   UNL     1     -12.319   9.437  19.640  0.00  0.00    +0.002 A 
ATOM     20  C   UNL     1     -11.289  11.866  18.590  0.00  0.00    +0.252 A 
ATOM     21  C   UNL     1     -12.377  10.668  20.406  0.00  0.00    +0.015 A 
ATOM     22  C   UNL     1     -11.914  11.824  19.932  0.00  0.00    +0.071 A 
ENDROOT
BRANCH  19  24
ATOM     24  C   UNL     1     -12.865   8.197  20.236  0.00  0.00    -0.016 A 
ATOM     27  C   UNL     1     -12.005   7.281  20.834  0.00  0.00    +0.012 A 
ATOM     28  C   UNL     1     -14.235   7.956  20.194  0.00  0.00    +0.012 A 
ATOM     29  C   UNL     1     -12.520   6.113  21.394  0.00  0.00    +0.046 A 
ATOM     30  C   UNL     1     -14.749   6.788  20.755  0.00  0.00    +0.046 A 
ATOM     33  C   UNL     1     -13.891   5.866  21.355  0.00  0.00    +0.130 A 
BRANCH  33   9
ATOM      9  O   UNL     1     -14.393   4.725  21.903  0.00  0.00    -0.406 OA
BRANCH   9  35
ATOM      3  F   UNL     1     -13.494   4.477  23.991  0.00  0.00    -0.133 F 
ATOM      4  F   UNL     1     -15.491   3.691  23.581  0.00  0.00    -0.133 F 
ATOM      5  F   UNL     1     -15.204   5.853  23.721  0.00  0.00    -0.133 F 
ATOM     35  C   UNL     1     -14.635   4.700  23.305  0.00  0.00    +0.575 C 
ENDBRANCH   9  35
ENDBRANCH  33   9
ENDBRANCH  19  24
BRANCH  10   1
ATOM      1  S   UNL     1     -14.558   9.512  14.879  0.00  0.00    +0.061 S 
ATOM      6  O   UNL     1     -14.788   8.386  13.998  0.00  0.00    -0.153 OA
ATOM      7  O   UNL     1     -14.635  10.871  14.386  0.00  0.00    -0.153 OA
BRANCH   1  23
ATOM      2  F   UNL     1     -18.268   9.025  19.409  0.00  0.00    -0.205 F 
ATOM     23  C   UNL     1     -15.674   9.366  16.241  0.00  0.00    +0.106 A 
ATOM     25  C   UNL     1     -16.562   8.305  16.278  0.00  0.00    +0.031 A 
ATOM     26  C   UNL     1     -15.640  10.314  17.249  0.00  0.00    +0.031 A 
ATOM     31  C   UNL     1     -17.444   8.190  17.353  0.00  0.00    +0.040 A 
ATOM     32  C   UNL     1     -16.521  10.200  18.325  0.00  0.00    +0.040 A 
ATOM     34  C   UNL     1     -17.422   9.137  18.377  0.00  0.00    +0.124 A 
ENDBRANCH   1  23
ENDBRANCH  10   1
TORSDOF 5
ENDMDL
MODEL 8
REMARK VINA RESULT:      -6.5     14.812     17.846
REMARK  Name = 7144209
REMARK  5 active torsions:
REMARK  status: ('A' for Active; 'I' for Inactive)
REMARK    1  A    between atoms: S_1  and  N_10
REMARK    2  A    between atoms: S_1  and  C_23
REMARK    3  A    between atoms: O_9  and  C_33
REMARK    4  A    between atoms: O_9  and  C_35
REMARK    5  A    between atoms: C_19  and  C_24
REMARK                            x       y       z     vdW  Elec       q    Type
REMARK                         _______ _______ _______ _____ _____    ______ ____
ROOT
ATOM      8  O   UNL     1      10.771   5.730   8.913  0.00  0.00    -0.268 OA
ATOM     10  N   UNL     1      11.782   9.307   5.642  0.00  0.00    -0.176 NA
ATOM     11  N   UNL     1      11.634   6.399   6.842  0.00  0.00    -0.311 N 
ATOM     12  C   UNL     1      13.632   7.997   6.673  0.00  0.00    +0.025 C 
ATOM     13  C   UNL     1      12.551   7.167   4.631  0.00  0.00    +0.053 C 
ATOM     14  C   UNL     1      13.892   7.298   5.349  0.00  0.00    +0.017 C 
ATOM     15  C   UNL     1      13.033   9.393   6.446  0.00  0.00    +0.114 C 
ATOM     16  C   UNL     1      11.977   8.571   4.358  0.00  0.00    +0.119 C 
ATOM     17  C   UNL     1      12.725   7.109   7.525  0.00  0.00    +0.130 C 
ATOM     18  C   UNL     1      11.561   6.323   5.437  0.00  0.00    +0.034 A 
ATOM     19  C   UNL     1      10.620   5.536   4.851  0.00  0.00    +0.002 A 
ATOM     20  C   UNL     1      10.742   5.709   7.683  0.00  0.00    +0.252 A 
ATOM     21  C   UNL     1       9.680   4.814   5.686  0.00  0.00    +0.015 A 
ATOM     22  C   UNL     1       9.706   4.888   7.017  0.00  0.00    +0.071 A 
ENDROOT
BRANCH  19  24
ATOM     24  C   UNL     1      10.517   5.408   3.381  0.00  0.00    -0.016 A 
ATOM     27  C   UNL     1       9.955   6.439   2.635  0.00  0.00    +0.012 A 
ATOM     28  C   UNL     1      10.984   4.256   2.754  0.00  0.00    +0.012 A 
ATOM     29  C   UNL     1       9.858   6.317   1.249  0.00  0.00    +0.046 A 
ATOM     30  C   UNL     1      10.888   4.136   1.368  0.00  0.00    +0.046 A 
ATOM     33  C   UNL     1      10.324   5.166   0.615  0.00  0.00    +0.130 A 
BRANCH  33   9
ATOM      9  O   UNL     1      10.229   5.048  -0.737  0.00  0.00    -0.406 OA
BRANCH   9  35
ATOM      3  F   UNL     1      12.345   5.893  -0.928  0.00  0.00    -0.133 F 
ATOM      4  F   UNL     1      11.145   5.588  -2.728  0.00  0.00    -0.133 F 
ATOM      5  F   UNL     1      11.940   3.850  -1.669  0.00  0.00    -0.133 F 
ATOM     35  C   UNL     1      11.428   5.088  -1.504  0.00  0.00    +0.575 C 
ENDBRANCH   9  35
ENDBRANCH  33   9
ENDBRANCH  19  24
BRANCH  10   1
ATOM      1  S   UNL     1      10.866  10.748   5.537  0.00  0.00    +0.061 S 
ATOM      6  O   UNL     1      11.659  11.768   4.883  0.00  0.00    -0.153 OA
ATOM      7  O   UNL     1      10.235  11.001   6.815  0.00  0.00    -0.153 OA
BRANCH   1  23
ATOM      2  F   UNL     1       6.691   9.038   1.773  0.00  0.00    -0.205 F 
ATOM     23  C   UNL     1       9.610  10.234   4.405  0.00  0.00    +0.106 A 
ATOM     25  C   UNL     1       9.627  10.720   3.109  0.00  0.00    +0.031 A 
ATOM     26  C   UNL     1       8.632   9.353   4.834  0.00  0.00    +0.031 A 
ATOM     31  C   UNL     1       8.635  10.315   2.216  0.00  0.00    +0.040 A 
ATOM     32  C   UNL     1       7.640   8.947   3.941  0.00  0.00    +0.040 A 
ATOM     34  C   UNL     1       7.642   9.428   2.632  0.00  0.00    +0.124 A 
ENDBRANCH   1  23
ENDBRANCH  10   1
TORSDOF 5
ENDMDL
MODEL 9
REMARK VINA RESULT:      -6.4     14.660     17.546
REMARK  Name = 7144209
REMARK  5 active torsions:
REMARK  status: ('A' for Active; 'I' for Inactive)
REMARK    1  A    between atoms: S_1  and  N_10
REMARK    2  A    between atoms: S_1  and  C_23
REMARK    3  A    between atoms: O_9  and  C_33
REMARK    4  A    between atoms: O_9  and  C_35
REMARK    5  A    between atoms: C_19  and  C_24
REMARK                            x       y       z     vdW  Elec       q    Type
REMARK                         _______ _______ _______ _____ _____    ______ ____
ROOT
ATOM      8  O   UNL     1       6.883   9.581   4.591  0.00  0.00    -0.268 OA
ATOM     10  N   UNL     1      11.139   8.042   6.602  0.00  0.00    -0.176 NA
ATOM     11  N   UNL     1       8.475   7.897   4.929  0.00  0.00    -0.311 N 
ATOM     12  C   UNL     1       8.987   6.981   7.268  0.00  0.00    +0.025 C 
ATOM     13  C   UNL     1      10.210   6.121   5.322  0.00  0.00    +0.053 C 
ATOM     14  C   UNL     1       9.369   5.711   6.528  0.00  0.00    +0.017 C 
ATOM     15  C   UNL     1      10.238   7.733   7.747  0.00  0.00    +0.114 C 
ATOM     16  C   UNL     1      11.490   6.829   5.807  0.00  0.00    +0.119 C 
ATOM     17  C   UNL     1       8.111   7.837   6.351  0.00  0.00    +0.130 C 
ATOM     18  C   UNL     1       9.422   7.020   4.364  0.00  0.00    +0.034 A 
ATOM     19  C   UNL     1       9.620   7.011   3.020  0.00  0.00    +0.002 A 
ATOM     20  C   UNL     1       7.731   8.804   4.153  0.00  0.00    +0.252 A 
ATOM     21  C   UNL     1       8.875   7.937   2.189  0.00  0.00    +0.015 A 
ATOM     22  C   UNL     1       7.993   8.798   2.696  0.00  0.00    +0.071 A 
ENDROOT
BRANCH  19  24
ATOM     24  C   UNL     1      10.589   6.094   2.380  0.00  0.00    -0.016 A 
ATOM     27  C   UNL     1      10.173   4.834   1.962  0.00  0.00    +0.012 A 
ATOM     28  C   UNL     1      11.908   6.499   2.200  0.00  0.00    +0.012 A 
ATOM     29  C   UNL     1      11.087   3.969   1.359  0.00  0.00    +0.046 A 
ATOM     30  C   UNL     1      12.820   5.634   1.596  0.00  0.00    +0.046 A 
ATOM     33  C   UNL     1      12.410   4.369   1.176  0.00  0.00    +0.130 A 
BRANCH  33   9
ATOM      9  O   UNL     1      13.301   3.525   0.587  0.00  0.00    -0.406 OA
BRANCH   9  35
ATOM      3  F   UNL     1      14.700   3.579  -1.221  0.00  0.00    -0.133 F 
ATOM      4  F   UNL     1      12.799   4.655  -1.302  0.00  0.00    -0.133 F 
ATOM      5  F   UNL     1      12.794   2.470  -1.379  0.00  0.00    -0.133 F 
ATOM     35  C   UNL     1      13.408   3.542  -0.833  0.00  0.00    +0.575 C 
ENDBRANCH   9  35
ENDBRANCH  33   9
ENDBRANCH  19  24
BRANCH  10   1
ATOM      1  S   UNL     1      12.436   9.104   6.942  0.00  0.00    +0.061 S 
ATOM      6  O   UNL     1      13.674   8.354   6.952  0.00  0.00    -0.153 OA
ATOM      7  O   UNL     1      12.071   9.953   8.057  0.00  0.00    -0.153 OA
BRANCH   1  23
ATOM      2  F   UNL     1      12.376  12.394   2.074  0.00  0.00    -0.205 F 
ATOM     23  C   UNL     1      12.418  10.094   5.479  0.00  0.00    +0.106 A 
ATOM     25  C   UNL     1      13.487  10.932   5.215  0.00  0.00    +0.031 A 
ATOM     26  C   UNL     1      11.335  10.013   4.620  0.00  0.00    +0.031 A 
ATOM     31  C   UNL     1      13.473  11.714   4.060  0.00  0.00    +0.040 A 
ATOM     32  C   UNL     1      11.319  10.794   3.465  0.00  0.00    +0.040 A 
ATOM     34  C   UNL     1      12.389  11.645   3.184  0.00  0.00    +0.124 A 
ENDBRANCH   1  23
ENDBRANCH  10   1
TORSDOF 5
ENDMDL
MODEL 10
REMARK VINA RESULT:      -6.2     26.288     28.337
REMARK  Name = 7144209
REMARK  5 active torsions:
REMARK  status: ('A' for Active; 'I' for Inactive)
REMARK    1  A    between atoms: S_1  and  N_10
REMARK    2  A    between atoms: S_1  and  C_23
REMARK    3  A    between atoms: O_9  and  C_33
REMARK    4  A    between atoms: O_9  and  C_35
REMARK    5  A    between atoms: C_19  and  C_24
REMARK                            x       y       z     vdW  Elec       q    Type
REMARK                         _______ _______ _______ _____ _____    ______ ____
ROOT
ATOM      8  O   UNL     1     -15.893  12.906  16.642  0.00  0.00    -0.268 OA
ATOM     10  N   UNL     1     -11.909  10.222  17.846  0.00  0.00    -0.176 NA
ATOM     11  N   UNL     1     -14.085  12.488  18.071  0.00  0.00    -0.311 N 
ATOM     12  C   UNL     1     -11.661  12.626  17.246  0.00  0.00    +0.025 C 
ATOM     13  C   UNL     1     -12.129  12.000  19.573  0.00  0.00    +0.053 C 
ATOM     14  C   UNL     1     -11.343  12.967  18.692  0.00  0.00    +0.017 C 
ATOM     15  C   UNL     1     -11.247  11.183  16.921  0.00  0.00    +0.114 C 
ATOM     16  C   UNL     1     -11.675  10.556  19.281  0.00  0.00    +0.119 C 
ATOM     17  C   UNL     1     -13.151  12.871  17.003  0.00  0.00    +0.130 C 
ATOM     18  C   UNL     1     -13.639  12.147  19.363  0.00  0.00    +0.034 A 
ATOM     19  C   UNL     1     -14.541  11.941  20.358  0.00  0.00    +0.002 A 
ATOM     20  C   UNL     1     -15.449  12.598  17.748  0.00  0.00    +0.252 A 
ATOM     21  C   UNL     1     -15.957  12.042  20.061  0.00  0.00    +0.015 A 
ATOM     22  C   UNL     1     -16.411  12.335  18.843  0.00  0.00    +0.071 A 
ENDROOT
BRANCH  19  24
ATOM     24  C   UNL     1     -14.120  11.602  21.735  0.00  0.00    -0.016 A 
ATOM     27  C   UNL     1     -13.976  10.268  22.104  0.00  0.00    +0.012 A 
ATOM     28  C   UNL     1     -13.872  12.619  22.651  0.00  0.00    +0.012 A 
ATOM     29  C   UNL     1     -13.580   9.948  23.402  0.00  0.00    +0.046 A 
ATOM     30  C   UNL     1     -13.474  12.299  23.949  0.00  0.00    +0.046 A 
ATOM     33  C   UNL     1     -13.329  10.963  24.325  0.00  0.00    +0.130 A 
BRANCH  33   9
ATOM      9  O   UNL     1     -12.942  10.651  25.592  0.00  0.00    -0.406 OA
BRANCH   9  35
ATOM      3  F   UNL     1     -10.809  11.022  24.856  0.00  0.00    -0.133 F 
ATOM      4  F   UNL     1     -11.135   9.763  26.612  0.00  0.00    -0.133 F 
ATOM      5  F   UNL     1     -11.449  11.920  26.771  0.00  0.00    -0.133 F 
ATOM     35  C   UNL     1     -11.580  10.856  25.951  0.00  0.00    +0.575 C 
ENDBRANCH   9  35
ENDBRANCH  33   9
ENDBRANCH  19  24
BRANCH  10   1
ATOM      1  S   UNL     1     -11.752   8.568  17.436  0.00  0.00    +0.061 S 
ATOM      6  O   UNL     1     -10.347   8.231  17.356  0.00  0.00    -0.153 OA
ATOM      7  O   UNL     1     -12.655   8.264  16.346  0.00  0.00    -0.153 OA
BRANCH   1  23
ATOM      2  F   UNL     1     -13.911   6.091  22.307  0.00  0.00    -0.205 F 
ATOM     23  C   UNL     1     -12.401   7.824  18.901  0.00  0.00    +0.106 A 
ATOM     25  C   UNL     1     -13.768   7.844  19.123  0.00  0.00    +0.031 A 
ATOM     26  C   UNL     1     -11.533   7.232  19.802  0.00  0.00    +0.031 A 
ATOM     31  C   UNL     1     -14.280   7.257  20.280  0.00  0.00    +0.040 A 
ATOM     32  C   UNL     1     -12.044   6.644  20.959  0.00  0.00    +0.040 A 
ATOM     34  C   UNL     1     -13.418   6.656  21.197  0.00  0.00    +0.124 A 
ENDBRANCH   1  23
ENDBRANCH  10   1
TORSDOF 5
ENDMDL
