MODEL 1
REMARK VINA RESULT:      -6.9      0.000      0.000
REMARK  Name = 11885248
REMARK  10 active torsions:
REMARK  status: ('A' for Active; 'I' for Inactive)
REMARK    1  A    between atoms: S_1  and  C_21
REMARK    2  A    between atoms: S_1  and  C_28
REMARK    3  A    between atoms: O_4  and  C_32
REMARK    4  A    between atoms: N_8  and  C_25
REMARK    5  A    between atoms: N_8  and  C_30
REMARK    6  A    between atoms: N_8  and  C_31
REMARK    7  A    between atoms: C_18  and  C_21
REMARK    8  A    between atoms: C_19  and  C_22
REMARK    9  A    between atoms: C_23  and  C_25
REMARK   10  A    between atoms: C_28  and  C_32
REMARK                            x       y       z     vdW  Elec       q    Type
REMARK                         _______ _______ _______ _____ _____    ______ ____
ROOT
ATOM      2  O   UNL     1      12.332   7.666   3.023  0.00  0.00    -0.267 OA
ATOM      3  O   UNL     1      12.797   6.294  -2.125  0.00  0.00    -0.275 OA
ATOM      6  N   UNL     1      13.347   4.507  -0.745  0.00  0.00    -0.300 N 
ATOM      7  N   UNL     1      12.830   5.528   2.235  0.00  0.00    -0.311 N 
ATOM      9  C   UNL     1      15.027   4.978   1.042  0.00  0.00    +0.027 C 
ATOM     10  C   UNL     1      13.347   3.216   1.381  0.00  0.00    +0.054 C 
ATOM     11  C   UNL     1      14.815   3.574   1.595  0.00  0.00    +0.018 C 
ATOM     12  C   UNL     1      14.687   5.023  -0.458  0.00  0.00    +0.113 C 
ATOM     13  C   UNL     1      14.181   5.964   1.855  0.00  0.00    +0.130 C 
ATOM     14  C   UNL     1      13.031   3.211  -0.128  0.00  0.00    +0.117 C 
ATOM     15  C   UNL     1      12.434   4.196   2.094  0.00  0.00    +0.027 A 
ATOM     16  C   UNL     1      11.240   3.796   2.559  0.00  0.00    +0.022 A 
ATOM     17  C   UNL     1      12.005   6.491   2.849  0.00  0.00    +0.259 A 
ATOM     18  C   UNL     1      12.512   5.207  -1.617  0.00  0.00    +0.225 C 
ATOM     19  C   UNL     1      10.657   6.019   3.327  0.00  0.00    +0.047 A 
ATOM     20  C   UNL     1      10.339   4.724   3.179  0.00  0.00    +0.015 A 
ENDROOT
BRANCH  19  22
ATOM     22  C   UNL     1       9.696   6.952   3.939  0.00  0.00    -0.008 A 
ATOM     23  C   UNL     1       9.629   7.126   5.324  0.00  0.00    -0.026 A 
ATOM     24  C   UNL     1       8.834   7.674   3.109  0.00  0.00    +0.009 A 
ATOM     26  C   UNL     1       8.708   8.017   5.874  0.00  0.00    +0.005 A 
ATOM     27  C   UNL     1       7.913   8.564   3.660  0.00  0.00    +0.001 A 
ATOM     29  C   UNL     1       7.850   8.736   5.042  0.00  0.00    +0.000 A 
BRANCH  23  25
ATOM     25  C   UNL     1      10.533   6.372   6.245  0.00  0.00    +0.119 C 
BRANCH  25   8
ATOM      8  N   UNL     1       9.789   5.567   7.214  0.00  0.00    -0.304 NA
ATOM     30  C   UNL     1       9.873   4.148   6.870  0.00  0.00    +0.104 C 
ATOM     31  C   UNL     1      10.297   5.796   8.566  0.00  0.00    +0.104 C 
ENDBRANCH  25   8
ENDBRANCH  23  25
ENDBRANCH  19  22
BRANCH  18  21
ATOM     21  C   UNL     1      11.181   4.571  -1.934  0.00  0.00    +0.165 C 
BRANCH  21   1
ATOM      1  S   UNL     1      10.965   4.614  -3.719  0.00  0.00    -0.140 S 
BRANCH   1  28
ATOM     28  C   UNL     1       9.288   3.942  -3.813  0.00  0.00    +0.189 C 
BRANCH  28  32
ATOM      5  O   UNL     1       9.413   1.617  -3.191  0.00  0.00    -0.250 OA
ATOM     32  C   UNL     1       9.357   2.465  -4.073  0.00  0.00    +0.315 C 
BRANCH  32   4
ATOM      4  O   UNL     1       9.334   2.162  -5.396  0.00  0.00    -0.480 OA
ATOM     33  H   UNL     1      10.056   1.547  -5.644  0.00  0.00    +0.295 HD
ENDBRANCH  32   4
ENDBRANCH  28  32
ENDBRANCH   1  28
ENDBRANCH  21   1
ENDBRANCH  18  21
TORSDOF 8
ENDMDL
MODEL 2
REMARK VINA RESULT:      -6.9     18.033     21.240
REMARK  Name = 11885248
REMARK  10 active torsions:
REMARK  status: ('A' for Active; 'I' for Inactive)
REMARK    1  A    between atoms: S_1  and  C_21
REMARK    2  A    between atoms: S_1  and  C_28
REMARK    3  A    between atoms: O_4  and  C_32
REMARK    4  A    between atoms: N_8  and  C_25
REMARK    5  A    between atoms: N_8  and  C_30
REMARK    6  A    between atoms: N_8  and  C_31
REMARK    7  A    between atoms: C_18  and  C_21
REMARK    8  A    between atoms: C_19  and  C_22
REMARK    9  A    between atoms: C_23  and  C_25
REMARK   10  A    between atoms: C_28  and  C_32
REMARK                            x       y       z     vdW  Elec       q    Type
REMARK                         _______ _______ _______ _____ _____    ______ ____
ROOT
ATOM      2  O   UNL     1      10.537  10.114  22.685  0.00  0.00    -0.267 OA
ATOM      3  O   UNL     1      14.931   7.116  22.131  0.00  0.00    -0.275 OA
ATOM      6  N   UNL     1      14.335   8.083  20.104  0.00  0.00    -0.300 N 
ATOM      7  N   UNL     1      11.811   9.932  20.740  0.00  0.00    -0.311 N 
ATOM      9  C   UNL     1      11.962   7.761  19.391  0.00  0.00    +0.027 C 
ATOM     10  C   UNL     1      13.201   9.750  18.647  0.00  0.00    +0.054 C 
ATOM     11  C   UNL     1      12.207   8.681  18.201  0.00  0.00    +0.018 C 
ATOM     12  C   UNL     1      13.278   7.103  19.843  0.00  0.00    +0.113 C 
ATOM     13  C   UNL     1      11.306   8.571  20.515  0.00  0.00    +0.130 C 
ATOM     14  C   UNL     1      14.533   9.084  19.046  0.00  0.00    +0.117 C 
ATOM     15  C   UNL     1      12.656  10.551  19.815  0.00  0.00    +0.027 A 
ATOM     16  C   UNL     1      13.008  11.836  19.979  0.00  0.00    +0.022 A 
ATOM     17  C   UNL     1      11.312  10.614  21.867  0.00  0.00    +0.259 A 
ATOM     18  C   UNL     1      15.114   7.965  21.255  0.00  0.00    +0.225 C 
ATOM     19  C   UNL     1      11.753  12.043  22.043  0.00  0.00    +0.047 A 
ATOM     20  C   UNL     1      12.552  12.587  21.113  0.00  0.00    +0.015 A 
ENDROOT
BRANCH  19  22
ATOM     22  C   UNL     1      11.329  12.833  23.210  0.00  0.00    -0.008 A 
ATOM     23  C   UNL     1      11.934  12.671  24.459  0.00  0.00    -0.026 A 
ATOM     24  C   UNL     1      10.298  13.764  23.057  0.00  0.00    +0.009 A 
ATOM     26  C   UNL     1      11.511  13.435  25.547  0.00  0.00    +0.005 A 
ATOM     27  C   UNL     1       9.875  14.527  24.145  0.00  0.00    +0.001 A 
ATOM     29  C   UNL     1      10.482  14.362  25.390  0.00  0.00    +0.000 A 
BRANCH  23  25
ATOM     25  C   UNL     1      13.039  11.686  24.665  0.00  0.00    +0.119 C 
BRANCH  25   8
ATOM      8  N   UNL     1      14.354  12.325  24.683  0.00  0.00    -0.304 NA
ATOM     30  C   UNL     1      14.988  12.156  25.990  0.00  0.00    +0.104 C 
ATOM     31  C   UNL     1      15.205  11.775  23.628  0.00  0.00    +0.104 C 
ENDBRANCH  25   8
ENDBRANCH  23  25
ENDBRANCH  19  22
BRANCH  18  21
ATOM     21  C   UNL     1      16.239   8.957  21.413  0.00  0.00    +0.165 C 
BRANCH  21   1
ATOM      1  S   UNL     1      17.786   8.039  21.388  0.00  0.00    -0.140 S 
BRANCH   1  28
ATOM     28  C   UNL     1      17.433   6.936  19.997  0.00  0.00    +0.189 C 
BRANCH  28  32
ATOM      5  O   UNL     1      19.449   5.807  20.681  0.00  0.00    -0.250 OA
ATOM     32  C   UNL     1      18.514   5.899  19.896  0.00  0.00    +0.315 C 
BRANCH  32   4
ATOM      4  O   UNL     1      18.337   5.057  18.846  0.00  0.00    -0.480 OA
ATOM     33  H   UNL     1      19.076   4.418  18.761  0.00  0.00    +0.295 HD
ENDBRANCH  32   4
ENDBRANCH  28  32
ENDBRANCH   1  28
ENDBRANCH  21   1
ENDBRANCH  18  21
TORSDOF 8
ENDMDL
MODEL 3
REMARK VINA RESULT:      -6.6      1.304      2.593
REMARK  Name = 11885248
REMARK  10 active torsions:
REMARK  status: ('A' for Active; 'I' for Inactive)
REMARK    1  A    between atoms: S_1  and  C_21
REMARK    2  A    between atoms: S_1  and  C_28
REMARK    3  A    between atoms: O_4  and  C_32
REMARK    4  A    between atoms: N_8  and  C_25
REMARK    5  A    between atoms: N_8  and  C_30
REMARK    6  A    between atoms: N_8  and  C_31
REMARK    7  A    between atoms: C_18  and  C_21
REMARK    8  A    between atoms: C_19  and  C_22
REMARK    9  A    between atoms: C_23  and  C_25
REMARK   10  A    between atoms: C_28  and  C_32
REMARK                            x       y       z     vdW  Elec       q    Type
REMARK                         _______ _______ _______ _____ _____    ______ ____
ROOT
ATOM      2  O   UNL     1      12.432   7.302   3.577  0.00  0.00    -0.267 OA
ATOM      3  O   UNL     1      12.417   6.992  -1.762  0.00  0.00    -0.275 OA
ATOM      6  N   UNL     1      13.161   5.000  -0.825  0.00  0.00    -0.300 N 
ATOM      7  N   UNL     1      12.916   5.388   2.334  0.00  0.00    -0.311 N 
ATOM      9  C   UNL     1      14.998   5.197   0.856  0.00  0.00    +0.027 C 
ATOM     10  C   UNL     1      13.418   3.318   0.990  0.00  0.00    +0.054 C 
ATOM     11  C   UNL     1      14.888   3.703   1.134  0.00  0.00    +0.018 C 
ATOM     12  C   UNL     1      14.506   5.517  -0.566  0.00  0.00    +0.113 C 
ATOM     13  C   UNL     1      14.207   5.959   1.925  0.00  0.00    +0.130 C 
ATOM     14  C   UNL     1      12.951   3.593  -0.454  0.00  0.00    +0.117 C 
ATOM     15  C   UNL     1      12.551   4.091   1.966  0.00  0.00    +0.027 A 
ATOM     16  C   UNL     1      11.424   3.547   2.450  0.00  0.00    +0.022 A 
ATOM     17  C   UNL     1      12.127   6.168   3.202  0.00  0.00    +0.259 A 
ATOM     18  C   UNL     1      12.220   5.812  -1.458  0.00  0.00    +0.225 C 
ATOM     19  C   UNL     1      10.850   5.543   3.699  0.00  0.00    +0.047 A 
ATOM     20  C   UNL     1      10.561   4.288   3.325  0.00  0.00    +0.015 A 
ENDROOT
BRANCH  19  22
ATOM     22  C   UNL     1       9.926   6.287   4.572  0.00  0.00    -0.008 A 
ATOM     23  C   UNL     1       9.029   7.224   4.054  0.00  0.00    -0.026 A 
ATOM     24  C   UNL     1       9.956   6.044   5.948  0.00  0.00    +0.009 A 
ATOM     26  C   UNL     1       8.166   7.913   4.907  0.00  0.00    +0.005 A 
ATOM     27  C   UNL     1       9.093   6.733   6.800  0.00  0.00    +0.001 A 
ATOM     29  C   UNL     1       8.199   7.668   6.279  0.00  0.00    +0.000 A 
BRANCH  23  25
ATOM     25  C   UNL     1       8.967   7.513   2.589  0.00  0.00    +0.119 C 
BRANCH  25   8
ATOM      8  N   UNL     1       8.877   8.946   2.310  0.00  0.00    -0.304 NA
ATOM     30  C   UNL     1      10.205   9.501   2.046  0.00  0.00    +0.104 C 
ATOM     31  C   UNL     1       7.986   9.192   1.177  0.00  0.00    +0.104 C 
ENDBRANCH  25   8
ENDBRANCH  23  25
ENDBRANCH  19  22
BRANCH  18  21
ATOM     21  C   UNL     1      10.886   5.183  -1.770  0.00  0.00    +0.165 C 
BRANCH  21   1
ATOM      1  S   UNL     1      10.903   4.693  -3.501  0.00  0.00    -0.140 S 
BRANCH   1  28
ATOM     28  C   UNL     1       9.258   3.947  -3.597  0.00  0.00    +0.189 C 
BRANCH  28  32
ATOM      5  O   UNL     1       9.501   1.596  -3.127  0.00  0.00    -0.250 OA
ATOM     32  C   UNL     1       9.389   2.494  -3.952  0.00  0.00    +0.315 C 
BRANCH  32   4
ATOM      4  O   UNL     1       9.354   2.275  -5.291  0.00  0.00    -0.480 OA
ATOM     33  H   UNL     1      10.214   1.949  -5.631  0.00  0.00    +0.295 HD
ENDBRANCH  32   4
ENDBRANCH  28  32
ENDBRANCH   1  28
ENDBRANCH  21   1
ENDBRANCH  18  21
TORSDOF 8
ENDMDL
MODEL 4
REMARK VINA RESULT:      -6.3      1.795      2.249
REMARK  Name = 11885248
REMARK  10 active torsions:
REMARK  status: ('A' for Active; 'I' for Inactive)
REMARK    1  A    between atoms: S_1  and  C_21
REMARK    2  A    between atoms: S_1  and  C_28
REMARK    3  A    between atoms: O_4  and  C_32
REMARK    4  A    between atoms: N_8  and  C_25
REMARK    5  A    between atoms: N_8  and  C_30
REMARK    6  A    between atoms: N_8  and  C_31
REMARK    7  A    between atoms: C_18  and  C_21
REMARK    8  A    between atoms: C_19  and  C_22
REMARK    9  A    between atoms: C_23  and  C_25
REMARK   10  A    between atoms: C_28  and  C_32
REMARK                            x       y       z     vdW  Elec       q    Type
REMARK                         _______ _______ _______ _____ _____    ______ ____
ROOT
ATOM      2  O   UNL     1      12.334   7.692   2.935  0.00  0.00    -0.267 OA
ATOM      3  O   UNL     1      12.845   6.268  -2.194  0.00  0.00    -0.275 OA
ATOM      6  N   UNL     1      13.385   4.496  -0.791  0.00  0.00    -0.300 N 
ATOM      7  N   UNL     1      12.840   5.547   2.174  0.00  0.00    -0.311 N 
ATOM      9  C   UNL     1      15.049   4.987   1.005  0.00  0.00    +0.027 C 
ATOM     10  C   UNL     1      13.367   3.226   1.348  0.00  0.00    +0.054 C 
ATOM     11  C   UNL     1      14.833   3.588   1.572  0.00  0.00    +0.018 C 
ATOM     12  C   UNL     1      14.722   5.016  -0.498  0.00  0.00    +0.113 C 
ATOM     13  C   UNL     1      14.194   5.980   1.801  0.00  0.00    +0.130 C 
ATOM     14  C   UNL     1      13.065   3.205  -0.164  0.00  0.00    +0.117 C 
ATOM     15  C   UNL     1      12.447   4.213   2.042  0.00  0.00    +0.027 A 
ATOM     16  C   UNL     1      11.250   3.816   2.501  0.00  0.00    +0.022 A 
ATOM     17  C   UNL     1      12.009   6.515   2.770  0.00  0.00    +0.259 A 
ATOM     18  C   UNL     1      12.557   5.185  -1.678  0.00  0.00    +0.225 C 
ATOM     19  C   UNL     1      10.657   6.047   3.241  0.00  0.00    +0.047 A 
ATOM     20  C   UNL     1      10.343   4.750   3.103  0.00  0.00    +0.015 A 
ENDROOT
BRANCH  19  22
ATOM     22  C   UNL     1       9.690   6.984   3.835  0.00  0.00    -0.008 A 
ATOM     23  C   UNL     1       9.616   7.178   5.217  0.00  0.00    -0.026 A 
ATOM     24  C   UNL     1       8.830   7.691   2.990  0.00  0.00    +0.009 A 
ATOM     26  C   UNL     1       8.688   8.074   5.750  0.00  0.00    +0.005 A 
ATOM     27  C   UNL     1       7.903   8.586   3.523  0.00  0.00    +0.001 A 
ATOM     29  C   UNL     1       7.832   8.777   4.903  0.00  0.00    +0.000 A 
BRANCH  23  25
ATOM     25  C   UNL     1      10.517   6.441   6.154  0.00  0.00    +0.119 C 
BRANCH  25   8
ATOM      8  N   UNL     1       9.771   5.643   7.126  0.00  0.00    -0.304 NA
ATOM     30  C   UNL     1       9.867   4.220   6.802  0.00  0.00    +0.104 C 
ATOM     31  C   UNL     1      10.267   5.892   8.480  0.00  0.00    +0.104 C 
ENDBRANCH  25   8
ENDBRANCH  23  25
ENDBRANCH  19  22
BRANCH  18  21
ATOM     21  C   UNL     1      11.230   4.545  -1.999  0.00  0.00    +0.165 C 
BRANCH  21   1
ATOM      1  S   UNL     1      10.007   5.220  -0.865  0.00  0.00    -0.140 S 
BRANCH   1  28
ATOM     28  C   UNL     1       9.237   6.426  -1.972  0.00  0.00    +0.189 C 
BRANCH  28  32
ATOM      5  O   UNL     1       8.528   8.477  -0.924  0.00  0.00    -0.250 OA
ATOM     32  C   UNL     1       9.428   7.807  -1.415  0.00  0.00    +0.315 C 
BRANCH  32   4
ATOM      4  O   UNL     1      10.714   8.234  -1.498  0.00  0.00    -0.480 OA
ATOM     33  H   UNL     1      10.773   9.156  -1.826  0.00  0.00    +0.295 HD
ENDBRANCH  32   4
ENDBRANCH  28  32
ENDBRANCH   1  28
ENDBRANCH  21   1
ENDBRANCH  18  21
TORSDOF 8
ENDMDL
MODEL 5
REMARK VINA RESULT:      -6.3     25.230     28.876
REMARK  Name = 11885248
REMARK  10 active torsions:
REMARK  status: ('A' for Active; 'I' for Inactive)
REMARK    1  A    between atoms: S_1  and  C_21
REMARK    2  A    between atoms: S_1  and  C_28
REMARK    3  A    between atoms: O_4  and  C_32
REMARK    4  A    between atoms: N_8  and  C_25
REMARK    5  A    between atoms: N_8  and  C_30
REMARK    6  A    between atoms: N_8  and  C_31
REMARK    7  A    between atoms: C_18  and  C_21
REMARK    8  A    between atoms: C_19  and  C_22
REMARK    9  A    between atoms: C_23  and  C_25
REMARK   10  A    between atoms: C_28  and  C_32
REMARK                            x       y       z     vdW  Elec       q    Type
REMARK                         _______ _______ _______ _____ _____    ______ ____
ROOT
ATOM      2  O   UNL     1      -5.740 -13.375  15.055  0.00  0.00    -0.267 OA
ATOM      3  O   UNL     1     -10.286 -10.714  15.983  0.00  0.00    -0.275 OA
ATOM      6  N   UNL     1      -9.075 -10.983  17.948  0.00  0.00    -0.300 N 
ATOM      7  N   UNL     1      -6.362 -12.435  17.097  0.00  0.00    -0.311 N 
ATOM      9  C   UNL     1      -8.336 -13.311  18.471  0.00  0.00    +0.027 C 
ATOM     10  C   UNL     1      -7.026 -11.401  19.295  0.00  0.00    +0.054 C 
ATOM     11  C   UNL     1      -7.557 -12.783  19.670  0.00  0.00    +0.018 C 
ATOM     12  C   UNL     1      -9.506 -12.371  18.131  0.00  0.00    +0.113 C 
ATOM     13  C   UNL     1      -7.373 -13.484  17.292  0.00  0.00    +0.130 C 
ATOM     14  C   UNL     1      -8.208 -10.453  19.010  0.00  0.00    +0.117 C 
ATOM     15  C   UNL     1      -6.120 -11.473  18.081  0.00  0.00    +0.027 A 
ATOM     16  C   UNL     1      -5.111 -10.600  17.935  0.00  0.00    +0.022 A 
ATOM     17  C   UNL     1      -5.581 -12.520  15.928  0.00  0.00    +0.259 A 
ATOM     18  C   UNL     1      -9.558 -10.249  16.864  0.00  0.00    +0.225 C 
ATOM     19  C   UNL     1      -4.480 -11.504  15.776  0.00  0.00    +0.047 A 
ATOM     20  C   UNL     1      -4.285 -10.615  16.762  0.00  0.00    +0.015 A 
ENDROOT
BRANCH  19  22
ATOM     22  C   UNL     1      -3.633 -11.471  14.571  0.00  0.00    -0.008 A 
ATOM     23  C   UNL     1      -4.011 -10.752  13.434  0.00  0.00    -0.026 A 
ATOM     24  C   UNL     1      -2.428 -12.177  14.575  0.00  0.00    +0.009 A 
ATOM     26  C   UNL     1      -3.188 -10.740  12.308  0.00  0.00    +0.005 A 
ATOM     27  C   UNL     1      -1.605 -12.165  13.448  0.00  0.00    +0.001 A 
ATOM     29  C   UNL     1      -1.985 -11.446  12.316  0.00  0.00    +0.000 A 
BRANCH  23  25
ATOM     25  C   UNL     1      -5.292  -9.984  13.391  0.00  0.00    +0.119 C 
BRANCH  25   8
ATOM      8  N   UNL     1      -6.057 -10.252  12.174  0.00  0.00    -0.304 NA
ATOM     30  C   UNL     1      -7.104 -11.241  12.435  0.00  0.00    +0.104 C 
ATOM     31  C   UNL     1      -6.642  -9.016  11.654  0.00  0.00    +0.104 C 
ENDBRANCH  25   8
ENDBRANCH  23  25
ENDBRANCH  19  22
BRANCH  18  21
ATOM     21  C   UNL     1      -9.140  -8.803  16.788  0.00  0.00    +0.165 C 
BRANCH  21   1
ATOM      1  S   UNL     1     -10.612  -7.795  17.024  0.00  0.00    -0.140 S 
BRANCH   1  28
ATOM     28  C   UNL     1     -10.342  -6.592  15.700  0.00  0.00    +0.189 C 
BRANCH  28  32
ATOM      5  O   UNL     1     -12.701  -6.152  15.929  0.00  0.00    -0.250 OA
ATOM     32  C   UNL     1     -11.651  -5.956  15.329  0.00  0.00    +0.315 C 
BRANCH  32   4
ATOM      4  O   UNL     1     -11.547  -5.124  14.263  0.00  0.00    -0.480 OA
ATOM     33  H   UNL     1     -11.139  -5.569  13.490  0.00  0.00    +0.295 HD
ENDBRANCH  32   4
ENDBRANCH  28  32
ENDBRANCH   1  28
ENDBRANCH  21   1
ENDBRANCH  18  21
TORSDOF 8
ENDMDL
MODEL 6
REMARK VINA RESULT:      -6.1     16.707     20.230
REMARK  Name = 11885248
REMARK  10 active torsions:
REMARK  status: ('A' for Active; 'I' for Inactive)
REMARK    1  A    between atoms: S_1  and  C_21
REMARK    2  A    between atoms: S_1  and  C_28
REMARK    3  A    between atoms: O_4  and  C_32
REMARK    4  A    between atoms: N_8  and  C_25
REMARK    5  A    between atoms: N_8  and  C_30
REMARK    6  A    between atoms: N_8  and  C_31
REMARK    7  A    between atoms: C_18  and  C_21
REMARK    8  A    between atoms: C_19  and  C_22
REMARK    9  A    between atoms: C_23  and  C_25
REMARK   10  A    between atoms: C_28  and  C_32
REMARK                            x       y       z     vdW  Elec       q    Type
REMARK                         _______ _______ _______ _____ _____    ______ ____
ROOT
ATOM      2  O   UNL     1      13.754  10.542  17.156  0.00  0.00    -0.267 OA
ATOM      3  O   UNL     1      10.579   7.830  20.498  0.00  0.00    -0.275 OA
ATOM      6  N   UNL     1      12.812   7.546  21.074  0.00  0.00    -0.300 N 
ATOM      7  N   UNL     1      14.464   9.381  19.050  0.00  0.00    -0.311 N 
ATOM      9  C   UNL     1      14.337   6.830  19.230  0.00  0.00    +0.027 C 
ATOM     10  C   UNL     1      15.226   8.144  21.108  0.00  0.00    +0.054 C 
ATOM     11  C   UNL     1      15.526   6.976  20.172  0.00  0.00    +0.018 C 
ATOM     12  C   UNL     1      13.050   6.551  20.025  0.00  0.00    +0.113 C 
ATOM     13  C   UNL     1      14.224   8.098  18.375  0.00  0.00    +0.130 C 
ATOM     14  C   UNL     1      13.966   7.830  21.939  0.00  0.00    +0.117 C 
ATOM     15  C   UNL     1      15.022   9.431  20.330  0.00  0.00    +0.027 A 
ATOM     16  C   UNL     1      15.345  10.613  20.878  0.00  0.00    +0.022 A 
ATOM     17  C   UNL     1      14.211  10.547  18.301  0.00  0.00    +0.259 A 
ATOM     18  C   UNL     1      11.535   8.083  21.236  0.00  0.00    +0.225 C 
ATOM     19  C   UNL     1      14.550  11.859  18.957  0.00  0.00    +0.047 A 
ATOM     20  C   UNL     1      15.099  11.842  20.181  0.00  0.00    +0.015 A 
ENDROOT
BRANCH  19  22
ATOM     22  C   UNL     1      14.282  13.140  18.283  0.00  0.00    -0.008 A 
ATOM     23  C   UNL     1      15.155  13.655  17.321  0.00  0.00    -0.026 A 
ATOM     24  C   UNL     1      13.127  13.851  18.621  0.00  0.00    +0.009 A 
ATOM     26  C   UNL     1      14.874  14.872  16.699  0.00  0.00    +0.005 A 
ATOM     27  C   UNL     1      12.847  15.068  18.000  0.00  0.00    +0.001 A 
ATOM     29  C   UNL     1      13.721  15.578  17.039  0.00  0.00    +0.000 A 
BRANCH  23  25
ATOM     25  C   UNL     1      16.400  12.925  16.933  0.00  0.00    +0.119 C 
BRANCH  25   8
ATOM      8  N   UNL     1      16.619  12.933  15.487  0.00  0.00    -0.304 NA
ATOM     30  C   UNL     1      17.989  13.344  15.178  0.00  0.00    +0.104 C 
ATOM     31  C   UNL     1      16.341  11.613  14.920  0.00  0.00    +0.104 C 
ENDBRANCH  25   8
ENDBRANCH  23  25
ENDBRANCH  19  22
BRANCH  18  21
ATOM     21  C   UNL     1      11.344   9.034  22.390  0.00  0.00    +0.165 C 
BRANCH  21   1
ATOM      1  S   UNL     1      11.621  10.702  21.776  0.00  0.00    -0.140 S 
BRANCH   1  28
ATOM     28  C   UNL     1      12.252  11.457  23.295  0.00  0.00    +0.189 C 
BRANCH  28  32
ATOM      5  O   UNL     1      10.152  12.164  24.243  0.00  0.00    -0.250 OA
ATOM     32  C   UNL     1      11.164  11.480  24.330  0.00  0.00    +0.315 C 
BRANCH  32   4
ATOM      4  O   UNL     1      11.412  10.645  25.370  0.00  0.00    -0.480 OA
ATOM     33  H   UNL     1      10.625  10.108  25.603  0.00  0.00    +0.295 HD
ENDBRANCH  32   4
ENDBRANCH  28  32
ENDBRANCH   1  28
ENDBRANCH  21   1
ENDBRANCH  18  21
TORSDOF 8
ENDMDL
MODEL 7
REMARK VINA RESULT:      -6.1     34.038     36.279
REMARK  Name = 11885248
REMARK  10 active torsions:
REMARK  status: ('A' for Active; 'I' for Inactive)
REMARK    1  A    between atoms: S_1  and  C_21
REMARK    2  A    between atoms: S_1  and  C_28
REMARK    3  A    between atoms: O_4  and  C_32
REMARK    4  A    between atoms: N_8  and  C_25
REMARK    5  A    between atoms: N_8  and  C_30
REMARK    6  A    between atoms: N_8  and  C_31
REMARK    7  A    between atoms: C_18  and  C_21
REMARK    8  A    between atoms: C_19  and  C_22
REMARK    9  A    between atoms: C_23  and  C_25
REMARK   10  A    between atoms: C_28  and  C_32
REMARK                            x       y       z     vdW  Elec       q    Type
REMARK                         _______ _______ _______ _____ _____    ______ ____
ROOT
ATOM      2  O   UNL     1       9.379  -9.501  32.920  0.00  0.00    -0.267 OA
ATOM      3  O   UNL     1       8.940  -7.485  37.854  0.00  0.00    -0.275 OA
ATOM      6  N   UNL     1       8.626  -5.826  36.257  0.00  0.00    -0.300 N 
ATOM      7  N   UNL     1       8.770  -7.310  33.433  0.00  0.00    -0.311 N 
ATOM      9  C   UNL     1      10.394  -5.644  34.502  0.00  0.00    +0.027 C 
ATOM     10  C   UNL     1       8.092  -4.949  33.991  0.00  0.00    +0.054 C 
ATOM     11  C   UNL     1       9.561  -4.586  33.788  0.00  0.00    +0.018 C 
ATOM     12  C   UNL     1      10.060  -5.670  36.004  0.00  0.00    +0.113 C 
ATOM     13  C   UNL     1      10.150  -7.001  33.832  0.00  0.00    +0.130 C 
ATOM     14  C   UNL     1       7.755  -4.919  35.495  0.00  0.00    +0.117 C 
ATOM     15  C   UNL     1       7.783  -6.321  33.422  0.00  0.00    +0.027 A 
ATOM     16  C   UNL     1       6.561  -6.596  32.940  0.00  0.00    +0.022 A 
ATOM     17  C   UNL     1       8.526  -8.613  32.959  0.00  0.00    +0.259 A 
ATOM     18  C   UNL     1       8.192  -6.732  37.225  0.00  0.00    +0.225 C 
ATOM     19  C   UNL     1       7.135  -8.900  32.458  0.00  0.00    +0.047 A 
ATOM     20  C   UNL     1       6.234  -7.906  32.456  0.00  0.00    +0.015 A 
ENDROOT
BRANCH  19  22
ATOM     22  C   UNL     1       6.757 -10.243  31.985  0.00  0.00    -0.008 A 
ATOM     23  C   UNL     1       6.272 -11.216  32.862  0.00  0.00    -0.026 A 
ATOM     24  C   UNL     1       6.891 -10.541  30.626  0.00  0.00    +0.009 A 
ATOM     26  C   UNL     1       5.922 -12.479  32.383  0.00  0.00    +0.005 A 
ATOM     27  C   UNL     1       6.542 -11.804  30.148  0.00  0.00    +0.001 A 
ATOM     29  C   UNL     1       6.057 -12.772  31.027  0.00  0.00    +0.000 A 
BRANCH  23  25
ATOM     25  C   UNL     1       6.114 -10.936  34.322  0.00  0.00    +0.119 C 
BRANCH  25   8
ATOM      8  N   UNL     1       4.714 -10.754  34.702  0.00  0.00    -0.304 NA
ATOM     30  C   UNL     1       4.310 -11.774  35.671  0.00  0.00    +0.104 C 
ATOM     31  C   UNL     1       4.503  -9.416  35.253  0.00  0.00    +0.104 C 
ENDBRANCH  25   8
ENDBRANCH  23  25
ENDBRANCH  19  22
BRANCH  18  21
ATOM     21  C   UNL     1       6.709  -6.775  37.493  0.00  0.00    +0.165 C 
BRANCH  21   1
ATOM      1  S   UNL     1       6.379  -5.728  38.918  0.00  0.00    -0.140 S 
BRANCH   1  28
ATOM     28  C   UNL     1       4.929  -4.848  38.287  0.00  0.00    +0.189 C 
BRANCH  28  32
ATOM      5  O   UNL     1       6.277  -2.858  38.113  0.00  0.00    -0.250 OA
ATOM     32  C   UNL     1       5.362  -3.546  37.678  0.00  0.00    +0.315 C 
BRANCH  32   4
ATOM      4  O   UNL     1       4.641  -3.215  36.577  0.00  0.00    -0.480 OA
ATOM     33  H   UNL     1       3.718  -3.542  36.633  0.00  0.00    +0.295 HD
ENDBRANCH  32   4
ENDBRANCH  28  32
ENDBRANCH   1  28
ENDBRANCH  21   1
ENDBRANCH  18  21
TORSDOF 8
ENDMDL
MODEL 8
REMARK VINA RESULT:      -6.1     27.157     29.629
REMARK  Name = 11885248
REMARK  10 active torsions:
REMARK  status: ('A' for Active; 'I' for Inactive)
REMARK    1  A    between atoms: S_1  and  C_21
REMARK    2  A    between atoms: S_1  and  C_28
REMARK    3  A    between atoms: O_4  and  C_32
REMARK    4  A    between atoms: N_8  and  C_25
REMARK    5  A    between atoms: N_8  and  C_30
REMARK    6  A    between atoms: N_8  and  C_31
REMARK    7  A    between atoms: C_18  and  C_21
REMARK    8  A    between atoms: C_19  and  C_22
REMARK    9  A    between atoms: C_23  and  C_25
REMARK   10  A    between atoms: C_28  and  C_32
REMARK                            x       y       z     vdW  Elec       q    Type
REMARK                         _______ _______ _______ _____ _____    ______ ____
ROOT
ATOM      2  O   UNL     1     -12.497  10.118  20.584  0.00  0.00    -0.267 OA
ATOM      3  O   UNL     1     -14.374  12.661  16.270  0.00  0.00    -0.275 OA
ATOM      6  N   UNL     1     -12.134  12.113  15.990  0.00  0.00    -0.300 N 
ATOM      7  N   UNL     1     -11.314  10.475  18.605  0.00  0.00    -0.311 N 
ATOM      9  C   UNL     1     -10.597  12.808  17.832  0.00  0.00    +0.027 C 
ATOM     10  C   UNL     1     -10.047  10.843  16.460  0.00  0.00    +0.054 C 
ATOM     11  C   UNL     1      -9.454  12.075  17.140  0.00  0.00    +0.018 C 
ATOM     12  C   UNL     1     -11.663  13.233  16.808  0.00  0.00    +0.113 C 
ATOM     13  C   UNL     1     -11.175  11.902  18.926  0.00  0.00    +0.130 C 
ATOM     14  C   UNL     1     -11.074  11.283  15.398  0.00  0.00    +0.117 C 
ATOM     15  C   UNL     1     -10.712   9.927  17.470  0.00  0.00    +0.027 A 
ATOM     16  C   UNL     1     -10.750   8.602  17.262  0.00  0.00    +0.022 A 
ATOM     17  C   UNL     1     -11.984   9.677  19.553  0.00  0.00    +0.259 A 
ATOM     18  C   UNL     1     -13.501  11.952  15.763  0.00  0.00    +0.225 C 
ATOM     19  C   UNL     1     -12.041   8.198  19.273  0.00  0.00    +0.047 A 
ATOM     20  C   UNL     1     -11.429   7.729  18.175  0.00  0.00    +0.015 A 
ENDROOT
BRANCH  19  22
ATOM     22  C   UNL     1     -12.757   7.278  20.172  0.00  0.00    -0.008 A 
ATOM     23  C   UNL     1     -14.151   7.182  20.159  0.00  0.00    -0.026 A 
ATOM     24  C   UNL     1     -12.017   6.488  21.057  0.00  0.00    +0.009 A 
ATOM     26  C   UNL     1     -14.801   6.301  21.023  0.00  0.00    +0.005 A 
ATOM     27  C   UNL     1     -12.667   5.608  21.921  0.00  0.00    +0.001 A 
ATOM     29  C   UNL     1     -14.059   5.515  21.904  0.00  0.00    +0.000 A 
BRANCH  23  25
ATOM     25  C   UNL     1     -14.977   8.010  19.228  0.00  0.00    +0.119 C 
BRANCH  25   8
ATOM      8  N   UNL     1     -16.375   7.581  19.200  0.00  0.00    -0.304 NA
ATOM     30  C   UNL     1     -17.257   8.687  19.574  0.00  0.00    +0.104 C 
ATOM     31  C   UNL     1     -16.728   7.073  17.875  0.00  0.00    +0.104 C 
ENDBRANCH  25   8
ENDBRANCH  23  25
ENDBRANCH  19  22
BRANCH  18  21
ATOM     21  C   UNL     1     -13.905  10.830  14.841  0.00  0.00    +0.165 C 
BRANCH  21   1
ATOM      1  S   UNL     1     -14.257   9.387  15.856  0.00  0.00    -0.140 S 
BRANCH   1  28
ATOM     28  C   UNL     1     -14.997   8.329  14.589  0.00  0.00    +0.189 C 
BRANCH  28  32
ATOM      5  O   UNL     1     -14.202   6.460  13.292  0.00  0.00    -0.250 OA
ATOM     32  C   UNL     1     -13.959   7.379  14.064  0.00  0.00    +0.315 C 
BRANCH  32   4
ATOM      4  O   UNL     1     -12.713   7.657  14.523  0.00  0.00    -0.480 OA
ATOM     33  H   UNL     1     -12.037   7.066  14.127  0.00  0.00    +0.295 HD
ENDBRANCH  32   4
ENDBRANCH  28  32
ENDBRANCH   1  28
ENDBRANCH  21   1
ENDBRANCH  18  21
TORSDOF 8
ENDMDL
MODEL 9
REMARK VINA RESULT:      -6.0     33.308     36.142
REMARK  Name = 11885248
REMARK  10 active torsions:
REMARK  status: ('A' for Active; 'I' for Inactive)
REMARK    1  A    between atoms: S_1  and  C_21
REMARK    2  A    between atoms: S_1  and  C_28
REMARK    3  A    between atoms: O_4  and  C_32
REMARK    4  A    between atoms: N_8  and  C_25
REMARK    5  A    between atoms: N_8  and  C_30
REMARK    6  A    between atoms: N_8  and  C_31
REMARK    7  A    between atoms: C_18  and  C_21
REMARK    8  A    between atoms: C_19  and  C_22
REMARK    9  A    between atoms: C_23  and  C_25
REMARK   10  A    between atoms: C_28  and  C_32
REMARK                            x       y       z     vdW  Elec       q    Type
REMARK                         _______ _______ _______ _____ _____    ______ ____
ROOT
ATOM      2  O   UNL     1       9.092 -11.948  31.923  0.00  0.00    -0.267 OA
ATOM      3  O   UNL     1       6.327 -10.427  36.241  0.00  0.00    -0.275 OA
ATOM      6  N   UNL     1       7.030  -8.578  35.022  0.00  0.00    -0.300 N 
ATOM      7  N   UNL     1       8.493  -9.754  32.439  0.00  0.00    -0.311 N 
ATOM      9  C   UNL     1       9.460  -8.500  34.451  0.00  0.00    +0.027 C 
ATOM     10  C   UNL     1       7.827  -7.388  32.988  0.00  0.00    +0.054 C 
ATOM     11  C   UNL     1       9.212  -7.250  33.615  0.00  0.00    +0.018 C 
ATOM     12  C   UNL     1       8.394  -8.632  35.552  0.00  0.00    +0.113 C 
ATOM     13  C   UNL     1       9.486  -9.719  33.522  0.00  0.00    +0.130 C 
ATOM     14  C   UNL     1       6.762  -7.464  34.100  0.00  0.00    +0.117 C 
ATOM     15  C   UNL     1       7.744  -8.622  32.110  0.00  0.00    +0.027 A 
ATOM     16  C   UNL     1       6.932  -8.640  31.041  0.00  0.00    +0.022 A 
ATOM     17  C   UNL     1       8.422 -10.941  31.686  0.00  0.00    +0.259 A 
ATOM     18  C   UNL     1       6.081  -9.500  35.466  0.00  0.00    +0.225 C 
ATOM     19  C   UNL     1       7.475 -10.942  30.515  0.00  0.00    +0.047 A 
ATOM     20  C   UNL     1       6.795  -9.820  30.237  0.00  0.00    +0.015 A 
ENDROOT
BRANCH  19  22
ATOM     22  C   UNL     1       7.286 -12.146  29.688  0.00  0.00    -0.008 A 
ATOM     23  C   UNL     1       6.339 -13.118  30.021  0.00  0.00    -0.026 A 
ATOM     24  C   UNL     1       8.076 -12.312  28.547  0.00  0.00    +0.009 A 
ATOM     26  C   UNL     1       6.183 -14.248  29.217  0.00  0.00    +0.005 A 
ATOM     27  C   UNL     1       7.920 -13.442  27.745  0.00  0.00    +0.001 A 
ATOM     29  C   UNL     1       6.974 -14.410  28.080  0.00  0.00    +0.000 A 
BRANCH  23  25
ATOM     25  C   UNL     1       5.475 -12.978  31.232  0.00  0.00    +0.119 C 
BRANCH  25   8
ATOM      8  N   UNL     1       5.893 -13.867  32.316  0.00  0.00    -0.304 NA
ATOM     30  C   UNL     1       6.175 -13.099  33.528  0.00  0.00    +0.104 C 
ATOM     31  C   UNL     1       4.863 -14.873  32.577  0.00  0.00    +0.104 C 
ENDBRANCH  25   8
ENDBRANCH  23  25
ENDBRANCH  19  22
BRANCH  18  21
ATOM     21  C   UNL     1       4.677  -9.329  34.943  0.00  0.00    +0.165 C 
BRANCH  21   1
ATOM      1  S   UNL     1       3.716 -10.752  35.479  0.00  0.00    -0.140 S 
BRANCH   1  28
ATOM     28  C   UNL     1       2.483  -9.892  36.486  0.00  0.00    +0.189 C 
BRANCH  28  32
ATOM      5  O   UNL     1       3.806  -9.967  38.499  0.00  0.00    -0.250 OA
ATOM     32  C   UNL     1       3.147  -9.312  37.701  0.00  0.00    +0.315 C 
BRANCH  32   4
ATOM      4  O   UNL     1       2.956  -7.973  37.815  0.00  0.00    -0.480 OA
ATOM     33  H   UNL     1       3.127  -7.505  36.971  0.00  0.00    +0.295 HD
ENDBRANCH  32   4
ENDBRANCH  28  32
ENDBRANCH   1  28
ENDBRANCH  21   1
ENDBRANCH  18  21
TORSDOF 8
ENDMDL
MODEL 10
REMARK VINA RESULT:      -6.0      3.298      7.919
REMARK  Name = 11885248
REMARK  10 active torsions:
REMARK  status: ('A' for Active; 'I' for Inactive)
REMARK    1  A    between atoms: S_1  and  C_21
REMARK    2  A    between atoms: S_1  and  C_28
REMARK    3  A    between atoms: O_4  and  C_32
REMARK    4  A    between atoms: N_8  and  C_25
REMARK    5  A    between atoms: N_8  and  C_30
REMARK    6  A    between atoms: N_8  and  C_31
REMARK    7  A    between atoms: C_18  and  C_21
REMARK    8  A    between atoms: C_19  and  C_22
REMARK    9  A    between atoms: C_23  and  C_25
REMARK   10  A    between atoms: C_28  and  C_32
REMARK                            x       y       z     vdW  Elec       q    Type
REMARK                         _______ _______ _______ _____ _____    ______ ____
ROOT
ATOM      2  O   UNL     1      10.399   6.841   0.949  0.00  0.00    -0.267 OA
ATOM      3  O   UNL     1      12.308   9.235   5.333  0.00  0.00    -0.275 OA
ATOM      6  N   UNL     1      10.732   7.624   5.897  0.00  0.00    -0.300 N 
ATOM      7  N   UNL     1       9.886   6.245   3.144  0.00  0.00    -0.311 N 
ATOM      9  C   UNL     1       8.542   7.766   4.705  0.00  0.00    +0.027 C 
ATOM     10  C   UNL     1       9.349   5.591   5.517  0.00  0.00    +0.054 C 
ATOM     11  C   UNL     1       8.107   6.466   5.371  0.00  0.00    +0.018 C 
ATOM     12  C   UNL     1       9.596   8.486   5.564  0.00  0.00    +0.113 C 
ATOM     13  C   UNL     1       9.061   7.452   3.297  0.00  0.00    +0.130 C 
ATOM     14  C   UNL     1      10.376   6.298   6.424  0.00  0.00    +0.117 C 
ATOM     15  C   UNL     1       9.974   5.296   4.166  0.00  0.00    +0.027 A 
ATOM     16  C   UNL     1      10.633   4.145   3.960  0.00  0.00    +0.022 A 
ATOM     17  C   UNL     1      10.484   6.044   1.885  0.00  0.00    +0.259 A 
ATOM     18  C   UNL     1      12.031   8.118   5.778  0.00  0.00    +0.225 C 
ATOM     19  C   UNL     1      11.247   4.760   1.697  0.00  0.00    +0.047 A 
ATOM     20  C   UNL     1      11.282   3.879   2.709  0.00  0.00    +0.015 A 
ENDROOT
BRANCH  19  22
ATOM     22  C   UNL     1      11.952   4.469   0.437  0.00  0.00    -0.008 A 
ATOM     23  C   UNL     1      13.273   4.874   0.230  0.00  0.00    -0.026 A 
ATOM     24  C   UNL     1      11.276   3.772  -0.568  0.00  0.00    +0.009 A 
ATOM     26  C   UNL     1      13.913   4.583  -0.975  0.00  0.00    +0.005 A 
ATOM     27  C   UNL     1      11.916   3.482  -1.772  0.00  0.00    +0.001 A 
ATOM     29  C   UNL     1      13.235   3.888  -1.975  0.00  0.00    +0.000 A 
BRANCH  23  25
ATOM     25  C   UNL     1      14.030   5.622   1.280  0.00  0.00    +0.119 C 
BRANCH  25   8
ATOM      8  N   UNL     1      14.376   6.977   0.853  0.00  0.00    -0.304 NA
ATOM     30  C   UNL     1      13.718   7.966   1.707  0.00  0.00    +0.104 C 
ATOM     31  C   UNL     1      15.826   7.166   0.876  0.00  0.00    +0.104 C 
ENDBRANCH  25   8
ENDBRANCH  23  25
ENDBRANCH  19  22
BRANCH  18  21
ATOM     21  C   UNL     1      13.145   7.204   6.221  0.00  0.00    +0.165 C 
BRANCH  21   1
ATOM      1  S   UNL     1      14.671   8.157   6.212  0.00  0.00    -0.140 S 
BRANCH   1  28
ATOM     28  C   UNL     1      15.503   7.337   4.830  0.00  0.00    +0.189 C 
BRANCH  28  32
ATOM      5  O   UNL     1      16.401   9.462   4.134  0.00  0.00    -0.250 OA
ATOM     32  C   UNL     1      16.548   8.253   4.262  0.00  0.00    +0.315 C 
BRANCH  32   4
ATOM      4  O   UNL     1      17.688   7.601   3.918  0.00  0.00    -0.480 OA
ATOM     33  H   UNL     1      17.643   7.243   3.006  0.00  0.00    +0.295 HD
ENDBRANCH  32   4
ENDBRANCH  28  32
ENDBRANCH   1  28
ENDBRANCH  21   1
ENDBRANCH  18  21
TORSDOF 8
ENDMDL
