MODEL 1
REMARK VINA RESULT:      -7.0      0.000      0.000
REMARK  Name = 75536401
REMARK  10 active torsions:
REMARK  status: ('A' for Active; 'I' for Inactive)
REMARK    1  A    between atoms: O_3  and  C_9
REMARK    2  A    between atoms: O_5  and  C_30
REMARK    3  A    between atoms: O_5  and  C_31
REMARK    4  A    between atoms: N_6  and  C_13
REMARK    5  A    between atoms: N_6  and  C_16
REMARK    6  A    between atoms: C_8  and  C_13
REMARK    7  A    between atoms: C_10  and  C_14
REMARK    8  A    between atoms: C_14  and  C_15
REMARK    9  A    between atoms: C_16  and  C_18
REMARK   10  A    between atoms: C_19  and  C_20
REMARK                            x       y       z     vdW  Elec       q    Type
REMARK                         _______ _______ _______ _____ _____    ______ ____
ROOT
ATOM      2  O   UNL     1      10.552   8.263  19.576  0.00  0.00    -0.369 OA
ATOM      8  C   UNL     1      10.685   8.163  21.000  0.00  0.00    +0.161 C 
ATOM      9  C   UNL     1      11.591   6.989  21.394  0.00  0.00    +0.145 C 
ATOM     10  C   UNL     1      11.782   8.366  18.855  0.00  0.00    +0.125 C 
ATOM     11  C   UNL     1      12.910   6.989  20.626  0.00  0.00    +0.036 C 
ATOM     12  C   UNL     1      12.670   7.153  19.128  0.00  0.00    +0.034 C 
ENDROOT
BRANCH   9   3
ATOM      3  O   UNL     1      10.914   5.765  21.098  0.00  0.00    -0.389 OA
ATOM     33  H   UNL     1      10.240   5.958  20.423  0.00  0.00    +0.210 HD
ENDBRANCH   9   3
BRANCH   8  13
ATOM     13  C   UNL     1      11.134   9.491  21.605  0.00  0.00    +0.115 C 
BRANCH  13   6
ATOM      6  N   UNL     1      11.997   9.271  22.756  0.00  0.00    -0.309 NA
ATOM     32  H   UNL     1      11.425   9.210  23.599  0.00  0.00    +0.122 HD
BRANCH   6  16
ATOM     16  C   UNL     1      12.949  10.363  22.912  0.00  0.00    +0.116 C 
BRANCH  16  18
ATOM      1 CL   UNL     1      17.188   7.685  21.487  0.00  0.00    -0.084 Cl
ATOM     18  C   UNL     1      14.128  10.214  21.988  0.00  0.00    -0.032 A 
ATOM     21  C   UNL     1      15.008   9.143  22.146  0.00  0.00    +0.025 A 
ATOM     22  C   UNL     1      14.342  11.148  20.973  0.00  0.00    +0.005 A 
ATOM     25  C   UNL     1      16.101   9.006  21.291  0.00  0.00    +0.041 A 
ATOM     26  C   UNL     1      15.435  11.010  20.118  0.00  0.00    +0.002 A 
ATOM     27  C   UNL     1      16.315   9.940  20.276  0.00  0.00    +0.020 A 
ENDBRANCH  16  18
ENDBRANCH   6  16
ENDBRANCH  13   6
ENDBRANCH   8  13
BRANCH  10  14
ATOM     14  C   UNL     1      11.439   8.465  17.373  0.00  0.00    +0.090 C 
BRANCH  14  15
ATOM      4  O   UNL     1      13.542  10.025  14.898  0.00  0.00    -0.354 OA
ATOM      7  N   UNL     1      12.454   9.245  15.273  0.00  0.00    -0.083 NA
ATOM     15  C   UNL     1      12.485   9.228  16.607  0.00  0.00    +0.087 A 
ATOM     17  C   UNL     1      13.559   9.972  17.126  0.00  0.00    +0.076 A 
ATOM     19  C   UNL     1      14.192  10.452  16.011  0.00  0.00    +0.167 A 
BRANCH  19  20
ATOM     20  C   UNL     1      15.342  11.276  15.781  0.00  0.00    +0.020 A 
ATOM     23  C   UNL     1      15.704  12.244  16.719  0.00  0.00    +0.015 A 
ATOM     24  C   UNL     1      16.101  11.109  14.623  0.00  0.00    +0.015 A 
ATOM     28  C   UNL     1      16.824  13.047  16.497  0.00  0.00    +0.046 A 
ATOM     29  C   UNL     1      17.221  11.911  14.401  0.00  0.00    +0.046 A 
ATOM     30  C   UNL     1      17.582  12.880  15.338  0.00  0.00    +0.120 A 
BRANCH  30   5
ATOM      5  O   UNL     1      18.676  13.659  15.122  0.00  0.00    -0.495 OA
ATOM     31  C   UNL     1      19.771  13.506  16.025  0.00  0.00    +0.277 C 
ENDBRANCH  30   5
ENDBRANCH  19  20
ENDBRANCH  14  15
ENDBRANCH  10  14
TORSDOF 9
ENDMDL
MODEL 2
REMARK VINA RESULT:      -6.9      2.859      3.668
REMARK  Name = 75536401
REMARK  10 active torsions:
REMARK  status: ('A' for Active; 'I' for Inactive)
REMARK    1  A    between atoms: O_3  and  C_9
REMARK    2  A    between atoms: O_5  and  C_30
REMARK    3  A    between atoms: O_5  and  C_31
REMARK    4  A    between atoms: N_6  and  C_13
REMARK    5  A    between atoms: N_6  and  C_16
REMARK    6  A    between atoms: C_8  and  C_13
REMARK    7  A    between atoms: C_10  and  C_14
REMARK    8  A    between atoms: C_14  and  C_15
REMARK    9  A    between atoms: C_16  and  C_18
REMARK   10  A    between atoms: C_19  and  C_20
REMARK                            x       y       z     vdW  Elec       q    Type
REMARK                         _______ _______ _______ _____ _____    ______ ____
ROOT
ATOM      2  O   UNL     1      10.584   8.418  19.698  0.00  0.00    -0.369 OA
ATOM      8  C   UNL     1      10.712   8.356  21.125  0.00  0.00    +0.161 C 
ATOM      9  C   UNL     1      11.497   7.111  21.559  0.00  0.00    +0.145 C 
ATOM     10  C   UNL     1      11.815   8.371  18.974  0.00  0.00    +0.125 C 
ATOM     11  C   UNL     1      12.806   6.951  20.791  0.00  0.00    +0.036 C 
ATOM     12  C   UNL     1      12.577   7.086  19.288  0.00  0.00    +0.034 C 
ENDROOT
BRANCH   9   3
ATOM      3  O   UNL     1      10.699   5.952  21.308  0.00  0.00    -0.389 OA
ATOM     33  H   UNL     1      10.065   6.178  20.606  0.00  0.00    +0.210 HD
ENDBRANCH   9   3
BRANCH   8  13
ATOM     13  C   UNL     1      11.295   9.653  21.682  0.00  0.00    +0.115 C 
BRANCH  13   6
ATOM      6  N   UNL     1      10.447  10.192  22.734  0.00  0.00    -0.309 NA
ATOM     32  H   UNL     1       9.838  10.911  22.341  0.00  0.00    +0.122 HD
BRANCH   6  16
ATOM     16  C   UNL     1      11.247  10.784  23.798  0.00  0.00    +0.116 C 
BRANCH  16  18
ATOM      1 CL   UNL     1      10.808  14.806  27.085  0.00  0.00    -0.084 Cl
ATOM     18  C   UNL     1      10.895  12.231  24.025  0.00  0.00    -0.032 A 
ATOM     21  C   UNL     1      11.003  12.784  25.301  0.00  0.00    +0.025 A 
ATOM     22  C   UNL     1      10.458  13.017  22.958  0.00  0.00    +0.005 A 
ATOM     25  C   UNL     1      10.676  14.123  25.511  0.00  0.00    +0.041 A 
ATOM     26  C   UNL     1      10.131  14.357  23.168  0.00  0.00    +0.002 A 
ATOM     27  C   UNL     1      10.239  14.910  24.444  0.00  0.00    +0.020 A 
ENDBRANCH  16  18
ENDBRANCH   6  16
ENDBRANCH  13   6
ENDBRANCH   8  13
BRANCH  10  14
ATOM     14  C   UNL     1      11.476   8.452  17.489  0.00  0.00    +0.090 C 
BRANCH  14  15
ATOM      4  O   UNL     1      13.623   9.926  14.999  0.00  0.00    -0.354 OA
ATOM      7  N   UNL     1      12.540   9.144  15.382  0.00  0.00    -0.083 NA
ATOM     15  C   UNL     1      12.531   9.196  16.716  0.00  0.00    +0.087 A 
ATOM     17  C   UNL     1      13.574   9.988  17.227  0.00  0.00    +0.076 A 
ATOM     19  C   UNL     1      14.231  10.423  16.107  0.00  0.00    +0.167 A 
BRANCH  19  20
ATOM     20  C   UNL     1      15.373  11.257  15.869  0.00  0.00    +0.020 A 
ATOM     23  C   UNL     1      15.775  12.180  16.835  0.00  0.00    +0.015 A 
ATOM     24  C   UNL     1      16.082  11.145  14.673  0.00  0.00    +0.015 A 
ATOM     28  C   UNL     1      16.886  12.993  16.604  0.00  0.00    +0.046 A 
ATOM     29  C   UNL     1      17.193  11.957  14.442  0.00  0.00    +0.046 A 
ATOM     30  C   UNL     1      17.594  12.881  15.408  0.00  0.00    +0.120 A 
BRANCH  30   5
ATOM      5  O   UNL     1      18.680  13.670  15.184  0.00  0.00    -0.495 OA
ATOM     31  C   UNL     1      19.203  13.694  13.857  0.00  0.00    +0.277 C 
ENDBRANCH  30   5
ENDBRANCH  19  20
ENDBRANCH  14  15
ENDBRANCH  10  14
TORSDOF 9
ENDMDL
MODEL 3
REMARK VINA RESULT:      -6.8     27.478     31.727
REMARK  Name = 75536401
REMARK  10 active torsions:
REMARK  status: ('A' for Active; 'I' for Inactive)
REMARK    1  A    between atoms: O_3  and  C_9
REMARK    2  A    between atoms: O_5  and  C_30
REMARK    3  A    between atoms: O_5  and  C_31
REMARK    4  A    between atoms: N_6  and  C_13
REMARK    5  A    between atoms: N_6  and  C_16
REMARK    6  A    between atoms: C_8  and  C_13
REMARK    7  A    between atoms: C_10  and  C_14
REMARK    8  A    between atoms: C_14  and  C_15
REMARK    9  A    between atoms: C_16  and  C_18
REMARK   10  A    between atoms: C_19  and  C_20
REMARK                            x       y       z     vdW  Elec       q    Type
REMARK                         _______ _______ _______ _____ _____    ______ ____
ROOT
ATOM      2  O   UNL     1     -16.053   2.418  24.316  0.00  0.00    -0.369 OA
ATOM      8  C   UNL     1     -16.165   3.514  23.399  0.00  0.00    +0.161 C 
ATOM      9  C   UNL     1     -17.536   3.525  22.709  0.00  0.00    +0.145 C 
ATOM     10  C   UNL     1     -17.073   2.352  25.314  0.00  0.00    +0.125 C 
ATOM     11  C   UNL     1     -18.688   3.401  23.702  0.00  0.00    +0.036 C 
ATOM     12  C   UNL     1     -18.453   2.244  24.669  0.00  0.00    +0.034 C 
ENDROOT
BRANCH   9   3
ATOM      3  O   UNL     1     -17.610   2.413  21.814  0.00  0.00    -0.389 OA
ATOM     33  H   UNL     1     -18.475   1.987  21.945  0.00  0.00    +0.210 HD
ENDBRANCH   9   3
BRANCH   8  13
ATOM     13  C   UNL     1     -15.830   4.838  24.080  0.00  0.00    +0.115 C 
BRANCH  13   6
ATOM      6  N   UNL     1     -14.438   5.199  23.857  0.00  0.00    -0.309 NA
ATOM     32  H   UNL     1     -14.304   6.183  24.089  0.00  0.00    +0.122 HD
BRANCH   6  16
ATOM     16  C   UNL     1     -14.062   4.988  22.465  0.00  0.00    +0.116 C 
BRANCH  16  18
ATOM      1 CL   UNL     1     -14.436  10.077  21.399  0.00  0.00    -0.084 Cl
ATOM     18  C   UNL     1     -13.456   6.225  21.855  0.00  0.00    -0.032 A 
ATOM     21  C   UNL     1     -14.145   7.437  21.904  0.00  0.00    +0.025 A 
ATOM     22  C   UNL     1     -12.206   6.158  21.240  0.00  0.00    +0.005 A 
ATOM     25  C   UNL     1     -13.585   8.581  21.339  0.00  0.00    +0.041 A 
ATOM     26  C   UNL     1     -11.646   7.303  20.674  0.00  0.00    +0.002 A 
ATOM     27  C   UNL     1     -12.335   8.515  20.723  0.00  0.00    +0.020 A 
ENDBRANCH  16  18
ENDBRANCH   6  16
ENDBRANCH  13   6
ENDBRANCH   8  13
BRANCH  10  14
ATOM     14  C   UNL     1     -16.784   1.136  26.186  0.00  0.00    +0.090 C 
BRANCH  14  15
ATOM      4  O   UNL     1     -15.619   1.297  29.593  0.00  0.00    -0.354 OA
ATOM      7  N   UNL     1     -16.078   0.600  28.481  0.00  0.00    -0.083 NA
ATOM     15  C   UNL     1     -16.278   1.532  27.547  0.00  0.00    +0.087 A 
ATOM     17  C   UNL     1     -15.965   2.823  28.005  0.00  0.00    +0.076 A 
ATOM     19  C   UNL     1     -15.556   2.620  29.297  0.00  0.00    +0.167 A 
BRANCH  19  20
ATOM     20  C   UNL     1     -15.093   3.472  30.352  0.00  0.00    +0.020 A 
ATOM     23  C   UNL     1     -13.951   3.128  31.076  0.00  0.00    +0.015 A 
ATOM     24  C   UNL     1     -15.783   4.646  30.656  0.00  0.00    +0.015 A 
ATOM     28  C   UNL     1     -13.499   3.957  32.103  0.00  0.00    +0.046 A 
ATOM     29  C   UNL     1     -15.331   5.476  31.682  0.00  0.00    +0.046 A 
ATOM     30  C   UNL     1     -14.190   5.130  32.406  0.00  0.00    +0.120 A 
BRANCH  30   5
ATOM      5  O   UNL     1     -13.747   5.942  33.405  0.00  0.00    -0.495 OA
ATOM     31  C   UNL     1     -14.176   5.632  34.731  0.00  0.00    +0.277 C 
ENDBRANCH  30   5
ENDBRANCH  19  20
ENDBRANCH  14  15
ENDBRANCH  10  14
TORSDOF 9
ENDMDL
MODEL 4
REMARK VINA RESULT:      -6.7      4.230      6.234
REMARK  Name = 75536401
REMARK  10 active torsions:
REMARK  status: ('A' for Active; 'I' for Inactive)
REMARK    1  A    between atoms: O_3  and  C_9
REMARK    2  A    between atoms: O_5  and  C_30
REMARK    3  A    between atoms: O_5  and  C_31
REMARK    4  A    between atoms: N_6  and  C_13
REMARK    5  A    between atoms: N_6  and  C_16
REMARK    6  A    between atoms: C_8  and  C_13
REMARK    7  A    between atoms: C_10  and  C_14
REMARK    8  A    between atoms: C_14  and  C_15
REMARK    9  A    between atoms: C_16  and  C_18
REMARK   10  A    between atoms: C_19  and  C_20
REMARK                            x       y       z     vdW  Elec       q    Type
REMARK                         _______ _______ _______ _____ _____    ______ ____
ROOT
ATOM      2  O   UNL     1      12.841  11.438  23.632  0.00  0.00    -0.369 OA
ATOM      8  C   UNL     1      11.624  11.042  24.277  0.00  0.00    +0.161 C 
ATOM      9  C   UNL     1      10.909  12.245  24.905  0.00  0.00    +0.145 C 
ATOM     10  C   UNL     1      12.701  12.460  22.643  0.00  0.00    +0.125 C 
ATOM     11  C   UNL     1      10.766  13.410  23.930  0.00  0.00    +0.036 C 
ATOM     12  C   UNL     1      12.098  13.723  23.254  0.00  0.00    +0.034 C 
ENDROOT
BRANCH   9   3
ATOM      3  O   UNL     1      11.672  12.703  26.023  0.00  0.00    -0.389 OA
ATOM     33  H   UNL     1      11.089  12.693  26.802  0.00  0.00    +0.210 HD
ENDBRANCH   9   3
BRANCH   8  13
ATOM     13  C   UNL     1      10.731  10.247  23.327  0.00  0.00    +0.115 C 
BRANCH  13   6
ATOM      6  N   UNL     1      11.300   8.935  23.057  0.00  0.00    -0.309 NA
ATOM     32  H   UNL     1      12.268   9.043  22.754  0.00  0.00    +0.122 HD
BRANCH   6  16
ATOM     16  C   UNL     1      10.553   8.247  22.011  0.00  0.00    +0.116 C 
BRANCH  16  18
ATOM      1 CL   UNL     1      11.544   8.948  16.942  0.00  0.00    -0.084 Cl
ATOM     18  C   UNL     1      11.415   7.948  20.813  0.00  0.00    -0.032 A 
ATOM     21  C   UNL     1      11.116   8.520  19.577  0.00  0.00    +0.025 A 
ATOM     22  C   UNL     1      12.513   7.096  20.940  0.00  0.00    +0.005 A 
ATOM     25  C   UNL     1      11.914   8.242  18.468  0.00  0.00    +0.041 A 
ATOM     26  C   UNL     1      13.311   6.817  19.830  0.00  0.00    +0.002 A 
ATOM     27  C   UNL     1      13.012   7.390  18.594  0.00  0.00    +0.020 A 
ENDBRANCH  16  18
ENDBRANCH   6  16
ENDBRANCH  13   6
ENDBRANCH   8  13
BRANCH  10  14
ATOM     14  C   UNL     1      14.087  12.741  22.074  0.00  0.00    +0.090 C 
BRANCH  14  15
ATOM      4  O   UNL     1      15.016   9.752  20.288  0.00  0.00    -0.354 OA
ATOM      7  N   UNL     1      14.176  10.834  20.522  0.00  0.00    -0.083 NA
ATOM     15  C   UNL     1      14.735  11.492  21.540  0.00  0.00    +0.087 A 
ATOM     17  C   UNL     1      15.918  10.878  21.987  0.00  0.00    +0.076 A 
ATOM     19  C   UNL     1      16.049   9.789  21.168  0.00  0.00    +0.167 A 
BRANCH  19  20
ATOM     20  C   UNL     1      17.007   8.729  21.047  0.00  0.00    +0.020 A 
ATOM     23  C   UNL     1      18.222   8.806  21.730  0.00  0.00    +0.015 A 
ATOM     24  C   UNL     1      16.726   7.621  20.248  0.00  0.00    +0.015 A 
ATOM     28  C   UNL     1      19.155   7.775  21.613  0.00  0.00    +0.046 A 
ATOM     29  C   UNL     1      17.658   6.590  20.131  0.00  0.00    +0.046 A 
ATOM     30  C   UNL     1      18.873   6.668  20.814  0.00  0.00    +0.120 A 
BRANCH  30   5
ATOM      5  O   UNL     1      19.780   5.660  20.702  0.00  0.00    -0.495 OA
ATOM     31  C   UNL     1      21.148   6.033  20.538  0.00  0.00    +0.277 C 
ENDBRANCH  30   5
ENDBRANCH  19  20
ENDBRANCH  14  15
ENDBRANCH  10  14
TORSDOF 9
ENDMDL
MODEL 5
REMARK VINA RESULT:      -6.6     24.762     27.922
REMARK  Name = 75536401
REMARK  10 active torsions:
REMARK  status: ('A' for Active; 'I' for Inactive)
REMARK    1  A    between atoms: O_3  and  C_9
REMARK    2  A    between atoms: O_5  and  C_30
REMARK    3  A    between atoms: O_5  and  C_31
REMARK    4  A    between atoms: N_6  and  C_13
REMARK    5  A    between atoms: N_6  and  C_16
REMARK    6  A    between atoms: C_8  and  C_13
REMARK    7  A    between atoms: C_10  and  C_14
REMARK    8  A    between atoms: C_14  and  C_15
REMARK    9  A    between atoms: C_16  and  C_18
REMARK   10  A    between atoms: C_19  and  C_20
REMARK                            x       y       z     vdW  Elec       q    Type
REMARK                         _______ _______ _______ _____ _____    ______ ____
ROOT
ATOM      2  O   UNL     1     -14.888   5.085  21.333  0.00  0.00    -0.369 OA
ATOM      8  C   UNL     1     -16.257   5.009  21.754  0.00  0.00    +0.161 C 
ATOM      9  C   UNL     1     -16.396   4.205  23.053  0.00  0.00    +0.145 C 
ATOM     10  C   UNL     1     -13.982   5.614  22.303  0.00  0.00    +0.125 C 
ATOM     11  C   UNL     1     -15.420   4.668  24.131  0.00  0.00    +0.036 C 
ATOM     12  C   UNL     1     -14.002   4.770  23.576  0.00  0.00    +0.034 C 
ENDROOT
BRANCH   9   3
ATOM      3  O   UNL     1     -16.120   2.830  22.776  0.00  0.00    -0.389 OA
ATOM     33  H   UNL     1     -16.551   2.608  21.933  0.00  0.00    +0.210 HD
ENDBRANCH   9   3
BRANCH   8  13
ATOM     13  C   UNL     1     -16.884   6.398  21.842  0.00  0.00    +0.115 C 
BRANCH  13   6
ATOM      6  N   UNL     1     -16.824   7.077  20.557  0.00  0.00    -0.309 NA
ATOM     32  H   UNL     1     -16.272   6.518  19.906  0.00  0.00    +0.122 HD
BRANCH   6  16
ATOM     16  C   UNL     1     -16.207   8.391  20.688  0.00  0.00    +0.116 C 
BRANCH  16  18
ATOM      1 CL   UNL     1     -14.194  12.181  17.729  0.00  0.00    -0.084 Cl
ATOM     18  C   UNL     1     -15.483   8.798  19.432  0.00  0.00    -0.032 A 
ATOM     21  C   UNL     1     -15.206  10.144  19.191  0.00  0.00    +0.025 A 
ATOM     22  C   UNL     1     -15.091   7.828  18.509  0.00  0.00    +0.005 A 
ATOM     25  C   UNL     1     -14.536  10.520  18.028  0.00  0.00    +0.041 A 
ATOM     26  C   UNL     1     -14.421   8.205  17.345  0.00  0.00    +0.002 A 
ATOM     27  C   UNL     1     -14.144   9.551  17.103  0.00  0.00    +0.020 A 
ENDBRANCH  16  18
ENDBRANCH   6  16
ENDBRANCH  13   6
ENDBRANCH   8  13
BRANCH  10  14
ATOM     14  C   UNL     1     -12.592   5.619  21.677  0.00  0.00    +0.090 C 
BRANCH  14  15
ATOM      4  O   UNL     1     -12.250   9.084  20.748  0.00  0.00    -0.354 OA
ATOM      7  N   UNL     1     -12.711   8.075  21.586  0.00  0.00    -0.083 NA
ATOM     15  C   UNL     1     -12.275   6.941  21.031  0.00  0.00    +0.087 A 
ATOM     17  C   UNL     1     -11.542   7.169  19.854  0.00  0.00    +0.076 A 
ATOM     19  C   UNL     1     -11.556   8.532  19.720  0.00  0.00    +0.167 A 
BRANCH  19  20
ATOM     20  C   UNL     1     -11.013   9.457  18.769  0.00  0.00    +0.020 A 
ATOM     23  C   UNL     1     -10.527   8.994  17.546  0.00  0.00    +0.015 A 
ATOM     24  C   UNL     1     -10.972  10.819  19.065  0.00  0.00    +0.015 A 
ATOM     28  C   UNL     1      -9.999   9.893  16.618  0.00  0.00    +0.046 A 
ATOM     29  C   UNL     1     -10.445  11.719  18.138  0.00  0.00    +0.046 A 
ATOM     30  C   UNL     1      -9.958  11.255  16.915  0.00  0.00    +0.120 A 
BRANCH  30   5
ATOM      5  O   UNL     1      -9.447  12.133  16.010  0.00  0.00    -0.495 OA
ATOM     31  C   UNL     1      -8.983  13.386  16.511  0.00  0.00    +0.277 C 
ENDBRANCH  30   5
ENDBRANCH  19  20
ENDBRANCH  14  15
ENDBRANCH  10  14
TORSDOF 9
ENDMDL
MODEL 6
REMARK VINA RESULT:      -6.3      3.562      6.024
REMARK  Name = 75536401
REMARK  10 active torsions:
REMARK  status: ('A' for Active; 'I' for Inactive)
REMARK    1  A    between atoms: O_3  and  C_9
REMARK    2  A    between atoms: O_5  and  C_30
REMARK    3  A    between atoms: O_5  and  C_31
REMARK    4  A    between atoms: N_6  and  C_13
REMARK    5  A    between atoms: N_6  and  C_16
REMARK    6  A    between atoms: C_8  and  C_13
REMARK    7  A    between atoms: C_10  and  C_14
REMARK    8  A    between atoms: C_14  and  C_15
REMARK    9  A    between atoms: C_16  and  C_18
REMARK   10  A    between atoms: C_19  and  C_20
REMARK                            x       y       z     vdW  Elec       q    Type
REMARK                         _______ _______ _______ _____ _____    ______ ____
ROOT
ATOM      2  O   UNL     1      12.978   8.537  20.718  0.00  0.00    -0.369 OA
ATOM      8  C   UNL     1      12.176   7.628  19.953  0.00  0.00    +0.161 C 
ATOM      9  C   UNL     1      11.301   6.756  20.863  0.00  0.00    +0.145 C 
ATOM     10  C   UNL     1      12.254   9.384  21.613  0.00  0.00    +0.125 C 
ATOM     11  C   UNL     1      10.531   7.579  21.892  0.00  0.00    +0.036 C 
ATOM     12  C   UNL     1      11.457   8.553  22.616  0.00  0.00    +0.034 C 
ENDROOT
BRANCH   9   3
ATOM      3  O   UNL     1      12.141   5.844  21.574  0.00  0.00    -0.389 OA
ATOM     33  H   UNL     1      13.009   5.841  21.135  0.00  0.00    +0.210 HD
ENDBRANCH   9   3
BRANCH   8  13
ATOM     13  C   UNL     1      11.373   8.368  18.885  0.00  0.00    +0.115 C 
BRANCH  13   6
ATOM      6  N   UNL     1      11.730   7.902  17.554  0.00  0.00    -0.309 NA
ATOM     32  H   UNL     1      11.358   6.962  17.415  0.00  0.00    +0.122 HD
BRANCH   6  16
ATOM     16  C   UNL     1      13.177   7.867  17.383  0.00  0.00    +0.116 C 
BRANCH  16  18
ATOM      1 CL   UNL     1      13.612  11.923  14.138  0.00  0.00    -0.084 Cl
ATOM     18  C   UNL     1      13.740   9.234  17.097  0.00  0.00    -0.032 A 
ATOM     21  C   UNL     1      13.449   9.871  15.891  0.00  0.00    +0.025 A 
ATOM     22  C   UNL     1      14.556   9.862  18.039  0.00  0.00    +0.005 A 
ATOM     25  C   UNL     1      13.971  11.136  15.627  0.00  0.00    +0.041 A 
ATOM     26  C   UNL     1      15.079  11.128  17.774  0.00  0.00    +0.002 A 
ATOM     27  C   UNL     1      14.787  11.765  16.568  0.00  0.00    +0.020 A 
ENDBRANCH  16  18
ENDBRANCH   6  16
ENDBRANCH  13   6
ENDBRANCH   8  13
BRANCH  10  14
ATOM     14  C   UNL     1      13.268  10.271  22.326  0.00  0.00    +0.090 C 
BRANCH  14  15
ATOM      4  O   UNL     1      16.661  10.315  21.114  0.00  0.00    -0.354 OA
ATOM      7  N   UNL     1      15.449  10.933  21.401  0.00  0.00    -0.083 NA
ATOM     15  C   UNL     1      14.677   9.964  21.898  0.00  0.00    +0.087 A 
ATOM     17  C   UNL     1      15.341   8.725  21.950  0.00  0.00    +0.076 A 
ATOM     19  C   UNL     1      16.583   9.001  21.445  0.00  0.00    +0.167 A 
BRANCH  19  20
ATOM     20  C   UNL     1      17.768   8.229  21.207  0.00  0.00    +0.020 A 
ATOM     23  C   UNL     1      19.017   8.742  21.557  0.00  0.00    +0.015 A 
ATOM     24  C   UNL     1      17.672   6.964  20.626  0.00  0.00    +0.015 A 
ATOM     28  C   UNL     1      20.170   7.991  21.327  0.00  0.00    +0.046 A 
ATOM     29  C   UNL     1      18.825   6.212  20.396  0.00  0.00    +0.046 A 
ATOM     30  C   UNL     1      20.073   6.727  20.746  0.00  0.00    +0.120 A 
BRANCH  30   5
ATOM      5  O   UNL     1      21.197   5.992  20.524  0.00  0.00    -0.495 OA
ATOM     31  C   UNL     1      21.103   4.583  20.727  0.00  0.00    +0.277 C 
ENDBRANCH  30   5
ENDBRANCH  19  20
ENDBRANCH  14  15
ENDBRANCH  10  14
TORSDOF 9
ENDMDL
MODEL 7
REMARK VINA RESULT:      -6.2     28.147     31.793
REMARK  Name = 75536401
REMARK  10 active torsions:
REMARK  status: ('A' for Active; 'I' for Inactive)
REMARK    1  A    between atoms: O_3  and  C_9
REMARK    2  A    between atoms: O_5  and  C_30
REMARK    3  A    between atoms: O_5  and  C_31
REMARK    4  A    between atoms: N_6  and  C_13
REMARK    5  A    between atoms: N_6  and  C_16
REMARK    6  A    between atoms: C_8  and  C_13
REMARK    7  A    between atoms: C_10  and  C_14
REMARK    8  A    between atoms: C_14  and  C_15
REMARK    9  A    between atoms: C_16  and  C_18
REMARK   10  A    between atoms: C_19  and  C_20
REMARK                            x       y       z     vdW  Elec       q    Type
REMARK                         _______ _______ _______ _____ _____    ______ ____
ROOT
ATOM      2  O   UNL     1      -5.101 -10.897  17.406  0.00  0.00    -0.369 OA
ATOM      8  C   UNL     1      -4.575 -10.275  16.226  0.00  0.00    +0.161 C 
ATOM      9  C   UNL     1      -3.481 -11.137  15.582  0.00  0.00    +0.145 C 
ATOM     10  C   UNL     1      -5.604 -12.222  17.222  0.00  0.00    +0.125 C 
ATOM     11  C   UNL     1      -3.916 -12.589  15.400  0.00  0.00    +0.036 C 
ATOM     12  C   UNL     1      -4.510 -13.146  16.690  0.00  0.00    +0.034 C 
ENDROOT
BRANCH   9   3
ATOM      3  O   UNL     1      -2.330 -11.129  16.429  0.00  0.00    -0.389 OA
ATOM     33  H   UNL     1      -1.583 -10.787  15.908  0.00  0.00    +0.210 HD
ENDBRANCH   9   3
BRANCH   8  13
ATOM     13  C   UNL     1      -5.693  -9.906  15.253  0.00  0.00    +0.115 C 
BRANCH  13   6
ATOM      6  N   UNL     1      -6.852  -9.393  15.967  0.00  0.00    -0.309 NA
ATOM     32  H   UNL     1      -6.718  -9.530  16.969  0.00  0.00    +0.122 HD
BRANCH   6  16
ATOM     16  C   UNL     1      -8.067 -10.086  15.556  0.00  0.00    +0.116 C 
BRANCH  16  18
ATOM      1 CL   UNL     1     -13.209  -9.353  15.113  0.00  0.00    -0.084 Cl
ATOM     18  C   UNL     1      -9.306  -9.350  15.993  0.00  0.00    -0.032 A 
ATOM     21  C   UNL     1     -10.540  -9.657  15.419  0.00  0.00    +0.025 A 
ATOM     22  C   UNL     1      -9.220  -8.361  16.973  0.00  0.00    +0.005 A 
ATOM     25  C   UNL     1     -11.686  -8.975  15.823  0.00  0.00    +0.041 A 
ATOM     26  C   UNL     1     -10.367  -7.679  17.378  0.00  0.00    +0.002 A 
ATOM     27  C   UNL     1     -11.601  -7.986  16.803  0.00  0.00    +0.020 A 
ENDBRANCH  16  18
ENDBRANCH   6  16
ENDBRANCH  13   6
ENDBRANCH   8  13
BRANCH  10  14
ATOM     14  C   UNL     1      -6.117 -12.709  18.573  0.00  0.00    +0.090 C 
BRANCH  14  15
ATOM      4  O   UNL     1      -8.756 -10.724  20.017  0.00  0.00    -0.354 OA
ATOM      7  N   UNL     1      -7.429 -11.130  19.929  0.00  0.00    -0.083 NA
ATOM     15  C   UNL     1      -7.411 -12.040  18.953  0.00  0.00    +0.087 A 
ATOM     17  C   UNL     1      -8.683 -12.250  18.393  0.00  0.00    +0.076 A 
ATOM     19  C   UNL     1      -9.493 -11.399  19.098  0.00  0.00    +0.167 A 
BRANCH  19  20
ATOM     20  C   UNL     1     -10.890 -11.083  19.068  0.00  0.00    +0.020 A 
ATOM     23  C   UNL     1     -11.400 -10.095  19.912  0.00  0.00    +0.015 A 
ATOM     24  C   UNL     1     -11.741 -11.759  18.194  0.00  0.00    +0.015 A 
ATOM     28  C   UNL     1     -12.761  -9.786  19.883  0.00  0.00    +0.046 A 
ATOM     29  C   UNL     1     -13.101 -11.450  18.164  0.00  0.00    +0.046 A 
ATOM     30  C   UNL     1     -13.610 -10.464  19.009  0.00  0.00    +0.120 A 
BRANCH  30   5
ATOM      5  O   UNL     1     -14.936 -10.160  18.977  0.00  0.00    -0.495 OA
ATOM     31  C   UNL     1     -15.324  -9.024  18.205  0.00  0.00    +0.277 C 
ENDBRANCH  30   5
ENDBRANCH  19  20
ENDBRANCH  14  15
ENDBRANCH  10  14
TORSDOF 9
ENDMDL
MODEL 8
REMARK VINA RESULT:      -6.2     13.881     16.841
REMARK  Name = 75536401
REMARK  10 active torsions:
REMARK  status: ('A' for Active; 'I' for Inactive)
REMARK    1  A    between atoms: O_3  and  C_9
REMARK    2  A    between atoms: O_5  and  C_30
REMARK    3  A    between atoms: O_5  and  C_31
REMARK    4  A    between atoms: N_6  and  C_13
REMARK    5  A    between atoms: N_6  and  C_16
REMARK    6  A    between atoms: C_8  and  C_13
REMARK    7  A    between atoms: C_10  and  C_14
REMARK    8  A    between atoms: C_14  and  C_15
REMARK    9  A    between atoms: C_16  and  C_18
REMARK   10  A    between atoms: C_19  and  C_20
REMARK                            x       y       z     vdW  Elec       q    Type
REMARK                         _______ _______ _______ _____ _____    ______ ____
ROOT
ATOM      2  O   UNL     1      11.441   6.126   6.714  0.00  0.00    -0.369 OA
ATOM      8  C   UNL     1      10.422   5.136   6.906  0.00  0.00    +0.161 C 
ATOM      9  C   UNL     1       9.523   5.486   8.100  0.00  0.00    +0.145 C 
ATOM     10  C   UNL     1      10.966   7.465   6.558  0.00  0.00    +0.125 C 
ATOM     11  C   UNL     1       9.015   6.924   8.043  0.00  0.00    +0.036 C 
ATOM     12  C   UNL     1      10.161   7.897   7.781  0.00  0.00    +0.034 C 
ENDROOT
BRANCH   9   3
ATOM      3  O   UNL     1      10.278   5.337   9.304  0.00  0.00    -0.389 OA
ATOM     33  H   UNL     1       9.752   4.793   9.915  0.00  0.00    +0.210 HD
ENDBRANCH   9   3
BRANCH   8  13
ATOM     13  C   UNL     1       9.637   4.896   5.619  0.00  0.00    +0.115 C 
BRANCH  13   6
ATOM      6  N   UNL     1      10.525   4.506   4.535  0.00  0.00    -0.309 NA
ATOM     32  H   UNL     1      11.481   4.779   4.768  0.00  0.00    +0.122 HD
BRANCH   6  16
ATOM     16  C   UNL     1      10.142   5.154   3.287  0.00  0.00    +0.116 C 
BRANCH  16  18
ATOM      1 CL   UNL     1      10.565   4.561  -1.875  0.00  0.00    -0.084 Cl
ATOM     18  C   UNL     1      10.902   4.598   2.111  0.00  0.00    -0.032 A 
ATOM     21  C   UNL     1      10.436   4.813   0.814  0.00  0.00    +0.025 A 
ATOM     22  C   UNL     1      12.073   3.868   2.321  0.00  0.00    +0.005 A 
ATOM     25  C   UNL     1      11.140   4.298  -0.274  0.00  0.00    +0.041 A 
ATOM     26  C   UNL     1      12.776   3.353   1.232  0.00  0.00    +0.002 A 
ATOM     27  C   UNL     1      12.311   3.567  -0.065  0.00  0.00    +0.020 A 
ENDBRANCH  16  18
ENDBRANCH   6  16
ENDBRANCH  13   6
ENDBRANCH   8  13
BRANCH  10  14
ATOM     14  C   UNL     1      12.183   8.362   6.364  0.00  0.00    +0.090 C 
BRANCH  14  15
ATOM      4  O   UNL     1      14.743   7.361   4.033  0.00  0.00    -0.354 OA
ATOM      7  N   UNL     1      14.309   7.720   5.304  0.00  0.00    -0.083 NA
ATOM     15  C   UNL     1      13.000   7.945   5.170  0.00  0.00    +0.087 A 
ATOM     17  C   UNL     1      12.555   7.745   3.852  0.00  0.00    +0.076 A 
ATOM     19  C   UNL     1      13.690   7.380   3.177  0.00  0.00    +0.167 A 
BRANCH  19  20
ATOM     20  C   UNL     1      13.985   7.026   1.820  0.00  0.00    +0.020 A 
ATOM     23  C   UNL     1      13.173   7.492   0.785  0.00  0.00    +0.015 A 
ATOM     24  C   UNL     1      15.084   6.217   1.532  0.00  0.00    +0.015 A 
ATOM     28  C   UNL     1      13.460   7.149  -0.536  0.00  0.00    +0.046 A 
ATOM     29  C   UNL     1      15.372   5.873   0.211  0.00  0.00    +0.046 A 
ATOM     30  C   UNL     1      14.559   6.339  -0.823  0.00  0.00    +0.120 A 
BRANCH  30   5
ATOM      5  O   UNL     1      14.841   6.007  -2.112  0.00  0.00    -0.495 OA
ATOM     31  C   UNL     1      15.411   4.719  -2.340  0.00  0.00    +0.277 C 
ENDBRANCH  30   5
ENDBRANCH  19  20
ENDBRANCH  14  15
ENDBRANCH  10  14
TORSDOF 9
ENDMDL
MODEL 9
REMARK VINA RESULT:      -6.2     27.112     30.603
REMARK  Name = 75536401
REMARK  10 active torsions:
REMARK  status: ('A' for Active; 'I' for Inactive)
REMARK    1  A    between atoms: O_3  and  C_9
REMARK    2  A    between atoms: O_5  and  C_30
REMARK    3  A    between atoms: O_5  and  C_31
REMARK    4  A    between atoms: N_6  and  C_13
REMARK    5  A    between atoms: N_6  and  C_16
REMARK    6  A    between atoms: C_8  and  C_13
REMARK    7  A    between atoms: C_10  and  C_14
REMARK    8  A    between atoms: C_14  and  C_15
REMARK    9  A    between atoms: C_16  and  C_18
REMARK   10  A    between atoms: C_19  and  C_20
REMARK                            x       y       z     vdW  Elec       q    Type
REMARK                         _______ _______ _______ _____ _____    ______ ____
ROOT
ATOM      2  O   UNL     1     -17.440   3.413  26.747  0.00  0.00    -0.369 OA
ATOM      8  C   UNL     1     -17.139   2.422  27.738  0.00  0.00    +0.161 C 
ATOM      9  C   UNL     1     -17.427   1.008  27.219  0.00  0.00    +0.145 C 
ATOM     10  C   UNL     1     -16.780   3.238  25.492  0.00  0.00    +0.125 C 
ATOM     11  C   UNL     1     -16.803   0.753  25.849  0.00  0.00    +0.036 C 
ATOM     12  C   UNL     1     -17.134   1.884  24.880  0.00  0.00    +0.034 C 
ENDROOT
BRANCH   9   3
ATOM      3  O   UNL     1     -18.842   0.843  27.092  0.00  0.00    -0.389 OA
ATOM     33  H   UNL     1     -19.221   1.712  26.876  0.00  0.00    +0.210 HD
ENDBRANCH   9   3
BRANCH   8  13
ATOM     13  C   UNL     1     -15.714   2.585  28.264  0.00  0.00    +0.115 C 
BRANCH  13   6
ATOM      6  N   UNL     1     -15.384   1.526  29.205  0.00  0.00    -0.309 NA
ATOM     32  H   UNL     1     -16.105   1.478  29.925  0.00  0.00    +0.122 HD
BRANCH   6  16
ATOM     16  C   UNL     1     -14.098   1.775  29.842  0.00  0.00    +0.116 C 
BRANCH  16  18
ATOM      1 CL   UNL     1     -13.892   5.823  33.119  0.00  0.00    -0.084 Cl
ATOM     18  C   UNL     1     -14.260   2.311  31.240  0.00  0.00    -0.032 A 
ATOM     21  C   UNL     1     -14.029   3.661  31.501  0.00  0.00    +0.025 A 
ATOM     22  C   UNL     1     -14.639   1.455  32.274  0.00  0.00    +0.005 A 
ATOM     25  C   UNL     1     -14.178   4.156  32.796  0.00  0.00    +0.041 A 
ATOM     26  C   UNL     1     -14.789   1.950  33.569  0.00  0.00    +0.002 A 
ATOM     27  C   UNL     1     -14.558   3.301  33.831  0.00  0.00    +0.020 A 
ENDBRANCH  16  18
ENDBRANCH   6  16
ENDBRANCH  13   6
ENDBRANCH   8  13
BRANCH  10  14
ATOM     14  C   UNL     1     -17.220   4.378  24.580  0.00  0.00    +0.090 C 
BRANCH  14  15
ATOM      4  O   UNL     1     -14.669   4.548  22.040  0.00  0.00    -0.354 OA
ATOM      7  N   UNL     1     -15.629   3.863  22.775  0.00  0.00    -0.083 NA
ATOM     15  C   UNL     1     -16.135   4.770  23.613  0.00  0.00    +0.087 A 
ATOM     17  C   UNL     1     -15.540   6.034  23.456  0.00  0.00    +0.076 A 
ATOM     19  C   UNL     1     -14.625   5.840  22.456  0.00  0.00    +0.167 A 
BRANCH  19  20
ATOM     20  C   UNL     1     -13.676   6.678  21.783  0.00  0.00    +0.020 A 
ATOM     23  C   UNL     1     -12.474   6.139  21.321  0.00  0.00    +0.015 A 
ATOM     24  C   UNL     1     -13.953   8.031  21.588  0.00  0.00    +0.015 A 
ATOM     28  C   UNL     1     -11.550   6.953  20.665  0.00  0.00    +0.046 A 
ATOM     29  C   UNL     1     -13.030   8.845  20.931  0.00  0.00    +0.046 A 
ATOM     30  C   UNL     1     -11.829   8.306  20.471  0.00  0.00    +0.120 A 
BRANCH  30   5
ATOM      5  O   UNL     1     -10.930   9.100  19.828  0.00  0.00    -0.495 OA
ATOM     31  C   UNL     1     -10.707   8.839  18.442  0.00  0.00    +0.277 C 
ENDBRANCH  30   5
ENDBRANCH  19  20
ENDBRANCH  14  15
ENDBRANCH  10  14
TORSDOF 9
ENDMDL
MODEL 10
REMARK VINA RESULT:      -6.2     26.503     30.833
REMARK  Name = 75536401
REMARK  10 active torsions:
REMARK  status: ('A' for Active; 'I' for Inactive)
REMARK    1  A    between atoms: O_3  and  C_9
REMARK    2  A    between atoms: O_5  and  C_30
REMARK    3  A    between atoms: O_5  and  C_31
REMARK    4  A    between atoms: N_6  and  C_13
REMARK    5  A    between atoms: N_6  and  C_16
REMARK    6  A    between atoms: C_8  and  C_13
REMARK    7  A    between atoms: C_10  and  C_14
REMARK    8  A    between atoms: C_14  and  C_15
REMARK    9  A    between atoms: C_16  and  C_18
REMARK   10  A    between atoms: C_19  and  C_20
REMARK                            x       y       z     vdW  Elec       q    Type
REMARK                         _______ _______ _______ _____ _____    ______ ____
ROOT
ATOM      2  O   UNL     1     -15.707   5.802  23.817  0.00  0.00    -0.369 OA
ATOM      8  C   UNL     1     -14.645   6.303  22.995  0.00  0.00    +0.161 C 
ATOM      9  C   UNL     1     -14.556   5.536  21.669  0.00  0.00    +0.145 C 
ATOM     10  C   UNL     1     -16.997   5.789  23.202  0.00  0.00    +0.125 C 
ATOM     11  C   UNL     1     -15.907   5.424  20.970  0.00  0.00    +0.036 C 
ATOM     12  C   UNL     1     -16.983   4.935  21.935  0.00  0.00    +0.034 C 
ENDROOT
BRANCH   9   3
ATOM      3  O   UNL     1     -14.091   4.210  21.935  0.00  0.00    -0.389 OA
ATOM     33  H   UNL     1     -14.754   3.590  21.585  0.00  0.00    +0.210 HD
ENDBRANCH   9   3
BRANCH   8  13
ATOM     13  C   UNL     1     -14.763   7.813  22.803  0.00  0.00    +0.115 C 
BRANCH  13   6
ATOM      6  N   UNL     1     -14.211   8.217  21.519  0.00  0.00    -0.309 NA
ATOM     32  H   UNL     1     -14.191   7.412  20.892  0.00  0.00    +0.122 HD
BRANCH   6  16
ATOM     16  C   UNL     1     -12.854   8.727  21.672  0.00  0.00    +0.116 C 
BRANCH  16  18
ATOM      1 CL   UNL     1      -9.998  11.110  18.020  0.00  0.00    -0.084 Cl
ATOM     18  C   UNL     1     -12.075   8.642  20.386  0.00  0.00    -0.032 A 
ATOM     21  C   UNL     1     -11.467   9.782  19.860  0.00  0.00    +0.025 A 
ATOM     22  C   UNL     1     -11.963   7.421  19.719  0.00  0.00    +0.005 A 
ATOM     25  C   UNL     1     -10.747   9.703  18.669  0.00  0.00    +0.041 A 
ATOM     26  C   UNL     1     -11.243   7.342  18.527  0.00  0.00    +0.002 A 
ATOM     27  C   UNL     1     -10.635   8.482  18.002  0.00  0.00    +0.020 A 
ENDBRANCH  16  18
ENDBRANCH   6  16
ENDBRANCH  13   6
ENDBRANCH   8  13
BRANCH  10  14
ATOM     14  C   UNL     1     -17.985   5.232  24.221  0.00  0.00    +0.090 C 
BRANCH  14  15
ATOM      4  O   UNL     1     -16.371   2.411  25.779  0.00  0.00    -0.354 OA
ATOM      7  N   UNL     1     -16.914   3.064  24.679  0.00  0.00    -0.083 NA
ATOM     15  C   UNL     1     -17.332   4.242  25.148  0.00  0.00    +0.087 A 
ATOM     17  C   UNL     1     -17.082   4.388  26.524  0.00  0.00    +0.076 A 
ATOM     19  C   UNL     1     -16.478   3.209  26.872  0.00  0.00    +0.167 A 
BRANCH  19  20
ATOM     20  C   UNL     1     -15.955   2.668  28.092  0.00  0.00    +0.020 A 
ATOM     23  C   UNL     1     -15.298   3.500  28.999  0.00  0.00    +0.015 A 
ATOM     24  C   UNL     1     -16.103   1.310  28.373  0.00  0.00    +0.015 A 
ATOM     28  C   UNL     1     -14.788   2.973  30.187  0.00  0.00    +0.046 A 
ATOM     29  C   UNL     1     -15.595   0.783  29.561  0.00  0.00    +0.046 A 
ATOM     30  C   UNL     1     -14.937   1.615  30.467  0.00  0.00    +0.120 A 
BRANCH  30   5
ATOM      5  O   UNL     1     -14.444   1.102  31.627  0.00  0.00    -0.495 OA
ATOM     31  C   UNL     1     -14.729   1.819  32.827  0.00  0.00    +0.277 C 
ENDBRANCH  30   5
ENDBRANCH  19  20
ENDBRANCH  14  15
ENDBRANCH  10  14
TORSDOF 9
ENDMDL
