MODEL 1
REMARK VINA RESULT:      -6.5      0.000      0.000
REMARK  Name = 11941211
REMARK  10 active torsions:
REMARK  status: ('A' for Active; 'I' for Inactive)
REMARK    1  A    between atoms: O_3  and  C_10
REMARK    2  A    between atoms: O_3  and  C_15
REMARK    3  A    between atoms: N_4  and  C_9
REMARK    4  A    between atoms: N_4  and  C_13
REMARK    5  A    between atoms: C_13  and  C_16
REMARK    6  A    between atoms: C_15  and  C_19
REMARK    7  A    between atoms: C_17  and  C_18
REMARK    8  A    between atoms: C_18  and  C_24
REMARK    9  A    between atoms: C_18  and  C_25
REMARK   10  A    between atoms: C_18  and  C_26
REMARK                            x       y       z     vdW  Elec       q    Type
REMARK                         _______ _______ _______ _____ _____    ______ ____
ROOT
ATOM      4  N   UNL     1     -16.899   5.127  22.511  0.00  0.00    -0.287 N 
ATOM      5  N   UNL     1     -15.066   6.371  21.738  0.00  0.00    -0.219 NA
ATOM      6  N   UNL     1     -16.765   7.392  23.108  0.00  0.00    -0.223 NA
ATOM     14  C   UNL     1     -16.215   6.347  22.450  0.00  0.00    +0.219 A 
ATOM     17  C   UNL     1     -14.434   7.563  21.699  0.00  0.00    +0.052 A 
ATOM     22  C   UNL     1     -16.080   8.553  23.028  0.00  0.00    +0.116 A 
ATOM     23  C   UNL     1     -14.898   8.698  22.331  0.00  0.00    +0.043 A 
ENDROOT
BRANCH   4   9
ATOM      1  O   UNL     1     -16.154   4.319  25.419  0.00  0.00    -0.369 OA
ATOM      2  O   UNL     1     -16.824   1.739  23.901  0.00  0.00    -0.369 OA
ATOM      7  C   UNL     1     -17.316   3.087  23.759  0.00  0.00    +0.172 C 
ATOM      8  C   UNL     1     -17.409   3.670  25.155  0.00  0.00    +0.180 C 
ATOM      9  C   UNL     1     -16.280   3.945  23.073  0.00  0.00    +0.133 C 
ATOM     10  C   UNL     1     -17.593   2.440  26.012  0.00  0.00    +0.175 C 
ATOM     11  C   UNL     1     -15.363   4.327  24.222  0.00  0.00    +0.185 C 
ATOM     12  C   UNL     1     -16.732   1.423  25.298  0.00  0.00    +0.194 C 
BRANCH  10   3
ATOM      3  O   UNL     1     -17.199   2.623  27.353  0.00  0.00    -0.367 OA
BRANCH   3  15
ATOM     15  C   UNL     1     -16.859   1.390  27.982  0.00  0.00    +0.195 C 
BRANCH  15  19
ATOM     19  C   UNL     1     -15.730   1.625  28.941  0.00  0.00    -0.022 A 
ATOM     27  C   UNL     1     -15.029   0.541  29.459  0.00  0.00    +0.006 A 
ATOM     28  C   UNL     1     -15.394   2.924  29.305  0.00  0.00    +0.006 A 
ATOM     32  C   UNL     1     -13.980   0.760  30.351  0.00  0.00    +0.000 A 
ATOM     33  C   UNL     1     -14.345   3.143  30.197  0.00  0.00    +0.000 A 
ATOM     34  C   UNL     1     -13.637   2.061  30.720  0.00  0.00    +0.000 A 
ENDBRANCH  15  19
ENDBRANCH   3  15
ENDBRANCH  10   3
ENDBRANCH   4   9
BRANCH  17  18
ATOM     18  C   UNL     1     -13.161   7.622  20.922  0.00  0.00    +0.005 C 
ATOM     24  C   UNL     1     -12.178   6.428  21.152  0.00  0.00    +0.017 C 
ATOM     25  C   UNL     1     -13.439   7.642  19.387  0.00  0.00    +0.017 C 
ATOM     26  C   UNL     1     -12.346   8.905  21.270  0.00  0.00    +0.017 C 
ENDBRANCH  17  18
BRANCH   4  13
ATOM     13  C   UNL     1     -18.271   5.026  22.017  0.00  0.00    +0.143 C 
BRANCH  13  16
ATOM     16  C   UNL     1     -18.328   5.350  20.550  0.00  0.00    -0.030 A 
ATOM     20  C   UNL     1     -17.628   4.562  19.645  0.00  0.00    +0.005 A 
ATOM     21  C   UNL     1     -19.081   6.435  20.116  0.00  0.00    +0.005 A 
ATOM     29  C   UNL     1     -17.681   4.863  18.284  0.00  0.00    +0.000 A 
ATOM     30  C   UNL     1     -19.134   6.735  18.755  0.00  0.00    +0.000 A 
ATOM     31  C   UNL     1     -18.435   5.950  17.839  0.00  0.00    +0.000 A 
ENDBRANCH  13  16
ENDBRANCH   4  13
TORSDOF 7
ENDMDL
MODEL 2
REMARK VINA RESULT:      -6.3     18.364     20.911
REMARK  Name = 11941211
REMARK  10 active torsions:
REMARK  status: ('A' for Active; 'I' for Inactive)
REMARK    1  A    between atoms: O_3  and  C_10
REMARK    2  A    between atoms: O_3  and  C_15
REMARK    3  A    between atoms: N_4  and  C_9
REMARK    4  A    between atoms: N_4  and  C_13
REMARK    5  A    between atoms: C_13  and  C_16
REMARK    6  A    between atoms: C_15  and  C_19
REMARK    7  A    between atoms: C_17  and  C_18
REMARK    8  A    between atoms: C_18  and  C_24
REMARK    9  A    between atoms: C_18  and  C_25
REMARK   10  A    between atoms: C_18  and  C_26
REMARK                            x       y       z     vdW  Elec       q    Type
REMARK                         _______ _______ _______ _____ _____    ______ ____
ROOT
ATOM      4  N   UNL     1      -7.888 -10.645  17.258  0.00  0.00    -0.287 N 
ATOM      5  N   UNL     1      -9.914 -10.364  16.110  0.00  0.00    -0.219 NA
ATOM      6  N   UNL     1      -8.715  -8.466  16.986  0.00  0.00    -0.223 NA
ATOM     14  C   UNL     1      -8.879  -9.790  16.764  0.00  0.00    +0.219 A 
ATOM     17  C   UNL     1     -10.852  -9.510  15.648  0.00  0.00    +0.052 A 
ATOM     22  C   UNL     1      -9.689  -7.671  16.497  0.00  0.00    +0.116 A 
ATOM     23  C   UNL     1     -10.791  -8.141  15.814  0.00  0.00    +0.043 A 
ENDROOT
BRANCH   4   9
ATOM      1  O   UNL     1      -5.650 -10.074  15.178  0.00  0.00    -0.369 OA
ATOM      2  O   UNL     1      -5.132 -12.872  16.324  0.00  0.00    -0.369 OA
ATOM      7  C   UNL     1      -5.727 -11.694  16.908  0.00  0.00    +0.172 C 
ATOM      8  C   UNL     1      -4.963 -10.502  16.365  0.00  0.00    +0.180 C 
ATOM      9  C   UNL     1      -7.127 -11.504  16.375  0.00  0.00    +0.133 C 
ATOM     10  C   UNL     1      -3.612 -11.097  16.045  0.00  0.00    +0.175 C 
ATOM     11  C   UNL     1      -6.878 -10.806  15.049  0.00  0.00    +0.185 C 
ATOM     12  C   UNL     1      -3.980 -12.482  15.563  0.00  0.00    +0.194 C 
BRANCH  10   3
ATOM      3  O   UNL     1      -2.892 -10.371  15.075  0.00  0.00    -0.367 OA
BRANCH   3  15
ATOM     15  C   UNL     1      -2.447 -11.203  14.007  0.00  0.00    +0.195 C 
BRANCH  15  19
ATOM     19  C   UNL     1      -2.711 -10.508  12.703  0.00  0.00    -0.022 A 
ATOM     27  C   UNL     1      -1.655  -9.935  12.003  0.00  0.00    +0.006 A 
ATOM     28  C   UNL     1      -4.008 -10.443  12.207  0.00  0.00    +0.006 A 
ATOM     32  C   UNL     1      -1.899  -9.289  10.792  0.00  0.00    +0.000 A 
ATOM     33  C   UNL     1      -4.253  -9.797  10.995  0.00  0.00    +0.000 A 
ATOM     34  C   UNL     1      -3.198  -9.220  10.287  0.00  0.00    +0.000 A 
ENDBRANCH  15  19
ENDBRANCH   3  15
ENDBRANCH  10   3
ENDBRANCH   4   9
BRANCH  17  18
ATOM     18  C   UNL     1     -12.007 -10.112  14.920  0.00  0.00    +0.005 C 
ATOM     24  C   UNL     1     -11.638 -10.940  13.646  0.00  0.00    +0.017 C 
ATOM     25  C   UNL     1     -12.804 -11.090  15.837  0.00  0.00    +0.017 C 
ATOM     26  C   UNL     1     -12.999  -9.013  14.428  0.00  0.00    +0.017 C 
ENDBRANCH  17  18
BRANCH   4  13
ATOM     13  C   UNL     1      -7.588 -10.678  18.689  0.00  0.00    +0.143 C 
BRANCH  13  16
ATOM     16  C   UNL     1      -8.527 -11.610  19.402  0.00  0.00    -0.030 A 
ATOM     20  C   UNL     1      -9.795 -11.168  19.758  0.00  0.00    +0.005 A 
ATOM     21  C   UNL     1      -8.116 -12.905  19.698  0.00  0.00    +0.005 A 
ATOM     29  C   UNL     1     -10.666 -12.034  20.420  0.00  0.00    +0.000 A 
ATOM     30  C   UNL     1      -8.987 -13.770  20.359  0.00  0.00    +0.000 A 
ATOM     31  C   UNL     1     -10.262 -13.335  20.720  0.00  0.00    +0.000 A 
ENDBRANCH  13  16
ENDBRANCH   4  13
TORSDOF 7
ENDMDL
MODEL 3
REMARK VINA RESULT:      -6.3     18.821     20.808
REMARK  Name = 11941211
REMARK  10 active torsions:
REMARK  status: ('A' for Active; 'I' for Inactive)
REMARK    1  A    between atoms: O_3  and  C_10
REMARK    2  A    between atoms: O_3  and  C_15
REMARK    3  A    between atoms: N_4  and  C_9
REMARK    4  A    between atoms: N_4  and  C_13
REMARK    5  A    between atoms: C_13  and  C_16
REMARK    6  A    between atoms: C_15  and  C_19
REMARK    7  A    between atoms: C_17  and  C_18
REMARK    8  A    between atoms: C_18  and  C_24
REMARK    9  A    between atoms: C_18  and  C_25
REMARK   10  A    between atoms: C_18  and  C_26
REMARK                            x       y       z     vdW  Elec       q    Type
REMARK                         _______ _______ _______ _____ _____    ______ ____
ROOT
ATOM      4  N   UNL     1      -5.610 -11.073  13.581  0.00  0.00    -0.287 N 
ATOM      5  N   UNL     1      -5.566 -10.304  11.366  0.00  0.00    -0.219 NA
ATOM      6  N   UNL     1      -6.542 -12.437  11.916  0.00  0.00    -0.223 NA
ATOM     14  C   UNL     1      -5.920 -11.280  12.232  0.00  0.00    +0.219 A 
ATOM     17  C   UNL     1      -5.879 -10.537  10.073  0.00  0.00    +0.052 A 
ATOM     22  C   UNL     1      -6.825 -12.605  10.607  0.00  0.00    +0.116 A 
ATOM     23  C   UNL     1      -6.513 -11.680   9.631  0.00  0.00    +0.043 A 
ENDROOT
BRANCH   4   9
ATOM      1  O   UNL     1      -8.500 -10.269  14.401  0.00  0.00    -0.369 OA
ATOM      2  O   UNL     1      -6.609  -9.194  16.564  0.00  0.00    -0.369 OA
ATOM      7  C   UNL     1      -6.526 -10.355  15.712  0.00  0.00    +0.172 C 
ATOM      8  C   UNL     1      -7.935 -10.894  15.565  0.00  0.00    +0.180 C 
ATOM      9  C   UNL     1      -6.145  -9.942  14.310  0.00  0.00    +0.133 C 
ATOM     10  C   UNL     1      -8.602 -10.416  16.834  0.00  0.00    +0.175 C 
ATOM     11  C   UNL     1      -7.480  -9.521  13.722  0.00  0.00    +0.185 C 
ATOM     12  C   UNL     1      -7.955  -9.066  17.044  0.00  0.00    +0.194 C 
BRANCH  10   3
ATOM      3  O   UNL     1     -10.005 -10.322  16.732  0.00  0.00    -0.367 OA
BRANCH   3  15
ATOM     15  C   UNL     1     -10.554  -9.452  17.718  0.00  0.00    +0.195 C 
BRANCH  15  19
ATOM     19  C   UNL     1     -11.383  -8.403  17.037  0.00  0.00    -0.022 A 
ATOM     27  C   UNL     1     -10.847  -7.140  16.812  0.00  0.00    +0.006 A 
ATOM     28  C   UNL     1     -12.681  -8.703  16.638  0.00  0.00    +0.006 A 
ATOM     32  C   UNL     1     -11.618  -6.165  16.179  0.00  0.00    +0.000 A 
ATOM     33  C   UNL     1     -13.452  -7.728  16.005  0.00  0.00    +0.000 A 
ATOM     34  C   UNL     1     -12.920  -6.459  15.775  0.00  0.00    +0.000 A 
ENDBRANCH  15  19
ENDBRANCH   3  15
ENDBRANCH  10   3
ENDBRANCH   4   9
BRANCH  17  18
ATOM     18  C   UNL     1      -5.503  -9.478   9.091  0.00  0.00    +0.005 C 
ATOM     24  C   UNL     1      -4.086  -8.848   9.295  0.00  0.00    +0.017 C 
ATOM     25  C   UNL     1      -5.506 -10.034   7.634  0.00  0.00    +0.017 C 
ATOM     26  C   UNL     1      -6.501  -8.281   9.141  0.00  0.00    +0.017 C 
ENDBRANCH  17  18
BRANCH   4  13
ATOM     13  C   UNL     1      -4.745 -12.013  14.292  0.00  0.00    +0.143 C 
BRANCH  13  16
ATOM     16  C   UNL     1      -3.462 -11.343  14.700  0.00  0.00    -0.030 A 
ATOM     20  C   UNL     1      -3.078 -11.350  16.034  0.00  0.00    +0.005 A 
ATOM     21  C   UNL     1      -2.675 -10.723  13.736  0.00  0.00    +0.005 A 
ATOM     29  C   UNL     1      -1.887 -10.728  16.412  0.00  0.00    +0.000 A 
ATOM     30  C   UNL     1      -1.485 -10.102  14.114  0.00  0.00    +0.000 A 
ATOM     31  C   UNL     1      -1.091 -10.104  15.451  0.00  0.00    +0.000 A 
ENDBRANCH  13  16
ENDBRANCH   4  13
TORSDOF 7
ENDMDL
MODEL 4
REMARK VINA RESULT:      -6.3     18.780     20.609
REMARK  Name = 11941211
REMARK  10 active torsions:
REMARK  status: ('A' for Active; 'I' for Inactive)
REMARK    1  A    between atoms: O_3  and  C_10
REMARK    2  A    between atoms: O_3  and  C_15
REMARK    3  A    between atoms: N_4  and  C_9
REMARK    4  A    between atoms: N_4  and  C_13
REMARK    5  A    between atoms: C_13  and  C_16
REMARK    6  A    between atoms: C_15  and  C_19
REMARK    7  A    between atoms: C_17  and  C_18
REMARK    8  A    between atoms: C_18  and  C_24
REMARK    9  A    between atoms: C_18  and  C_25
REMARK   10  A    between atoms: C_18  and  C_26
REMARK                            x       y       z     vdW  Elec       q    Type
REMARK                         _______ _______ _______ _____ _____    ______ ____
ROOT
ATOM      4  N   UNL     1      -5.907 -11.117  14.290  0.00  0.00    -0.287 N 
ATOM      5  N   UNL     1      -5.257 -10.335  12.176  0.00  0.00    -0.219 NA
ATOM      6  N   UNL     1      -6.227 -12.525  12.440  0.00  0.00    -0.223 NA
ATOM     14  C   UNL     1      -5.793 -11.335  12.912  0.00  0.00    +0.219 A 
ATOM     17  C   UNL     1      -5.161 -10.579  10.852  0.00  0.00    +0.052 A 
ATOM     22  C   UNL     1      -6.102 -12.702  11.108  0.00  0.00    +0.116 A 
ATOM     23  C   UNL     1      -5.571 -11.755  10.257  0.00  0.00    +0.043 A 
ENDROOT
BRANCH   4   9
ATOM      1  O   UNL     1      -8.921 -10.847  15.001  0.00  0.00    -0.369 OA
ATOM      2  O   UNL     1      -7.369  -9.013  16.908  0.00  0.00    -0.369 OA
ATOM      7  C   UNL     1      -7.009 -10.258  16.274  0.00  0.00    +0.172 C 
ATOM      8  C   UNL     1      -8.260 -11.114  16.248  0.00  0.00    +0.180 C 
ATOM      9  C   UNL     1      -6.696 -10.024  14.816  0.00  0.00    +0.133 C 
ATOM     10  C   UNL     1      -9.045 -10.581  17.423  0.00  0.00    +0.175 C 
ATOM     11  C   UNL     1      -8.077 -10.021  14.184  0.00  0.00    +0.185 C 
ATOM     12  C   UNL     1      -8.720  -9.106  17.381  0.00  0.00    +0.194 C 
BRANCH  10   3
ATOM      3  O   UNL     1     -10.431 -10.822  17.330  0.00  0.00    -0.367 OA
BRANCH   3  15
ATOM     15  C   UNL     1     -11.182  -9.611  17.291  0.00  0.00    +0.195 C 
BRANCH  15  19
ATOM     19  C   UNL     1     -12.231  -9.652  18.363  0.00  0.00    -0.022 A 
ATOM     27  C   UNL     1     -11.855  -9.845  19.687  0.00  0.00    +0.006 A 
ATOM     28  C   UNL     1     -13.570  -9.497  18.022  0.00  0.00    +0.006 A 
ATOM     32  C   UNL     1     -12.831  -9.883  20.684  0.00  0.00    +0.000 A 
ATOM     33  C   UNL     1     -14.546  -9.535  19.018  0.00  0.00    +0.000 A 
ATOM     34  C   UNL     1     -14.176  -9.728  20.349  0.00  0.00    +0.000 A 
ENDBRANCH  15  19
ENDBRANCH   3  15
ENDBRANCH  10   3
ENDBRANCH   4   9
BRANCH  17  18
ATOM     18  C   UNL     1      -4.575  -9.495  10.011  0.00  0.00    +0.005 C 
ATOM     24  C   UNL     1      -3.037  -9.268  10.185  0.00  0.00    +0.017 C 
ATOM     25  C   UNL     1      -4.784  -9.783   8.492  0.00  0.00    +0.017 C 
ATOM     26  C   UNL     1      -5.236  -8.117  10.324  0.00  0.00    +0.017 C 
ENDBRANCH  17  18
BRANCH   4  13
ATOM     13  C   UNL     1      -5.235 -12.008  15.235  0.00  0.00    +0.143 C 
BRANCH  13  16
ATOM     16  C   UNL     1      -3.761 -11.716  15.278  0.00  0.00    -0.030 A 
ATOM     20  C   UNL     1      -2.907 -12.364  14.396  0.00  0.00    +0.005 A 
ATOM     21  C   UNL     1      -3.270 -10.800  16.201  0.00  0.00    +0.005 A 
ATOM     29  C   UNL     1      -1.538 -12.092  14.437  0.00  0.00    +0.000 A 
ATOM     30  C   UNL     1      -1.903 -10.529  16.241  0.00  0.00    +0.000 A 
ATOM     31  C   UNL     1      -1.037 -11.175  15.360  0.00  0.00    +0.000 A 
ENDBRANCH  13  16
ENDBRANCH   4  13
TORSDOF 7
ENDMDL
MODEL 5
REMARK VINA RESULT:      -6.3     16.546     18.700
REMARK  Name = 11941211
REMARK  10 active torsions:
REMARK  status: ('A' for Active; 'I' for Inactive)
REMARK    1  A    between atoms: O_3  and  C_10
REMARK    2  A    between atoms: O_3  and  C_15
REMARK    3  A    between atoms: N_4  and  C_9
REMARK    4  A    between atoms: N_4  and  C_13
REMARK    5  A    between atoms: C_13  and  C_16
REMARK    6  A    between atoms: C_15  and  C_19
REMARK    7  A    between atoms: C_17  and  C_18
REMARK    8  A    between atoms: C_18  and  C_24
REMARK    9  A    between atoms: C_18  and  C_25
REMARK   10  A    between atoms: C_18  and  C_26
REMARK                            x       y       z     vdW  Elec       q    Type
REMARK                         _______ _______ _______ _____ _____    ______ ____
ROOT
ATOM      4  N   UNL     1     -10.427  -9.471  17.422  0.00  0.00    -0.287 N 
ATOM      5  N   UNL     1     -11.767  -8.745  15.639  0.00  0.00    -0.219 NA
ATOM      6  N   UNL     1     -10.699  -7.162  17.108  0.00  0.00    -0.223 NA
ATOM     14  C   UNL     1     -10.987  -8.416  16.693  0.00  0.00    +0.219 A 
ATOM     17  C   UNL     1     -12.292  -7.703  14.959  0.00  0.00    +0.052 A 
ATOM     22  C   UNL     1     -11.256  -6.169  16.383  0.00  0.00    +0.116 A 
ATOM     23  C   UNL     1     -12.069  -6.382  15.289  0.00  0.00    +0.043 A 
ENDROOT
BRANCH   4   9
ATOM      1  O   UNL     1      -7.415  -9.370  16.658  0.00  0.00    -0.369 OA
ATOM      2  O   UNL     1      -8.085 -12.287  17.331  0.00  0.00    -0.369 OA
ATOM      7  C   UNL     1      -8.623 -11.043  17.827  0.00  0.00    +0.172 C 
ATOM      8  C   UNL     1      -7.465 -10.068  17.913  0.00  0.00    +0.180 C 
ATOM      9  C   UNL     1      -9.541 -10.430  16.797  0.00  0.00    +0.133 C 
ATOM     10  C   UNL     1      -6.278 -10.985  18.089  0.00  0.00    +0.175 C 
ATOM     11  C   UNL     1      -8.565  -9.721  15.874  0.00  0.00    +0.185 C 
ATOM     12  C   UNL     1      -6.659 -12.169  17.230  0.00  0.00    +0.194 C 
BRANCH  10   3
ATOM      3  O   UNL     1      -5.056 -10.408  17.687  0.00  0.00    -0.367 OA
BRANCH   3  15
ATOM     15  C   UNL     1      -4.065 -11.396  17.414  0.00  0.00    +0.195 C 
BRANCH  15  19
ATOM     19  C   UNL     1      -3.299 -10.993  16.187  0.00  0.00    -0.022 A 
ATOM     27  C   UNL     1      -3.933 -10.991  14.950  0.00  0.00    +0.006 A 
ATOM     28  C   UNL     1      -1.962 -10.626  16.300  0.00  0.00    +0.006 A 
ATOM     32  C   UNL     1      -3.221 -10.617  13.810  0.00  0.00    +0.000 A 
ATOM     33  C   UNL     1      -1.251 -10.252  15.160  0.00  0.00    +0.000 A 
ATOM     34  C   UNL     1      -1.880 -10.247  13.915  0.00  0.00    +0.000 A 
ENDBRANCH  15  19
ENDBRANCH   3  15
ENDBRANCH  10   3
ENDBRANCH   4   9
BRANCH  17  18
ATOM     18  C   UNL     1     -13.157  -8.033  13.790  0.00  0.00    +0.005 C 
ATOM     24  C   UNL     1     -14.480  -7.206  13.680  0.00  0.00    +0.017 C 
ATOM     25  C   UNL     1     -12.404  -7.794  12.445  0.00  0.00    +0.017 C 
ATOM     26  C   UNL     1     -13.604  -9.528  13.821  0.00  0.00    +0.017 C 
ENDBRANCH  17  18
BRANCH   4  13
ATOM     13  C   UNL     1     -10.717  -9.618  18.848  0.00  0.00    +0.143 C 
BRANCH  13  16
ATOM     16  C   UNL     1     -12.105 -10.160  19.049  0.00  0.00    -0.030 A 
ATOM     20  C   UNL     1     -12.910  -9.632  20.050  0.00  0.00    +0.005 A 
ATOM     21  C   UNL     1     -12.567 -11.184  18.231  0.00  0.00    +0.005 A 
ATOM     29  C   UNL     1     -14.198 -10.135  20.237  0.00  0.00    +0.000 A 
ATOM     30  C   UNL     1     -13.854 -11.687  18.417  0.00  0.00    +0.000 A 
ATOM     31  C   UNL     1     -14.670 -11.163  19.420  0.00  0.00    +0.000 A 
ENDBRANCH  13  16
ENDBRANCH   4  13
TORSDOF 7
ENDMDL
MODEL 6
REMARK VINA RESULT:      -6.2     32.532     36.516
REMARK  Name = 11941211
REMARK  10 active torsions:
REMARK  status: ('A' for Active; 'I' for Inactive)
REMARK    1  A    between atoms: O_3  and  C_10
REMARK    2  A    between atoms: O_3  and  C_15
REMARK    3  A    between atoms: N_4  and  C_9
REMARK    4  A    between atoms: N_4  and  C_13
REMARK    5  A    between atoms: C_13  and  C_16
REMARK    6  A    between atoms: C_15  and  C_19
REMARK    7  A    between atoms: C_17  and  C_18
REMARK    8  A    between atoms: C_18  and  C_24
REMARK    9  A    between atoms: C_18  and  C_25
REMARK   10  A    between atoms: C_18  and  C_26
REMARK                            x       y       z     vdW  Elec       q    Type
REMARK                         _______ _______ _______ _____ _____    ______ ____
ROOT
ATOM      4  N   UNL     1      12.000   4.094  -1.075  0.00  0.00    -0.287 N 
ATOM      5  N   UNL     1      11.114   4.588  -3.190  0.00  0.00    -0.219 NA
ATOM      6  N   UNL     1      10.680   2.468  -2.132  0.00  0.00    -0.223 NA
ATOM     14  C   UNL     1      11.233   3.701  -2.177  0.00  0.00    +0.219 A 
ATOM     17  C   UNL     1      10.368   4.176  -4.237  0.00  0.00    +0.052 A 
ATOM     22  C   UNL     1       9.947   2.120  -3.210  0.00  0.00    +0.116 A 
ATOM     23  C   UNL     1       9.755   2.941  -4.303  0.00  0.00    +0.043 A 
ENDROOT
BRANCH   4   9
ATOM      1  O   UNL     1       9.855   4.589   1.120  0.00  0.00    -0.369 OA
ATOM      2  O   UNL     1      12.239   6.413   1.751  0.00  0.00    -0.369 OA
ATOM      7  C   UNL     1      12.166   5.118   1.120  0.00  0.00    +0.172 C 
ATOM      8  C   UNL     1      11.077   4.342   1.833  0.00  0.00    +0.180 C 
ATOM      9  C   UNL     1      11.649   5.260  -0.292  0.00  0.00    +0.133 C 
ATOM     10  C   UNL     1      11.064   4.980   3.202  0.00  0.00    +0.175 C 
ATOM     11  C   UNL     1      10.146   5.319  -0.082  0.00  0.00    +0.185 C 
ATOM     12  C   UNL     1      11.354   6.428   2.881  0.00  0.00    +0.194 C 
BRANCH  10   3
ATOM      3  O   UNL     1       9.841   4.822   3.885  0.00  0.00    -0.367 OA
BRANCH   3  15
ATOM     15  C   UNL     1      10.028   4.304   5.200  0.00  0.00    +0.195 C 
BRANCH  15  19
ATOM     19  C   UNL     1       9.588   5.333   6.199  0.00  0.00    -0.022 A 
ATOM     27  C   UNL     1       9.898   5.164   7.544  0.00  0.00    +0.006 A 
ATOM     28  C   UNL     1       8.874   6.447   5.771  0.00  0.00    +0.006 A 
ATOM     32  C   UNL     1       9.489   6.121   8.472  0.00  0.00    +0.000 A 
ATOM     33  C   UNL     1       8.465   7.404   6.700  0.00  0.00    +0.000 A 
ATOM     34  C   UNL     1       8.773   7.242   8.050  0.00  0.00    +0.000 A 
ENDBRANCH  15  19
ENDBRANCH   3  15
ENDBRANCH  10   3
ENDBRANCH   4   9
BRANCH  17  18
ATOM     18  C   UNL     1      10.217   5.133  -5.372  0.00  0.00    +0.005 C 
ATOM     24  C   UNL     1      10.086   4.481  -6.787  0.00  0.00    +0.017 C 
ATOM     25  C   UNL     1       8.942   6.015  -5.199  0.00  0.00    +0.017 C 
ATOM     26  C   UNL     1      11.443   6.092  -5.469  0.00  0.00    +0.017 C 
ENDBRANCH  17  18
BRANCH   4  13
ATOM     13  C   UNL     1      13.175   3.319  -0.681  0.00  0.00    +0.143 C 
BRANCH  13  16
ATOM     16  C   UNL     1      14.425   3.928  -1.254  0.00  0.00    -0.030 A 
ATOM     20  C   UNL     1      14.413   4.425  -2.551  0.00  0.00    +0.005 A 
ATOM     21  C   UNL     1      15.577   3.987  -0.480  0.00  0.00    +0.005 A 
ATOM     29  C   UNL     1      15.573   4.990  -3.083  0.00  0.00    +0.000 A 
ATOM     30  C   UNL     1      16.736   4.552  -1.012  0.00  0.00    +0.000 A 
ATOM     31  C   UNL     1      16.734   5.054  -2.313  0.00  0.00    +0.000 A 
ENDBRANCH  13  16
ENDBRANCH   4  13
TORSDOF 7
ENDMDL
MODEL 7
REMARK VINA RESULT:      -6.1      6.007      8.624
REMARK  Name = 11941211
REMARK  10 active torsions:
REMARK  status: ('A' for Active; 'I' for Inactive)
REMARK    1  A    between atoms: O_3  and  C_10
REMARK    2  A    between atoms: O_3  and  C_15
REMARK    3  A    between atoms: N_4  and  C_9
REMARK    4  A    between atoms: N_4  and  C_13
REMARK    5  A    between atoms: C_13  and  C_16
REMARK    6  A    between atoms: C_15  and  C_19
REMARK    7  A    between atoms: C_17  and  C_18
REMARK    8  A    between atoms: C_18  and  C_24
REMARK    9  A    between atoms: C_18  and  C_25
REMARK   10  A    between atoms: C_18  and  C_26
REMARK                            x       y       z     vdW  Elec       q    Type
REMARK                         _______ _______ _______ _____ _____    ______ ____
ROOT
ATOM      4  N   UNL     1     -11.498   8.309  18.584  0.00  0.00    -0.287 N 
ATOM      5  N   UNL     1     -12.793   8.681  16.664  0.00  0.00    -0.219 NA
ATOM      6  N   UNL     1     -10.458   8.117  16.491  0.00  0.00    -0.223 NA
ATOM     14  C   UNL     1     -11.587   8.371  17.189  0.00  0.00    +0.219 A 
ATOM     17  C   UNL     1     -12.843   8.733  15.316  0.00  0.00    +0.052 A 
ATOM     22  C   UNL     1     -10.578   8.186  15.148  0.00  0.00    +0.116 A 
ATOM     23  C   UNL     1     -11.757   8.493  14.500  0.00  0.00    +0.043 A 
ENDROOT
BRANCH   4   9
ATOM      1  O   UNL     1     -12.463   8.292  21.540  0.00  0.00    -0.369 OA
ATOM      2  O   UNL     1     -14.608   6.864  19.875  0.00  0.00    -0.369 OA
ATOM      7  C   UNL     1     -13.695   7.932  19.546  0.00  0.00    +0.172 C 
ATOM      8  C   UNL     1     -13.573   8.801  20.782  0.00  0.00    +0.180 C 
ATOM      9  C   UNL     1     -12.304   7.380  19.348  0.00  0.00    +0.133 C 
ATOM     10  C   UNL     1     -14.888   8.558  21.484  0.00  0.00    +0.175 C 
ATOM     11  C   UNL     1     -11.787   7.284  20.773  0.00  0.00    +0.185 C 
ATOM     12  C   UNL     1     -15.144   7.099  21.185  0.00  0.00    +0.194 C 
BRANCH  10   3
ATOM      3  O   UNL     1     -14.843   8.817  22.869  0.00  0.00    -0.367 OA
BRANCH   3  15
ATOM     15  C   UNL     1     -14.817  10.214  23.149  0.00  0.00    +0.195 C 
BRANCH  15  19
ATOM     19  C   UNL     1     -13.683  10.504  24.089  0.00  0.00    -0.022 A 
ATOM     27  C   UNL     1     -12.528  11.110  23.608  0.00  0.00    +0.006 A 
ATOM     28  C   UNL     1     -13.797  10.162  25.432  0.00  0.00    +0.006 A 
ATOM     32  C   UNL     1     -11.474  11.379  24.481  0.00  0.00    +0.000 A 
ATOM     33  C   UNL     1     -12.743  10.430  26.305  0.00  0.00    +0.000 A 
ATOM     34  C   UNL     1     -11.581  11.039  25.830  0.00  0.00    +0.000 A 
ENDBRANCH  15  19
ENDBRANCH   3  15
ENDBRANCH  10   3
ENDBRANCH   4   9
BRANCH  17  18
ATOM     18  C   UNL     1     -14.161   9.072  14.706  0.00  0.00    +0.005 C 
ATOM     24  C   UNL     1     -14.971  10.192  15.438  0.00  0.00    +0.017 C 
ATOM     25  C   UNL     1     -13.991   9.573  13.238  0.00  0.00    +0.017 C 
ATOM     26  C   UNL     1     -15.105   7.830  14.674  0.00  0.00    +0.017 C 
ENDBRANCH  17  18
BRANCH   4  13
ATOM     13  C   UNL     1     -10.571   9.181  19.304  0.00  0.00    +0.143 C 
BRANCH  13  16
ATOM     16  C   UNL     1     -10.818  10.621  18.949  0.00  0.00    -0.030 A 
ATOM     20  C   UNL     1     -11.842  11.316  19.579  0.00  0.00    +0.005 A 
ATOM     21  C   UNL     1     -10.019  11.240  17.995  0.00  0.00    +0.005 A 
ATOM     29  C   UNL     1     -12.072  12.653  19.250  0.00  0.00    +0.000 A 
ATOM     30  C   UNL     1     -10.248  12.575  17.667  0.00  0.00    +0.000 A 
ATOM     31  C   UNL     1     -11.274  13.282  18.294  0.00  0.00    +0.000 A 
ENDBRANCH  13  16
ENDBRANCH   4  13
TORSDOF 7
ENDMDL
MODEL 8
REMARK VINA RESULT:      -6.1     20.076     22.733
REMARK  Name = 11941211
REMARK  10 active torsions:
REMARK  status: ('A' for Active; 'I' for Inactive)
REMARK    1  A    between atoms: O_3  and  C_10
REMARK    2  A    between atoms: O_3  and  C_15
REMARK    3  A    between atoms: N_4  and  C_9
REMARK    4  A    between atoms: N_4  and  C_13
REMARK    5  A    between atoms: C_13  and  C_16
REMARK    6  A    between atoms: C_15  and  C_19
REMARK    7  A    between atoms: C_17  and  C_18
REMARK    8  A    between atoms: C_18  and  C_24
REMARK    9  A    between atoms: C_18  and  C_25
REMARK   10  A    between atoms: C_18  and  C_26
REMARK                            x       y       z     vdW  Elec       q    Type
REMARK                         _______ _______ _______ _____ _____    ______ ____
ROOT
ATOM      4  N   UNL     1      -6.138 -11.400  16.474  0.00  0.00    -0.287 N 
ATOM      5  N   UNL     1      -7.279 -13.450  16.505  0.00  0.00    -0.219 NA
ATOM      6  N   UNL     1      -7.769 -11.786  14.832  0.00  0.00    -0.223 NA
ATOM     14  C   UNL     1      -7.101 -12.247  15.913  0.00  0.00    +0.219 A 
ATOM     17  C   UNL     1      -8.216 -14.240  15.939  0.00  0.00    +0.052 A 
ATOM     22  C   UNL     1      -8.690 -12.627  14.318  0.00  0.00    +0.116 A 
ATOM     23  C   UNL     1      -8.960 -13.878  14.835  0.00  0.00    +0.043 A 
ENDROOT
BRANCH   4   9
ATOM      1  O   UNL     1      -4.050 -12.257  14.335  0.00  0.00    -0.369 OA
ATOM      2  O   UNL     1      -2.515 -10.868  16.599  0.00  0.00    -0.369 OA
ATOM      7  C   UNL     1      -3.852 -10.677  16.092  0.00  0.00    +0.172 C 
ATOM      8  C   UNL     1      -3.784 -10.868  14.590  0.00  0.00    +0.180 C 
ATOM      9  C   UNL     1      -4.748 -11.797  16.563  0.00  0.00    +0.133 C 
ATOM     10  C   UNL     1      -2.350 -10.509  14.279  0.00  0.00    +0.175 C 
ATOM     11  C   UNL     1      -4.450 -12.896  15.557  0.00  0.00    +0.185 C 
ATOM     12  C   UNL     1      -1.619 -11.038  15.491  0.00  0.00    +0.194 C 
BRANCH  10   3
ATOM      3  O   UNL     1      -1.873 -11.077  13.081  0.00  0.00    -0.367 OA
BRANCH   3  15
ATOM     15  C   UNL     1      -1.684 -10.096  12.064  0.00  0.00    +0.195 C 
BRANCH  15  19
ATOM     19  C   UNL     1      -2.724 -10.288  11.000  0.00  0.00    -0.022 A 
ATOM     27  C   UNL     1      -3.128  -9.204  10.228  0.00  0.00    +0.006 A 
ATOM     28  C   UNL     1      -3.275 -11.548  10.794  0.00  0.00    +0.006 A 
ATOM     32  C   UNL     1      -4.096  -9.382   9.239  0.00  0.00    +0.000 A 
ATOM     33  C   UNL     1      -4.243 -11.726   9.805  0.00  0.00    +0.000 A 
ATOM     34  C   UNL     1      -4.653 -10.643   9.027  0.00  0.00    +0.000 A 
ENDBRANCH  15  19
ENDBRANCH   3  15
ENDBRANCH  10   3
ENDBRANCH   4   9
BRANCH  17  18
ATOM     18  C   UNL     1      -8.436 -15.575  16.568  0.00  0.00    +0.005 C 
ATOM     24  C   UNL     1      -8.991 -15.544  18.030  0.00  0.00    +0.017 C 
ATOM     25  C   UNL     1      -9.460 -16.421  15.752  0.00  0.00    +0.017 C 
ATOM     26  C   UNL     1      -7.107 -16.389  16.646  0.00  0.00    +0.017 C 
ENDBRANCH  17  18
BRANCH   4  13
ATOM     13  C   UNL     1      -6.517 -10.079  16.971  0.00  0.00    +0.143 C 
BRANCH  13  16
ATOM     16  C   UNL     1      -7.798 -10.159  17.755  0.00  0.00    -0.030 A 
ATOM     20  C   UNL     1      -7.854 -10.944  18.899  0.00  0.00    +0.005 A 
ATOM     21  C   UNL     1      -8.911  -9.446  17.325  0.00  0.00    +0.005 A 
ATOM     29  C   UNL     1      -9.043 -11.019  19.627  0.00  0.00    +0.000 A 
ATOM     30  C   UNL     1     -10.098  -9.520  18.053  0.00  0.00    +0.000 A 
ATOM     31  C   UNL     1     -10.165 -10.306  19.203  0.00  0.00    +0.000 A 
ENDBRANCH  13  16
ENDBRANCH   4  13
TORSDOF 7
ENDMDL
MODEL 9
REMARK VINA RESULT:      -6.1      5.034      7.815
REMARK  Name = 11941211
REMARK  10 active torsions:
REMARK  status: ('A' for Active; 'I' for Inactive)
REMARK    1  A    between atoms: O_3  and  C_10
REMARK    2  A    between atoms: O_3  and  C_15
REMARK    3  A    between atoms: N_4  and  C_9
REMARK    4  A    between atoms: N_4  and  C_13
REMARK    5  A    between atoms: C_13  and  C_16
REMARK    6  A    between atoms: C_15  and  C_19
REMARK    7  A    between atoms: C_17  and  C_18
REMARK    8  A    between atoms: C_18  and  C_24
REMARK    9  A    between atoms: C_18  and  C_25
REMARK   10  A    between atoms: C_18  and  C_26
REMARK                            x       y       z     vdW  Elec       q    Type
REMARK                         _______ _______ _______ _____ _____    ______ ____
ROOT
ATOM      4  N   UNL     1     -13.474   8.261  20.850  0.00  0.00    -0.287 N 
ATOM      5  N   UNL     1     -15.311   7.410  19.666  0.00  0.00    -0.219 NA
ATOM      6  N   UNL     1     -14.524   6.331  21.671  0.00  0.00    -0.223 NA
ATOM     14  C   UNL     1     -14.478   7.295  20.724  0.00  0.00    +0.219 A 
ATOM     17  C   UNL     1     -16.266   6.460  19.575  0.00  0.00    +0.052 A 
ATOM     22  C   UNL     1     -15.504   5.415  21.519  0.00  0.00    +0.116 A 
ATOM     23  C   UNL     1     -16.412   5.430  20.481  0.00  0.00    +0.043 A 
ENDROOT
BRANCH   4   9
ATOM      1  O   UNL     1     -15.060   9.857  22.995  0.00  0.00    -0.369 OA
ATOM      2  O   UNL     1     -12.903  11.731  21.879  0.00  0.00    -0.369 OA
ATOM      7  C   UNL     1     -12.930  10.299  22.052  0.00  0.00    +0.172 C 
ATOM      8  C   UNL     1     -13.676  10.027  23.343  0.00  0.00    +0.180 C 
ATOM      9  C   UNL     1     -13.796   9.666  20.989  0.00  0.00    +0.133 C 
ATOM     10  C   UNL     1     -13.449  11.298  24.126  0.00  0.00    +0.175 C 
ATOM     11  C   UNL     1     -15.191   9.831  21.566  0.00  0.00    +0.185 C 
ATOM     12  C   UNL     1     -13.473  12.350  23.041  0.00  0.00    +0.194 C 
BRANCH  10   3
ATOM      3  O   UNL     1     -14.426  11.532  25.115  0.00  0.00    -0.367 OA
BRANCH   3  15
ATOM     15  C   UNL     1     -14.374  10.559  26.156  0.00  0.00    +0.195 C 
BRANCH  15  19
ATOM     19  C   UNL     1     -13.150  10.801  26.990  0.00  0.00    -0.022 A 
ATOM     27  C   UNL     1     -13.042  11.971  27.733  0.00  0.00    +0.006 A 
ATOM     28  C   UNL     1     -12.134   9.852  27.013  0.00  0.00    +0.006 A 
ATOM     32  C   UNL     1     -11.905  12.196  28.508  0.00  0.00    +0.000 A 
ATOM     33  C   UNL     1     -10.996  10.076  27.788  0.00  0.00    +0.000 A 
ATOM     34  C   UNL     1     -10.882  11.248  28.536  0.00  0.00    +0.000 A 
ENDBRANCH  15  19
ENDBRANCH   3  15
ENDBRANCH  10   3
ENDBRANCH   4   9
BRANCH  17  18
ATOM     18  C   UNL     1     -17.203   6.560  18.418  0.00  0.00    +0.005 C 
ATOM     24  C   UNL     1     -18.542   7.316  18.702  0.00  0.00    +0.017 C 
ATOM     25  C   UNL     1     -16.545   7.314  17.222  0.00  0.00    +0.017 C 
ATOM     26  C   UNL     1     -17.625   5.147  17.909  0.00  0.00    +0.017 C 
ENDBRANCH  17  18
BRANCH   4  13
ATOM     13  C   UNL     1     -12.066   7.866  20.858  0.00  0.00    +0.143 C 
BRANCH  13  16
ATOM     16  C   UNL     1     -11.398   8.270  19.573  0.00  0.00    -0.030 A 
ATOM     20  C   UNL     1     -10.485   9.316  19.573  0.00  0.00    +0.005 A 
ATOM     21  C   UNL     1     -11.703   7.591  18.399  0.00  0.00    +0.005 A 
ATOM     29  C   UNL     1      -9.865   9.690  18.380  0.00  0.00    +0.000 A 
ATOM     30  C   UNL     1     -11.083   7.965  17.207  0.00  0.00    +0.000 A 
ATOM     31  C   UNL     1     -10.164   9.014  17.197  0.00  0.00    +0.000 A 
ENDBRANCH  13  16
ENDBRANCH   4  13
TORSDOF 7
ENDMDL
MODEL 10
REMARK VINA RESULT:      -6.1     31.580     36.171
REMARK  Name = 11941211
REMARK  10 active torsions:
REMARK  status: ('A' for Active; 'I' for Inactive)
REMARK    1  A    between atoms: O_3  and  C_10
REMARK    2  A    between atoms: O_3  and  C_15
REMARK    3  A    between atoms: N_4  and  C_9
REMARK    4  A    between atoms: N_4  and  C_13
REMARK    5  A    between atoms: C_13  and  C_16
REMARK    6  A    between atoms: C_15  and  C_19
REMARK    7  A    between atoms: C_17  and  C_18
REMARK    8  A    between atoms: C_18  and  C_24
REMARK    9  A    between atoms: C_18  and  C_25
REMARK   10  A    between atoms: C_18  and  C_26
REMARK                            x       y       z     vdW  Elec       q    Type
REMARK                         _______ _______ _______ _____ _____    ______ ____
ROOT
ATOM      4  N   UNL     1      11.504   6.443   2.887  0.00  0.00    -0.287 N 
ATOM      5  N   UNL     1      10.739   6.103   5.079  0.00  0.00    -0.219 NA
ATOM      6  N   UNL     1       9.351   7.194   3.439  0.00  0.00    -0.223 NA
ATOM     14  C   UNL     1      10.489   6.585   3.841  0.00  0.00    +0.219 A 
ATOM     17  C   UNL     1       9.740   6.258   5.973  0.00  0.00    +0.052 A 
ATOM     22  C   UNL     1       8.394   7.315   4.383  0.00  0.00    +0.116 A 
ATOM     23  C   UNL     1       8.535   6.862   5.679  0.00  0.00    +0.043 A 
ENDROOT
BRANCH   4   9
ATOM      1  O   UNL     1      10.350   4.197   1.073  0.00  0.00    -0.369 OA
ATOM      2  O   UNL     1      13.407   4.054   0.864  0.00  0.00    -0.369 OA
ATOM      7  C   UNL     1      12.515   5.165   1.088  0.00  0.00    +0.172 C 
ATOM      8  C   UNL     1      11.280   4.913   0.245  0.00  0.00    +0.180 C 
ATOM      9  C   UNL     1      12.000   5.137   2.507  0.00  0.00    +0.133 C 
ATOM     10  C   UNL     1      11.817   4.047  -0.870  0.00  0.00    +0.175 C 
ATOM     11  C   UNL     1      10.854   4.144   2.416  0.00  0.00    +0.185 C 
ATOM     12  C   UNL     1      12.851   3.209  -0.154  0.00  0.00    +0.194 C 
BRANCH  10   3
ATOM      3  O   UNL     1      10.830   3.255  -1.493  0.00  0.00    -0.367 OA
BRANCH   3  15
ATOM     15  C   UNL     1      11.400   2.284  -2.367  0.00  0.00    +0.195 C 
BRANCH  15  19
ATOM     19  C   UNL     1      11.174   2.711  -3.787  0.00  0.00    -0.022 A 
ATOM     27  C   UNL     1       9.884   2.720  -4.307  0.00  0.00    +0.006 A 
ATOM     28  C   UNL     1      12.256   3.095  -4.572  0.00  0.00    +0.006 A 
ATOM     32  C   UNL     1       9.674   3.117  -5.627  0.00  0.00    +0.000 A 
ATOM     33  C   UNL     1      12.046   3.492  -5.892  0.00  0.00    +0.000 A 
ATOM     34  C   UNL     1      10.755   3.504  -6.420  0.00  0.00    +0.000 A 
ENDBRANCH  15  19
ENDBRANCH   3  15
ENDBRANCH  10   3
ENDBRANCH   4   9
BRANCH  17  18
ATOM     18  C   UNL     1       9.984   5.735   7.349  0.00  0.00    +0.005 C 
ATOM     24  C   UNL     1       9.029   6.289   8.456  0.00  0.00    +0.017 C 
ATOM     25  C   UNL     1       9.825   4.184   7.400  0.00  0.00    +0.017 C 
ATOM     26  C   UNL     1      11.426   6.077   7.836  0.00  0.00    +0.017 C 
ENDBRANCH  17  18
BRANCH   4  13
ATOM     13  C   UNL     1      12.078   7.621   2.240  0.00  0.00    +0.143 C 
BRANCH  13  16
ATOM     16  C   UNL     1      13.042   8.312   3.163  0.00  0.00    -0.030 A 
ATOM     20  C   UNL     1      12.697   9.534   3.726  0.00  0.00    +0.005 A 
ATOM     21  C   UNL     1      14.268   7.720   3.444  0.00  0.00    +0.005 A 
ATOM     29  C   UNL     1      13.592  10.176   4.583  0.00  0.00    +0.000 A 
ATOM     30  C   UNL     1      15.161   8.362   4.301  0.00  0.00    +0.000 A 
ATOM     31  C   UNL     1      14.824   9.589   4.870  0.00  0.00    +0.000 A 
ENDBRANCH  13  16
ENDBRANCH   4  13
TORSDOF 7
ENDMDL
