MODEL 1
REMARK VINA RESULT:      -7.9      0.000      0.000
REMARK  Name = 7142869
REMARK  4 active torsions:
REMARK  status: ('A' for Active; 'I' for Inactive)
REMARK    1  A    between atoms: S_1  and  N_6
REMARK    2  A    between atoms: S_1  and  C_22
REMARK    3  A    between atoms: N_8  and  C_20
REMARK    4  A    between atoms: C_27  and  C_29
REMARK                            x       y       z     vdW  Elec       q    Type
REMARK                         _______ _______ _______ _____ _____    ______ ____
ROOT
ATOM      4  O   UNL     1      13.612   8.760  15.410  0.00  0.00    -0.266 OA
ATOM      6  N   UNL     1      12.944   8.261  20.321  0.00  0.00    -0.176 NA
ATOM      7  N   UNL     1      14.387   8.982  17.603  0.00  0.00    -0.310 N 
ATOM     11  C   UNL     1      14.743   6.979  19.159  0.00  0.00    +0.025 C 
ATOM     12  C   UNL     1      15.199   9.251  19.974  0.00  0.00    +0.052 C 
ATOM     13  C   UNL     1      15.800   7.857  19.815  0.00  0.00    +0.017 C 
ATOM     14  C   UNL     1      13.484   6.901  20.037  0.00  0.00    +0.114 C 
ATOM     15  C   UNL     1      13.970   9.180  20.899  0.00  0.00    +0.119 C 
ATOM     16  C   UNL     1      14.445   7.522  17.755  0.00  0.00    +0.130 C 
ATOM     17  C   UNL     1      14.813   9.834  18.626  0.00  0.00    +0.026 A 
ATOM     18  C   UNL     1      14.859  11.162  18.425  0.00  0.00    +0.024 A 
ATOM     19  C   UNL     1      13.980   9.472  16.345  0.00  0.00    +0.273 A 
ATOM     20  C   UNL     1      14.023  10.958  16.169  0.00  0.00    +0.099 A 
ATOM     21  C   UNL     1      14.453  11.733  17.171  0.00  0.00    +0.030 A 
ENDROOT
BRANCH  20   8
ATOM      5  O   UNL     1      15.732  11.759  14.077  0.00  0.00    -0.268 OA
ATOM      8  N   UNL     1      13.625  11.473  14.971  0.00  0.00    -0.276 N 
ATOM     27  C   UNL     1      14.508  11.858  13.961  0.00  0.00    +0.268 C 
ATOM     33  H   UNL     1      12.642  11.372  14.729  0.00  0.00    +0.155 HD
BRANCH  27  29
ATOM      9  N   UNL     1      12.577  12.094  12.587  0.00  0.00    -0.247 NA
ATOM     10  N   UNL     1      14.051  13.518  10.673  0.00  0.00    -0.259 NA
ATOM     29  C   UNL     1      13.881  12.360  12.729  0.00  0.00    +0.144 A 
ATOM     30  C   UNL     1      14.615  13.053  11.805  0.00  0.00    +0.143 A 
ATOM     31  C   UNL     1      12.015  12.560  11.455  0.00  0.00    +0.131 A 
ATOM     32  C   UNL     1      12.739  13.259  10.515  0.00  0.00    +0.130 A 
ENDBRANCH  27  29
ENDBRANCH  20   8
BRANCH   6   1
ATOM      1  S   UNL     1      11.406   8.305  21.072  0.00  0.00    +0.061 S 
ATOM      2  O   UNL     1      11.407   7.405  22.206  0.00  0.00    -0.153 OA
ATOM      3  O   UNL     1      10.381   8.218  20.053  0.00  0.00    -0.153 OA
BRANCH   1  22
ATOM     22  C   UNL     1      11.414   9.957  21.695  0.00  0.00    +0.105 A 
ATOM     23  C   UNL     1      11.070  10.184  23.018  0.00  0.00    +0.028 A 
ATOM     24  C   UNL     1      11.763  10.998  20.852  0.00  0.00    +0.028 A 
ATOM     25  C   UNL     1      11.076  11.489  23.511  0.00  0.00    +0.002 A 
ATOM     26  C   UNL     1      11.768  12.304  21.344  0.00  0.00    +0.002 A 
ATOM     28  C   UNL     1      11.425  12.549  22.674  0.00  0.00    +0.000 A 
ENDBRANCH   1  22
ENDBRANCH   6   1
TORSDOF 4
ENDMDL
MODEL 2
REMARK VINA RESULT:      -7.6     27.298     29.975
REMARK  Name = 7142869
REMARK  4 active torsions:
REMARK  status: ('A' for Active; 'I' for Inactive)
REMARK    1  A    between atoms: S_1  and  N_6
REMARK    2  A    between atoms: S_1  and  C_22
REMARK    3  A    between atoms: N_8  and  C_20
REMARK    4  A    between atoms: C_27  and  C_29
REMARK                            x       y       z     vdW  Elec       q    Type
REMARK                         _______ _______ _______ _____ _____    ______ ____
ROOT
ATOM      4  O   UNL     1      -6.646 -10.107  14.239  0.00  0.00    -0.266 OA
ATOM      6  N   UNL     1      -2.874 -13.030  12.807  0.00  0.00    -0.176 NA
ATOM      7  N   UNL     1      -4.355 -10.529  14.050  0.00  0.00    -0.310 N 
ATOM     11  C   UNL     1      -3.171 -10.770  11.792  0.00  0.00    +0.025 C 
ATOM     12  C   UNL     1      -1.888 -11.011  13.873  0.00  0.00    +0.052 C 
ATOM     13  C   UNL     1      -1.944 -10.266  12.541  0.00  0.00    +0.017 C 
ATOM     14  C   UNL     1      -3.063 -12.281  11.533  0.00  0.00    +0.114 C 
ATOM     15  C   UNL     1      -1.724 -12.519  13.612  0.00  0.00    +0.119 C 
ATOM     16  C   UNL     1      -4.429 -10.400  12.588  0.00  0.00    +0.130 C 
ATOM     17  C   UNL     1      -3.136 -10.749  14.697  0.00  0.00    +0.026 A 
ATOM     18  C   UNL     1      -3.073 -10.751  16.039  0.00  0.00    +0.024 A 
ATOM     19  C   UNL     1      -5.552 -10.320  14.765  0.00  0.00    +0.273 A 
ATOM     20  C   UNL     1      -5.444 -10.353  16.257  0.00  0.00    +0.099 A 
ATOM     21  C   UNL     1      -4.253 -10.551  16.833  0.00  0.00    +0.030 A 
ENDROOT
BRANCH  20   8
ATOM      5  O   UNL     1      -7.217 -12.383  17.082  0.00  0.00    -0.268 OA
ATOM      8  N   UNL     1      -6.582 -10.167  16.986  0.00  0.00    -0.276 N 
ATOM     27  C   UNL     1      -7.433 -11.205  17.373  0.00  0.00    +0.268 C 
ATOM     33  H   UNL     1      -6.697  -9.264  17.441  0.00  0.00    +0.155 HD
BRANCH  27  29
ATOM      9  N   UNL     1      -9.475  -9.996  17.579  0.00  0.00    -0.247 NA
ATOM     10  N   UNL     1      -9.791 -10.884  20.221  0.00  0.00    -0.259 NA
ATOM     29  C   UNL     1      -8.593 -10.803  18.183  0.00  0.00    +0.144 A 
ATOM     30  C   UNL     1      -8.732 -11.245  19.470  0.00  0.00    +0.143 A 
ATOM     31  C   UNL     1     -10.533  -9.636  18.332  0.00  0.00    +0.131 A 
ATOM     32  C   UNL     1     -10.688 -10.072  19.629  0.00  0.00    +0.130 A 
ENDBRANCH  27  29
ENDBRANCH  20   8
BRANCH   6   1
ATOM      1  S   UNL     1      -2.995 -14.734  12.689  0.00  0.00    +0.061 S 
ATOM      2  O   UNL     1      -1.670 -15.291  12.508  0.00  0.00    -0.153 OA
ATOM      3  O   UNL     1      -4.074 -15.069  11.784  0.00  0.00    -0.153 OA
BRANCH   1  22
ATOM     22  C   UNL     1      -3.522 -15.120  14.330  0.00  0.00    +0.105 A 
ATOM     23  C   UNL     1      -4.420 -14.280  14.969  0.00  0.00    +0.028 A 
ATOM     24  C   UNL     1      -3.029 -16.256  14.950  0.00  0.00    +0.028 A 
ATOM     25  C   UNL     1      -4.836 -14.586  16.265  0.00  0.00    +0.002 A 
ATOM     26  C   UNL     1      -3.444 -16.561  16.247  0.00  0.00    +0.002 A 
ATOM     28  C   UNL     1      -4.348 -15.726  16.904  0.00  0.00    +0.000 A 
ENDBRANCH   1  22
ENDBRANCH   6   1
TORSDOF 4
ENDMDL
MODEL 3
REMARK VINA RESULT:      -7.4     26.167     28.973
REMARK  Name = 7142869
REMARK  4 active torsions:
REMARK  status: ('A' for Active; 'I' for Inactive)
REMARK    1  A    between atoms: S_1  and  N_6
REMARK    2  A    between atoms: S_1  and  C_22
REMARK    3  A    between atoms: N_8  and  C_20
REMARK    4  A    between atoms: C_27  and  C_29
REMARK                            x       y       z     vdW  Elec       q    Type
REMARK                         _______ _______ _______ _____ _____    ______ ____
ROOT
ATOM      4  O   UNL     1     -14.771   8.715  21.984  0.00  0.00    -0.266 OA
ATOM      6  N   UNL     1     -12.775   9.438  17.477  0.00  0.00    -0.176 NA
ATOM      7  N   UNL     1     -12.906   8.874  20.585  0.00  0.00    -0.310 N 
ATOM     11  C   UNL     1     -12.284  11.024  19.341  0.00  0.00    +0.025 C 
ATOM     12  C   UNL     1     -10.905   9.011  19.060  0.00  0.00    +0.052 C 
ATOM     13  C   UNL     1     -10.859  10.493  19.425  0.00  0.00    +0.017 C 
ATOM     14  C   UNL     1     -12.839  10.861  17.916  0.00  0.00    +0.114 C 
ATOM     15  C   UNL     1     -11.408   8.853  17.613  0.00  0.00    +0.119 C 
ATOM     16  C   UNL     1     -13.145  10.310  20.390  0.00  0.00    +0.130 C 
ATOM     17  C   UNL     1     -11.797   8.241  20.017  0.00  0.00    +0.026 A 
ATOM     18  C   UNL     1     -11.534   6.954  20.300  0.00  0.00    +0.024 A 
ATOM     19  C   UNL     1     -13.790   8.196  21.449  0.00  0.00    +0.273 A 
ATOM     20  C   UNL     1     -13.477   6.758  21.720  0.00  0.00    +0.099 A 
ATOM     21  C   UNL     1     -12.394   6.199  21.168  0.00  0.00    +0.030 A 
ENDROOT
BRANCH  20   8
ATOM      5  O   UNL     1     -15.552   5.046  20.882  0.00  0.00    -0.268 OA
ATOM      8  N   UNL     1     -14.315   6.063  22.542  0.00  0.00    -0.276 N 
ATOM     27  C   UNL     1     -15.332   5.225  22.082  0.00  0.00    +0.268 C 
ATOM     33  H   UNL     1     -14.048   5.993  23.521  0.00  0.00    +0.155 HD
BRANCH  27  29
ATOM      9  N   UNL     1     -16.146   3.204  23.044  0.00  0.00    -0.247 NA
ATOM     10  N   UNL     1     -17.454   4.637  25.069  0.00  0.00    -0.259 NA
ATOM     29  C   UNL     1     -16.108   4.539  23.126  0.00  0.00    +0.144 A 
ATOM     30  C   UNL     1     -16.741   5.253  24.107  0.00  0.00    +0.143 A 
ATOM     31  C   UNL     1     -16.860   2.588  24.007  0.00  0.00    +0.131 A 
ATOM     32  C   UNL     1     -17.502   3.292  25.002  0.00  0.00    +0.130 A 
ENDBRANCH  27  29
ENDBRANCH  20   8
BRANCH   6   1
ATOM      1  S   UNL     1     -13.591   9.077  16.017  0.00  0.00    +0.061 S 
ATOM      2  O   UNL     1     -12.774   8.180  15.227  0.00  0.00    -0.153 OA
ATOM      3  O   UNL     1     -14.110  10.304  15.450  0.00  0.00    -0.153 OA
BRANCH   1  22
ATOM     22  C   UNL     1     -14.955   8.150  16.646  0.00  0.00    +0.105 A 
ATOM     23  C   UNL     1     -15.157   8.084  18.016  0.00  0.00    +0.028 A 
ATOM     24  C   UNL     1     -15.802   7.503  15.761  0.00  0.00    +0.028 A 
ATOM     25  C   UNL     1     -16.234   7.352  18.513  0.00  0.00    +0.002 A 
ATOM     26  C   UNL     1     -16.879   6.769  16.258  0.00  0.00    +0.002 A 
ATOM     28  C   UNL     1     -17.095   6.694  17.635  0.00  0.00    +0.000 A 
ENDBRANCH   1  22
ENDBRANCH   6   1
TORSDOF 4
ENDMDL
MODEL 4
REMARK VINA RESULT:      -7.4     27.131     29.400
REMARK  Name = 7142869
REMARK  4 active torsions:
REMARK  status: ('A' for Active; 'I' for Inactive)
REMARK    1  A    between atoms: S_1  and  N_6
REMARK    2  A    between atoms: S_1  and  C_22
REMARK    3  A    between atoms: N_8  and  C_20
REMARK    4  A    between atoms: C_27  and  C_29
REMARK                            x       y       z     vdW  Elec       q    Type
REMARK                         _______ _______ _______ _____ _____    ______ ____
ROOT
ATOM      4  O   UNL     1      -7.429  -8.802  16.834  0.00  0.00    -0.266 OA
ATOM      6  N   UNL     1      -3.494 -11.672  15.788  0.00  0.00    -0.176 NA
ATOM      7  N   UNL     1      -6.467 -10.912  16.547  0.00  0.00    -0.310 N 
ATOM     11  C   UNL     1      -4.576 -11.788  18.034  0.00  0.00    +0.025 C 
ATOM     12  C   UNL     1      -5.427 -13.181  16.199  0.00  0.00    +0.052 C 
ATOM     13  C   UNL     1      -5.139 -13.163  17.698  0.00  0.00    +0.017 C 
ATOM     14  C   UNL     1      -3.275 -11.532  17.256  0.00  0.00    +0.114 C 
ATOM     15  C   UNL     1      -4.115 -12.979  15.420  0.00  0.00    +0.119 C 
ATOM     16  C   UNL     1      -5.647 -10.728  17.752  0.00  0.00    +0.130 C 
ATOM     17  C   UNL     1      -6.435 -12.109  15.825  0.00  0.00    +0.026 A 
ATOM     18  C   UNL     1      -7.275 -12.299  14.793  0.00  0.00    +0.024 A 
ATOM     19  C   UNL     1      -7.354  -9.866  16.219  0.00  0.00    +0.273 A 
ATOM     20  C   UNL     1      -8.257 -10.108  15.049  0.00  0.00    +0.099 A 
ATOM     21  C   UNL     1      -8.202 -11.276  14.399  0.00  0.00    +0.030 A 
ENDROOT
BRANCH  20   8
ATOM      5  O   UNL     1     -10.874  -9.775  16.040  0.00  0.00    -0.268 OA
ATOM      8  N   UNL     1      -9.122  -9.116  14.692  0.00  0.00    -0.276 N 
ATOM     27  C   UNL     1     -10.412  -8.989  15.209  0.00  0.00    +0.268 C 
ATOM     33  H   UNL     1      -8.731  -8.322  14.190  0.00  0.00    +0.155 HD
BRANCH  27  29
ATOM      9  N   UNL     1     -11.848  -8.017  13.577  0.00  0.00    -0.247 NA
ATOM     10  N   UNL     1     -11.885  -5.590  14.983  0.00  0.00    -0.259 NA
ATOM     29  C   UNL     1     -11.179  -7.833  14.722  0.00  0.00    +0.144 A 
ATOM     30  C   UNL     1     -11.186  -6.656  15.419  0.00  0.00    +0.143 A 
ATOM     31  C   UNL     1     -12.546  -6.949  13.141  0.00  0.00    +0.131 A 
ATOM     32  C   UNL     1     -12.564  -5.758  13.832  0.00  0.00    +0.130 A 
ENDBRANCH  27  29
ENDBRANCH  20   8
BRANCH   6   1
ATOM      1  S   UNL     1      -2.195 -11.164  14.795  0.00  0.00    +0.061 S 
ATOM      2  O   UNL     1      -1.415 -12.321  14.408  0.00  0.00    -0.153 OA
ATOM      3  O   UNL     1      -1.565 -10.009  15.396  0.00  0.00    -0.153 OA
BRANCH   1  22
ATOM     22  C   UNL     1      -3.089 -10.618  13.374  0.00  0.00    +0.105 A 
ATOM     23  C   UNL     1      -4.441 -10.336  13.490  0.00  0.00    +0.028 A 
ATOM     24  C   UNL     1      -2.425 -10.480  12.166  0.00  0.00    +0.028 A 
ATOM     25  C   UNL     1      -5.147  -9.904  12.367  0.00  0.00    +0.002 A 
ATOM     26  C   UNL     1      -3.131 -10.049  11.043  0.00  0.00    +0.002 A 
ATOM     28  C   UNL     1      -4.492  -9.761  11.144  0.00  0.00    +0.000 A 
ENDBRANCH   1  22
ENDBRANCH   6   1
TORSDOF 4
ENDMDL
MODEL 5
REMARK VINA RESULT:      -7.3     25.603     28.292
REMARK  Name = 7142869
REMARK  4 active torsions:
REMARK  status: ('A' for Active; 'I' for Inactive)
REMARK    1  A    between atoms: S_1  and  N_6
REMARK    2  A    between atoms: S_1  and  C_22
REMARK    3  A    between atoms: N_8  and  C_20
REMARK    4  A    between atoms: C_27  and  C_29
REMARK                            x       y       z     vdW  Elec       q    Type
REMARK                         _______ _______ _______ _____ _____    ______ ____
ROOT
ATOM      4  O   UNL     1     -15.084   8.748  19.800  0.00  0.00    -0.266 OA
ATOM      6  N   UNL     1     -11.416   9.506  16.515  0.00  0.00    -0.176 NA
ATOM      7  N   UNL     1     -12.850   9.233  19.319  0.00  0.00    -0.310 N 
ATOM     11  C   UNL     1     -12.129  11.339  18.052  0.00  0.00    +0.025 C 
ATOM     12  C   UNL     1     -10.435   9.721  18.790  0.00  0.00    +0.052 C 
ATOM     13  C   UNL     1     -10.831  11.195  18.835  0.00  0.00    +0.017 C 
ATOM     14  C   UNL     1     -11.931  10.902  16.591  0.00  0.00    +0.114 C 
ATOM     15  C   UNL     1     -10.182   9.300  17.331  0.00  0.00    +0.119 C 
ATOM     16  C   UNL     1     -13.230  10.537  18.758  0.00  0.00    +0.130 C 
ATOM     17  C   UNL     1     -11.509   8.849  19.414  0.00  0.00    +0.026 A 
ATOM     18  C   UNL     1     -11.176   7.703  20.033  0.00  0.00    +0.024 A 
ATOM     19  C   UNL     1     -13.891   8.443  19.845  0.00  0.00    +0.273 A 
ATOM     20  C   UNL     1     -13.481   7.164  20.506  0.00  0.00    +0.099 A 
ATOM     21  C   UNL     1     -12.185   6.845  20.587  0.00  0.00    +0.030 A 
ENDROOT
BRANCH  20   8
ATOM      5  O   UNL     1     -14.586   7.367  23.090  0.00  0.00    -0.268 OA
ATOM      8  N   UNL     1     -14.461   6.364  21.017  0.00  0.00    -0.276 N 
ATOM     27  C   UNL     1     -14.979   6.501  22.306  0.00  0.00    +0.268 C 
ATOM     33  H   UNL     1     -14.975   5.786  20.357  0.00  0.00    +0.155 HD
BRANCH  27  29
ATOM      9  N   UNL     1     -15.694   4.276  22.764  0.00  0.00    -0.247 NA
ATOM     10  N   UNL     1     -18.324   5.155  23.185  0.00  0.00    -0.259 NA
ATOM     29  C   UNL     1     -16.054   5.561  22.659  0.00  0.00    +0.144 A 
ATOM     30  C   UNL     1     -17.331   6.006  22.861  0.00  0.00    +0.143 A 
ATOM     31  C   UNL     1     -16.688   3.425  23.088  0.00  0.00    +0.131 A 
ATOM     32  C   UNL     1     -17.980   3.857  23.295  0.00  0.00    +0.130 A 
ENDBRANCH  27  29
ENDBRANCH  20   8
BRANCH   6   1
ATOM      1  S   UNL     1     -11.393   8.809  14.952  0.00  0.00    +0.061 S 
ATOM      2  O   UNL     1     -10.457   7.704  14.940  0.00  0.00    -0.153 OA
ATOM      3  O   UNL     1     -11.309   9.866  13.966  0.00  0.00    -0.153 OA
BRANCH   1  22
ATOM     22  C   UNL     1     -13.024   8.136  14.889  0.00  0.00    +0.105 A 
ATOM     23  C   UNL     1     -13.841   8.235  16.003  0.00  0.00    +0.028 A 
ATOM     24  C   UNL     1     -13.459   7.519  13.728  0.00  0.00    +0.028 A 
ATOM     25  C   UNL     1     -15.130   7.703  15.954  0.00  0.00    +0.002 A 
ATOM     26  C   UNL     1     -14.747   6.987  13.678  0.00  0.00    +0.002 A 
ATOM     28  C   UNL     1     -15.583   7.079  14.792  0.00  0.00    +0.000 A 
ENDBRANCH   1  22
ENDBRANCH   6   1
TORSDOF 4
ENDMDL
MODEL 6
REMARK VINA RESULT:      -7.1     27.227     28.597
REMARK  Name = 7142869
REMARK  4 active torsions:
REMARK  status: ('A' for Active; 'I' for Inactive)
REMARK    1  A    between atoms: S_1  and  N_6
REMARK    2  A    between atoms: S_1  and  C_22
REMARK    3  A    between atoms: N_8  and  C_20
REMARK    4  A    between atoms: C_27  and  C_29
REMARK                            x       y       z     vdW  Elec       q    Type
REMARK                         _______ _______ _______ _____ _____    ______ ____
ROOT
ATOM      4  O   UNL     1      -5.622 -12.278  10.368  0.00  0.00    -0.266 OA
ATOM      6  N   UNL     1      -3.573 -12.125  14.906  0.00  0.00    -0.176 NA
ATOM      7  N   UNL     1      -3.739 -12.233  11.751  0.00  0.00    -0.310 N 
ATOM     11  C   UNL     1      -3.200 -14.097  13.422  0.00  0.00    +0.025 C 
ATOM     12  C   UNL     1      -1.717 -12.147  13.252  0.00  0.00    +0.052 C 
ATOM     13  C   UNL     1      -1.752 -13.673  13.213  0.00  0.00    +0.017 C 
ATOM     14  C   UNL     1      -3.717 -13.604  14.783  0.00  0.00    +0.114 C 
ATOM     15  C   UNL     1      -2.181 -11.657  14.635  0.00  0.00    +0.119 C 
ATOM     16  C   UNL     1      -4.046 -13.579  12.252  0.00  0.00    +0.130 C 
ATOM     17  C   UNL     1      -2.588 -11.554  12.159  0.00  0.00    +0.026 A 
ATOM     18  C   UNL     1      -2.267 -10.372  11.604  0.00  0.00    +0.024 A 
ATOM     19  C   UNL     1      -4.606 -11.710  10.770  0.00  0.00    +0.273 A 
ATOM     20  C   UNL     1      -4.226 -10.381  10.194  0.00  0.00    +0.099 A 
ATOM     21  C   UNL     1      -3.106  -9.776  10.603  0.00  0.00    +0.030 A 
ENDROOT
BRANCH  20   8
ATOM      5  O   UNL     1      -6.434  -8.706  10.705  0.00  0.00    -0.268 OA
ATOM      8  N   UNL     1      -5.045  -9.835   9.250  0.00  0.00    -0.276 N 
ATOM     27  C   UNL     1      -6.130  -9.009   9.550  0.00  0.00    +0.268 C 
ATOM     33  H   UNL     1      -4.721  -9.862   8.286  0.00  0.00    +0.155 HD
BRANCH  27  29
ATOM      9  N   UNL     1      -7.515  -7.334   8.576  0.00  0.00    -0.247 NA
ATOM     10  N   UNL     1      -7.561  -8.719   6.137  0.00  0.00    -0.259 NA
ATOM     29  C   UNL     1      -6.873  -8.493   8.389  0.00  0.00    +0.144 A 
ATOM     30  C   UNL     1      -6.884  -9.181   7.207  0.00  0.00    +0.143 A 
ATOM     31  C   UNL     1      -8.191  -6.873   7.505  0.00  0.00    +0.131 A 
ATOM     32  C   UNL     1      -8.214  -7.553   6.307  0.00  0.00    +0.130 A 
ENDBRANCH  27  29
ENDBRANCH  20   8
BRANCH   6   1
ATOM      1  S   UNL     1      -4.340 -11.417  16.263  0.00  0.00    +0.061 S 
ATOM      2  O   UNL     1      -3.565 -10.275  16.702  0.00  0.00    -0.153 OA
ATOM      3  O   UNL     1      -4.717 -12.462  17.191  0.00  0.00    -0.153 OA
BRANCH   1  22
ATOM     22  C   UNL     1      -5.813 -10.809  15.502  0.00  0.00    +0.105 A 
ATOM     23  C   UNL     1      -5.899 -10.779  14.120  0.00  0.00    +0.028 A 
ATOM     24  C   UNL     1      -6.857 -10.372  16.300  0.00  0.00    +0.028 A 
ATOM     25  C   UNL     1      -7.062 -10.298  13.519  0.00  0.00    +0.002 A 
ATOM     26  C   UNL     1      -8.020  -9.890  15.699  0.00  0.00    +0.002 A 
ATOM     28  C   UNL     1      -8.123  -9.853  14.308  0.00  0.00    +0.000 A 
ENDBRANCH   1  22
ENDBRANCH   6   1
TORSDOF 4
ENDMDL
MODEL 7
REMARK VINA RESULT:      -7.1     14.787     20.136
REMARK  Name = 7142869
REMARK  4 active torsions:
REMARK  status: ('A' for Active; 'I' for Inactive)
REMARK    1  A    between atoms: S_1  and  N_6
REMARK    2  A    between atoms: S_1  and  C_22
REMARK    3  A    between atoms: N_8  and  C_20
REMARK    4  A    between atoms: C_27  and  C_29
REMARK                            x       y       z     vdW  Elec       q    Type
REMARK                         _______ _______ _______ _____ _____    ______ ____
ROOT
ATOM      4  O   UNL     1      11.976   7.101   0.954  0.00  0.00    -0.266 OA
ATOM      6  N   UNL     1      11.820   4.140  -3.049  0.00  0.00    -0.176 NA
ATOM      7  N   UNL     1      13.027   5.657  -0.552  0.00  0.00    -0.310 N 
ATOM     11  C   UNL     1      13.255   6.181  -3.049  0.00  0.00    +0.025 C 
ATOM     12  C   UNL     1      14.141   4.069  -2.161  0.00  0.00    +0.052 C 
ATOM     13  C   UNL     1      14.503   5.311  -2.973  0.00  0.00    +0.017 C 
ATOM     14  C   UNL     1      12.110   5.426  -3.743  0.00  0.00    +0.114 C 
ATOM     15  C   UNL     1      13.033   3.284  -2.886  0.00  0.00    +0.119 C 
ATOM     16  C   UNL     1      12.881   6.640  -1.634  0.00  0.00    +0.130 C 
ATOM     17  C   UNL     1      13.693   4.446  -0.760  0.00  0.00    +0.026 A 
ATOM     18  C   UNL     1      13.916   3.610   0.269  0.00  0.00    +0.024 A 
ATOM     19  C   UNL     1      12.554   6.039   0.719  0.00  0.00    +0.273 A 
ATOM     20  C   UNL     1      12.800   5.071   1.834  0.00  0.00    +0.099 A 
ATOM     21  C   UNL     1      13.457   3.931   1.591  0.00  0.00    +0.030 A 
ENDROOT
BRANCH  20   8
ATOM      5  O   UNL     1      10.253   4.454   2.870  0.00  0.00    -0.268 OA
ATOM      8  N   UNL     1      12.347   5.398   3.079  0.00  0.00    -0.276 N 
ATOM     27  C   UNL     1      11.074   5.072   3.550  0.00  0.00    +0.268 C 
ATOM     33  H   UNL     1      13.041   5.705   3.756  0.00  0.00    +0.155 HD
BRANCH  27  29
ATOM      9  N   UNL     1      11.491   6.529   5.388  0.00  0.00    -0.247 NA
ATOM     10  N   UNL     1       9.577   5.194   6.944  0.00  0.00    -0.259 NA
ATOM     29  C   UNL     1      10.786   5.486   4.932  0.00  0.00    +0.144 A 
ATOM     30  C   UNL     1       9.850   4.824   5.678  0.00  0.00    +0.143 A 
ATOM     31  C   UNL     1      11.217   6.898   6.655  0.00  0.00    +0.131 A 
ATOM     32  C   UNL     1      10.277   6.242   7.419  0.00  0.00    +0.130 A 
ENDBRANCH  27  29
ENDBRANCH  20   8
BRANCH   6   1
ATOM      1  S   UNL     1      10.405   3.324  -3.563  0.00  0.00    +0.061 S 
ATOM      2  O   UNL     1      10.087   2.281  -2.610  0.00  0.00    -0.153 OA
ATOM      3  O   UNL     1      10.515   3.033  -4.976  0.00  0.00    -0.153 OA
BRANCH   1  22
ATOM     22  C   UNL     1       9.216   4.614  -3.365  0.00  0.00    +0.105 A 
ATOM     23  C   UNL     1       9.226   5.374  -2.206  0.00  0.00    +0.028 A 
ATOM     24  C   UNL     1       8.293   4.846  -4.371  0.00  0.00    +0.028 A 
ATOM     25  C   UNL     1       8.286   6.393  -2.050  0.00  0.00    +0.002 A 
ATOM     26  C   UNL     1       7.352   5.865  -4.214  0.00  0.00    +0.002 A 
ATOM     28  C   UNL     1       7.350   6.639  -3.053  0.00  0.00    +0.000 A 
ENDBRANCH   1  22
ENDBRANCH   6   1
TORSDOF 4
ENDMDL
MODEL 8
REMARK VINA RESULT:      -7.0     12.817     16.578
REMARK  Name = 7142869
REMARK  4 active torsions:
REMARK  status: ('A' for Active; 'I' for Inactive)
REMARK    1  A    between atoms: S_1  and  N_6
REMARK    2  A    between atoms: S_1  and  C_22
REMARK    3  A    between atoms: N_8  and  C_20
REMARK    4  A    between atoms: C_27  and  C_29
REMARK                            x       y       z     vdW  Elec       q    Type
REMARK                         _______ _______ _______ _____ _____    ______ ____
ROOT
ATOM      4  O   UNL     1      10.633   7.176   1.010  0.00  0.00    -0.266 OA
ATOM      6  N   UNL     1      11.237   7.042   5.953  0.00  0.00    -0.176 NA
ATOM      7  N   UNL     1      10.131   6.256   3.098  0.00  0.00    -0.310 N 
ATOM     11  C   UNL     1       9.011   7.596   4.971  0.00  0.00    +0.025 C 
ATOM     12  C   UNL     1       9.624   5.249   5.352  0.00  0.00    +0.052 C 
ATOM     13  C   UNL     1       8.470   6.246   5.422  0.00  0.00    +0.017 C 
ATOM     14  C   UNL     1      10.149   8.059   5.896  0.00  0.00    +0.114 C 
ATOM     15  C   UNL     1      10.739   5.683   6.320  0.00  0.00    +0.119 C 
ATOM     16  C   UNL     1       9.451   7.493   3.506  0.00  0.00    +0.130 C 
ATOM     17  C   UNL     1      10.164   5.138   3.937  0.00  0.00    +0.026 A 
ATOM     18  C   UNL     1      10.690   3.981   3.502  0.00  0.00    +0.024 A 
ATOM     19  C   UNL     1      10.654   6.222   1.790  0.00  0.00    +0.273 A 
ATOM     20  C   UNL     1      11.252   4.922   1.351  0.00  0.00    +0.099 A 
ATOM     21  C   UNL     1      11.247   3.874   2.182  0.00  0.00    +0.030 A 
ENDROOT
BRANCH  20   8
ATOM      5  O   UNL     1       9.815   4.360  -1.007  0.00  0.00    -0.268 OA
ATOM      8  N   UNL     1      11.780   4.852   0.095  0.00  0.00    -0.276 N 
ATOM     27  C   UNL     1      11.029   4.570  -1.047  0.00  0.00    +0.268 C 
ATOM     33  H   UNL     1      12.717   5.229  -0.033  0.00  0.00    +0.155 HD
BRANCH  27  29
ATOM      9  N   UNL     1      11.049   4.750  -3.422  0.00  0.00    -0.247 NA
ATOM     10  N   UNL     1      13.831   4.394  -3.475  0.00  0.00    -0.259 NA
ATOM     29  C   UNL     1      11.777   4.570  -2.313  0.00  0.00    +0.144 A 
ATOM     30  C   UNL     1      13.134   4.396  -2.321  0.00  0.00    +0.143 A 
ATOM     31  C   UNL     1      11.747   4.748  -4.575  0.00  0.00    +0.131 A 
ATOM     32  C   UNL     1      13.113   4.574  -4.601  0.00  0.00    +0.130 A 
ENDBRANCH  27  29
ENDBRANCH  20   8
BRANCH   6   1
ATOM      1  S   UNL     1      12.674   7.540   6.740  0.00  0.00    +0.061 S 
ATOM      2  O   UNL     1      13.085   6.510   7.671  0.00  0.00    -0.153 OA
ATOM      3  O   UNL     1      12.525   8.915   7.169  0.00  0.00    -0.153 OA
BRANCH   1  22
ATOM     22  C   UNL     1      13.797   7.515   5.378  0.00  0.00    +0.105 A 
ATOM     23  C   UNL     1      13.309   7.294   4.101  0.00  0.00    +0.028 A 
ATOM     24  C   UNL     1      15.148   7.717   5.609  0.00  0.00    +0.028 A 
ATOM     25  C   UNL     1      14.196   7.274   3.025  0.00  0.00    +0.002 A 
ATOM     26  C   UNL     1      16.035   7.696   4.534  0.00  0.00    +0.002 A 
ATOM     28  C   UNL     1      15.559   7.475   3.241  0.00  0.00    +0.000 A 
ENDBRANCH   1  22
ENDBRANCH   6   1
TORSDOF 4
ENDMDL
MODEL 9
REMARK VINA RESULT:      -6.9     20.324     24.247
REMARK  Name = 7142869
REMARK  4 active torsions:
REMARK  status: ('A' for Active; 'I' for Inactive)
REMARK    1  A    between atoms: S_1  and  N_6
REMARK    2  A    between atoms: S_1  and  C_22
REMARK    3  A    between atoms: N_8  and  C_20
REMARK    4  A    between atoms: C_27  and  C_29
REMARK                            x       y       z     vdW  Elec       q    Type
REMARK                         _______ _______ _______ _____ _____    ______ ____
ROOT
ATOM      4  O   UNL     1      -6.800   9.650   4.899  0.00  0.00    -0.266 OA
ATOM      6  N   UNL     1      -1.937  10.401   4.121  0.00  0.00    -0.176 NA
ATOM      7  N   UNL     1      -4.565   9.261   5.458  0.00  0.00    -0.310 N 
ATOM     11  C   UNL     1      -2.994  11.115   6.266  0.00  0.00    +0.025 C 
ATOM     12  C   UNL     1      -2.151   8.820   6.028  0.00  0.00    +0.052 C 
ATOM     13  C   UNL     1      -2.275   9.990   7.001  0.00  0.00    +0.017 C 
ATOM     14  C   UNL     1      -2.191  11.553   5.031  0.00  0.00    +0.114 C 
ATOM     15  C   UNL     1      -1.299   9.245   4.818  0.00  0.00    +0.119 C 
ATOM     16  C   UNL     1      -4.412  10.650   5.909  0.00  0.00    +0.130 C 
ATOM     17  C   UNL     1      -3.518   8.343   5.572  0.00  0.00    +0.026 A 
ATOM     18  C   UNL     1      -3.714   7.050   5.260  0.00  0.00    +0.024 A 
ATOM     19  C   UNL     1      -5.844   8.881   5.002  0.00  0.00    +0.273 A 
ATOM     20  C   UNL     1      -6.015   7.438   4.641  0.00  0.00    +0.099 A 
ATOM     21  C   UNL     1      -4.989   6.592   4.783  0.00  0.00    +0.030 A 
ENDROOT
BRANCH  20   8
ATOM      5  O   UNL     1      -8.006   6.167   6.178  0.00  0.00    -0.268 OA
ATOM      8  N   UNL     1      -7.234   7.033   4.184  0.00  0.00    -0.276 N 
ATOM     27  C   UNL     1      -8.192   6.405   4.983  0.00  0.00    +0.268 C 
ATOM     33  H   UNL     1      -7.532   7.394   3.281  0.00  0.00    +0.155 HD
BRANCH  27  29
ATOM      9  N   UNL     1      -9.362   5.742   3.017  0.00  0.00    -0.247 NA
ATOM     10  N   UNL     1     -11.807   5.809   4.390  0.00  0.00    -0.259 NA
ATOM     29  C   UNL     1      -9.458   6.073   4.310  0.00  0.00    +0.144 A 
ATOM     30  C   UNL     1     -10.642   6.111   4.995  0.00  0.00    +0.143 A 
ATOM     31  C   UNL     1     -10.529   5.441   2.413  0.00  0.00    +0.131 A 
ATOM     32  C   UNL     1     -11.730   5.473   3.087  0.00  0.00    +0.130 A 
ENDBRANCH  27  29
ENDBRANCH  20   8
BRANCH   6   1
ATOM      1  S   UNL     1      -1.278  10.797   2.591  0.00  0.00    +0.061 S 
ATOM      2  O   UNL     1      -0.244   9.839   2.259  0.00  0.00    -0.153 OA
ATOM      3  O   UNL     1      -1.017  12.220   2.544  0.00  0.00    -0.153 OA
BRANCH   1  22
ATOM     22  C   UNL     1      -2.672  10.465   1.559  0.00  0.00    +0.105 A 
ATOM     23  C   UNL     1      -3.944  10.496   2.107  0.00  0.00    +0.028 A 
ATOM     24  C   UNL     1      -2.470  10.180   0.219  0.00  0.00    +0.028 A 
ATOM     25  C   UNL     1      -5.045  10.234   1.292  0.00  0.00    +0.002 A 
ATOM     26  C   UNL     1      -3.571   9.917  -0.597  0.00  0.00    +0.002 A 
ATOM     28  C   UNL     1      -4.859   9.944  -0.060  0.00  0.00    +0.000 A 
ENDBRANCH   1  22
ENDBRANCH   6   1
TORSDOF 4
ENDMDL
MODEL 10
REMARK VINA RESULT:      -6.8      1.826      2.295
REMARK  Name = 7142869
REMARK  4 active torsions:
REMARK  status: ('A' for Active; 'I' for Inactive)
REMARK    1  A    between atoms: S_1  and  N_6
REMARK    2  A    between atoms: S_1  and  C_22
REMARK    3  A    between atoms: N_8  and  C_20
REMARK    4  A    between atoms: C_27  and  C_29
REMARK                            x       y       z     vdW  Elec       q    Type
REMARK                         _______ _______ _______ _____ _____    ______ ____
ROOT
ATOM      4  O   UNL     1      12.761   9.711  17.093  0.00  0.00    -0.266 OA
ATOM      6  N   UNL     1      12.905   9.916  22.068  0.00  0.00    -0.176 NA
ATOM      7  N   UNL     1      13.947   9.590  19.102  0.00  0.00    -0.310 N 
ATOM     11  C   UNL     1      13.490   7.802  20.878  0.00  0.00    +0.025 C 
ATOM     12  C   UNL     1      15.223   9.497  21.273  0.00  0.00    +0.052 C 
ATOM     13  C   UNL     1      14.956   7.994  21.245  0.00  0.00    +0.017 C 
ATOM     14  C   UNL     1      12.579   8.469  21.921  0.00  0.00    +0.114 C 
ATOM     15  C   UNL     1      14.350  10.156  22.356  0.00  0.00    +0.119 C 
ATOM     16  C   UNL     1      13.256   8.345  19.462  0.00  0.00    +0.130 C 
ATOM     17  C   UNL     1      14.948  10.124  19.918  0.00  0.00    +0.026 A 
ATOM     18  C   UNL     1      15.647  11.200  19.516  0.00  0.00    +0.024 A 
ATOM     19  C   UNL     1      13.623  10.156  17.852  0.00  0.00    +0.273 A 
ATOM     20  C   UNL     1      14.407  11.366  17.451  0.00  0.00    +0.099 A 
ATOM     21  C   UNL     1      15.367  11.833  18.257  0.00  0.00    +0.030 A 
ENDROOT
BRANCH  20   8
ATOM      5  O   UNL     1      15.659  10.791  14.993  0.00  0.00    -0.268 OA
ATOM      8  N   UNL     1      14.115  11.951  16.254  0.00  0.00    -0.276 N 
ATOM     27  C   UNL     1      14.762  11.635  15.058  0.00  0.00    +0.268 C 
ATOM     33  H   UNL     1      13.248  12.481  16.199  0.00  0.00    +0.155 HD
BRANCH  27  29
ATOM      9  N   UNL     1      13.233  13.163  14.060  0.00  0.00    -0.247 NA
ATOM     10  N   UNL     1      14.457  12.832  11.558  0.00  0.00    -0.259 NA
ATOM     29  C   UNL     1      14.281  12.353  13.868  0.00  0.00    +0.144 A 
ATOM     30  C   UNL     1      14.889  12.180  12.655  0.00  0.00    +0.143 A 
ATOM     31  C   UNL     1      12.802  13.816  12.962  0.00  0.00    +0.131 A 
ATOM     32  C   UNL     1      13.403  13.653  11.734  0.00  0.00    +0.130 A 
ENDBRANCH  27  29
ENDBRANCH  20   8
BRANCH   6   1
ATOM      1  S   UNL     1      11.802  10.831  23.005  0.00  0.00    +0.061 S 
ATOM      2  O   UNL     1      12.464  11.274  24.215  0.00  0.00    -0.153 OA
ATOM      3  O   UNL     1      10.537  10.131  23.063  0.00  0.00    -0.153 OA
BRANCH   1  22
ATOM     22  C   UNL     1      11.598  12.237  21.957  0.00  0.00    +0.105 A 
ATOM     23  C   UNL     1      12.312  12.308  20.771  0.00  0.00    +0.028 A 
ATOM     24  C   UNL     1      10.729  13.246  22.337  0.00  0.00    +0.028 A 
ATOM     25  C   UNL     1      12.151  13.419  19.943  0.00  0.00    +0.002 A 
ATOM     26  C   UNL     1      10.568  14.357  21.509  0.00  0.00    +0.002 A 
ATOM     28  C   UNL     1      11.279  14.443  20.312  0.00  0.00    +0.000 A 
ENDBRANCH   1  22
ENDBRANCH   6   1
TORSDOF 4
ENDMDL
