MODEL 1
REMARK VINA RESULT:      -6.4      0.000      0.000
REMARK  Name = 75537053
REMARK  3 active torsions:
REMARK  status: ('A' for Active; 'I' for Inactive)
REMARK    1  A    between atoms: N_3  and  C_12
REMARK    2  A    between atoms: N_4  and  C_13
REMARK    3  A    between atoms: C_12  and  C_14
REMARK                            x       y       z     vdW  Elec       q    Type
REMARK                         _______ _______ _______ _____ _____    ______ ____
ROOT
ATOM      1  O   UNL     1      19.703   7.975  22.407  0.00  0.00    -0.252 OA
ATOM      2  N   UNL     1      17.814   7.624  21.088  0.00  0.00    -0.278 N 
ATOM      3  N   UNL     1      15.094   7.397  20.404  0.00  0.00    -0.295 NA
ATOM      4  N   UNL     1      19.603   6.289  20.711  0.00  0.00    -0.254 N 
ATOM      6  C   UNL     1      17.446   6.854  19.926  0.00  0.00    +0.109 C 
ATOM      7  C   UNL     1      16.028   6.302  20.075  0.00  0.00    +0.109 C 
ATOM      8  C   UNL     1      18.541   5.797  19.839  0.00  0.00    +0.139 C 
ATOM      9  C   UNL     1      16.897   8.629  21.590  0.00  0.00    +0.125 C 
ATOM     10  C   UNL     1      15.480   8.054  21.668  0.00  0.00    +0.104 C 
ATOM     11  C   UNL     1      19.128   7.371  21.510  0.00  0.00    +0.309 C 
ENDROOT
BRANCH   4  13
ATOM     13  C   UNL     1      20.888   5.677  20.768  0.00  0.00    +0.038 A 
ATOM     15  C   UNL     1      21.003   4.326  21.090  0.00  0.00    +0.023 A 
ATOM     16  C   UNL     1      22.031   6.431  20.502  0.00  0.00    +0.023 A 
ATOM     19  C   UNL     1      22.262   3.727  21.146  0.00  0.00    +0.002 A 
ATOM     20  C   UNL     1      23.291   5.833  20.558  0.00  0.00    +0.002 A 
ATOM     21  C   UNL     1      23.406   4.481  20.880  0.00  0.00    +0.000 A 
ENDBRANCH   4  13
BRANCH   3  12
ATOM     12  C   UNL     1      13.724   6.890  20.490  0.00  0.00    +0.121 C 
BRANCH  12  14
ATOM      5  N   UNL     1      12.386   7.786  17.064  0.00  0.00    -0.263 NA
ATOM     14  C   UNL     1      12.843   7.472  19.417  0.00  0.00    -0.015 A 
ATOM     17  C   UNL     1      11.710   8.211  19.743  0.00  0.00    +0.008 A 
ATOM     18  C   UNL     1      13.133   7.290  18.075  0.00  0.00    +0.115 A 
ATOM     22  C   UNL     1      10.915   8.737  18.731  0.00  0.00    +0.020 A 
ATOM     23  C   UNL     1      11.293   8.498  17.419  0.00  0.00    +0.111 A 
ENDBRANCH  12  14
ENDBRANCH   3  12
TORSDOF 3
ENDMDL
MODEL 2
REMARK VINA RESULT:      -6.2     15.546     19.289
REMARK  Name = 75537053
REMARK  3 active torsions:
REMARK  status: ('A' for Active; 'I' for Inactive)
REMARK    1  A    between atoms: N_3  and  C_12
REMARK    2  A    between atoms: N_4  and  C_13
REMARK    3  A    between atoms: C_12  and  C_14
REMARK                            x       y       z     vdW  Elec       q    Type
REMARK                         _______ _______ _______ _____ _____    ______ ____
ROOT
ATOM      1  O   UNL     1      12.237   7.276   5.651  0.00  0.00    -0.252 OA
ATOM      2  N   UNL     1      11.802   6.093   3.690  0.00  0.00    -0.278 N 
ATOM      3  N   UNL     1      11.429   5.608   0.943  0.00  0.00    -0.295 NA
ATOM      4  N   UNL     1      10.580   5.553   5.518  0.00  0.00    -0.254 N 
ATOM      6  C   UNL     1      11.033   4.944   3.279  0.00  0.00    +0.109 C 
ATOM      7  C   UNL     1      10.398   5.185   1.911  0.00  0.00    +0.109 C 
ATOM      8  C   UNL     1      10.045   4.752   4.423  0.00  0.00    +0.139 C 
ATOM      9  C   UNL     1      12.742   6.685   2.758  0.00  0.00    +0.125 C 
ATOM     10  C   UNL     1      12.084   6.855   1.386  0.00  0.00    +0.104 C 
ATOM     11  C   UNL     1      11.617   6.410   5.045  0.00  0.00    +0.309 C 
ENDROOT
BRANCH   4  13
ATOM     13  C   UNL     1      10.044   5.500   6.837  0.00  0.00    +0.038 A 
ATOM     15  C   UNL     1      10.093   4.311   7.562  0.00  0.00    +0.023 A 
ATOM     16  C   UNL     1       9.469   6.639   7.402  0.00  0.00    +0.023 A 
ATOM     19  C   UNL     1       9.569   4.260   8.854  0.00  0.00    +0.002 A 
ATOM     20  C   UNL     1       8.944   6.588   8.693  0.00  0.00    +0.002 A 
ATOM     21  C   UNL     1       8.994   5.399   9.419  0.00  0.00    +0.000 A 
ENDBRANCH   4  13
BRANCH   3  12
ATOM     12  C   UNL     1      10.842   5.784  -0.385  0.00  0.00    +0.121 C 
BRANCH  12  14
ATOM      5  N   UNL     1      12.345   2.587  -1.746  0.00  0.00    -0.263 NA
ATOM     14  C   UNL     1      11.064   4.579  -1.260  0.00  0.00    -0.015 A 
ATOM     17  C   UNL     1      10.244   4.328  -2.356  0.00  0.00    +0.008 A 
ATOM     18  C   UNL     1      12.091   3.686  -1.001  0.00  0.00    +0.115 A 
ATOM     22  C   UNL     1      10.474   3.208  -3.146  0.00  0.00    +0.020 A 
ATOM     23  C   UNL     1      11.528   2.376  -2.803  0.00  0.00    +0.111 A 
ENDBRANCH  12  14
ENDBRANCH   3  12
TORSDOF 3
ENDMDL
MODEL 3
REMARK VINA RESULT:      -6.2     30.112     33.502
REMARK  Name = 75537053
REMARK  3 active torsions:
REMARK  status: ('A' for Active; 'I' for Inactive)
REMARK    1  A    between atoms: N_3  and  C_12
REMARK    2  A    between atoms: N_4  and  C_13
REMARK    3  A    between atoms: C_12  and  C_14
REMARK                            x       y       z     vdW  Elec       q    Type
REMARK                         _______ _______ _______ _____ _____    ______ ____
ROOT
ATOM      1  O   UNL     1     -16.690   4.727  21.045  0.00  0.00    -0.252 OA
ATOM      2  N   UNL     1     -16.375   3.795  23.157  0.00  0.00    -0.278 N 
ATOM      3  N   UNL     1     -17.003   2.857  25.735  0.00  0.00    -0.295 NA
ATOM      4  N   UNL     1     -14.759   5.179  22.385  0.00  0.00    -0.254 N 
ATOM      6  C   UNL     1     -15.329   3.709  24.146  0.00  0.00    +0.109 C 
ATOM      7  C   UNL     1     -15.910   3.833  25.554  0.00  0.00    +0.109 C 
ATOM      8  C   UNL     1     -14.371   4.825  23.746  0.00  0.00    +0.139 C 
ATOM      9  C   UNL     1     -17.567   2.986  23.318  0.00  0.00    +0.125 C 
ATOM     10  C   UNL     1     -18.084   3.092  24.756  0.00  0.00    +0.104 C 
ATOM     11  C   UNL     1     -16.014   4.588  22.057  0.00  0.00    +0.309 C 
ENDROOT
BRANCH   4  13
ATOM     13  C   UNL     1     -13.988   6.064  21.577  0.00  0.00    +0.038 A 
ATOM     15  C   UNL     1     -14.623   7.052  20.825  0.00  0.00    +0.023 A 
ATOM     16  C   UNL     1     -12.599   5.942  21.538  0.00  0.00    +0.023 A 
ATOM     19  C   UNL     1     -13.868   7.919  20.034  0.00  0.00    +0.002 A 
ATOM     20  C   UNL     1     -11.844   6.809  20.747  0.00  0.00    +0.002 A 
ATOM     21  C   UNL     1     -12.479   7.797  19.995  0.00  0.00    +0.000 A 
ENDBRANCH   4  13
BRANCH   3  12
ATOM     12  C   UNL     1     -17.528   2.926  27.099  0.00  0.00    +0.121 C 
BRANCH  12  14
ATOM      5  N   UNL     1     -15.516   0.371  29.036  0.00  0.00    -0.263 NA
ATOM     14  C   UNL     1     -16.570   2.334  28.098  0.00  0.00    -0.015 A 
ATOM     17  C   UNL     1     -15.870   3.143  28.986  0.00  0.00    +0.008 A 
ATOM     18  C   UNL     1     -16.359   0.966  28.163  0.00  0.00    +0.115 A 
ATOM     22  C   UNL     1     -14.993   2.568  29.899  0.00  0.00    +0.020 A 
ATOM     23  C   UNL     1     -14.852   1.189  29.883  0.00  0.00    +0.111 A 
ENDBRANCH  12  14
ENDBRANCH   3  12
TORSDOF 3
ENDMDL
MODEL 4
REMARK VINA RESULT:      -6.1     27.280     29.063
REMARK  Name = 75537053
REMARK  3 active torsions:
REMARK  status: ('A' for Active; 'I' for Inactive)
REMARK    1  A    between atoms: N_3  and  C_12
REMARK    2  A    between atoms: N_4  and  C_13
REMARK    3  A    between atoms: C_12  and  C_14
REMARK                            x       y       z     vdW  Elec       q    Type
REMARK                         _______ _______ _______ _____ _____    ______ ____
ROOT
ATOM      1  O   UNL     1      -1.965 -11.052  15.935  0.00  0.00    -0.252 OA
ATOM      2  N   UNL     1      -2.950 -10.893  13.829  0.00  0.00    -0.278 N 
ATOM      3  N   UNL     1      -3.315 -10.104  11.153  0.00  0.00    -0.295 NA
ATOM      4  N   UNL     1      -4.333 -10.907  15.622  0.00  0.00    -0.254 N 
ATOM      6  C   UNL     1      -4.273 -10.940  13.259  0.00  0.00    +0.109 C 
ATOM      7  C   UNL     1      -4.408  -9.921  12.128  0.00  0.00    +0.109 C 
ATOM      8  C   UNL     1      -5.185 -10.697  14.456  0.00  0.00    +0.139 C 
ATOM      9  C   UNL     1      -1.799 -10.914  12.948  0.00  0.00    +0.125 C 
ATOM     10  C   UNL     1      -1.999  -9.922  11.799  0.00  0.00    +0.104 C 
ATOM     11  C   UNL     1      -2.963 -10.969  15.231  0.00  0.00    +0.309 C 
ENDROOT
BRANCH   4  13
ATOM     13  C   UNL     1      -4.851 -10.953  16.948  0.00  0.00    +0.038 A 
ATOM     15  C   UNL     1      -4.195 -11.698  17.927  0.00  0.00    +0.023 A 
ATOM     16  C   UNL     1      -6.015 -10.253  17.267  0.00  0.00    +0.023 A 
ATOM     19  C   UNL     1      -4.703 -11.742  19.226  0.00  0.00    +0.002 A 
ATOM     20  C   UNL     1      -6.522 -10.297  18.566  0.00  0.00    +0.002 A 
ATOM     21  C   UNL     1      -5.866 -11.042  19.545  0.00  0.00    +0.000 A 
ENDBRANCH   4  13
BRANCH   3  12
ATOM     12  C   UNL     1      -3.467  -9.172  10.036  0.00  0.00    +0.121 C 
BRANCH  12  14
ATOM      5  N   UNL     1      -6.672  -9.156   8.021  0.00  0.00    -0.263 NA
ATOM     14  C   UNL     1      -4.548  -9.610   9.084  0.00  0.00    -0.015 A 
ATOM     17  C   UNL     1      -4.458 -10.819   8.403  0.00  0.00    +0.008 A 
ATOM     18  C   UNL     1      -5.666  -8.823   8.860  0.00  0.00    +0.115 A 
ATOM     22  C   UNL     1      -5.472 -11.197   7.531  0.00  0.00    +0.020 A 
ATOM     23  C   UNL     1      -6.549 -10.339   7.376  0.00  0.00    +0.111 A 
ENDBRANCH  12  14
ENDBRANCH   3  12
TORSDOF 3
ENDMDL
MODEL 5
REMARK VINA RESULT:      -6.1     26.930     29.760
REMARK  Name = 75537053
REMARK  3 active torsions:
REMARK  status: ('A' for Active; 'I' for Inactive)
REMARK    1  A    between atoms: N_3  and  C_12
REMARK    2  A    between atoms: N_4  and  C_13
REMARK    3  A    between atoms: C_12  and  C_14
REMARK                            x       y       z     vdW  Elec       q    Type
REMARK                         _______ _______ _______ _____ _____    ______ ____
ROOT
ATOM      1  O   UNL     1      -4.910 -11.953  18.453  0.00  0.00    -0.252 OA
ATOM      2  N   UNL     1      -6.654 -10.518  17.876  0.00  0.00    -0.278 N 
ATOM      3  N   UNL     1      -9.285  -9.559  17.606  0.00  0.00    -0.295 NA
ATOM      4  N   UNL     1      -4.934 -10.698  16.414  0.00  0.00    -0.254 N 
ATOM      6  C   UNL     1      -6.939  -9.531  16.865  0.00  0.00    +0.109 C 
ATOM      7  C   UNL     1      -8.400  -9.618  16.426  0.00  0.00    +0.109 C 
ATOM      8  C   UNL     1      -5.920  -9.835  15.774  0.00  0.00    +0.139 C 
ATOM      9  C   UNL     1      -7.548 -10.649  19.010  0.00  0.00    +0.125 C 
ATOM     10  C   UNL     1      -9.003 -10.675  18.531  0.00  0.00    +0.104 C 
ATOM     11  C   UNL     1      -5.419 -11.155  17.676  0.00  0.00    +0.309 C 
ENDROOT
BRANCH   4  13
ATOM     13  C   UNL     1      -3.711 -11.062  15.781  0.00  0.00    +0.038 A 
ATOM     15  C   UNL     1      -2.510 -10.499  16.209  0.00  0.00    +0.023 A 
ATOM     16  C   UNL     1      -3.717 -11.982  14.732  0.00  0.00    +0.023 A 
ATOM     19  C   UNL     1      -1.312 -10.857  15.589  0.00  0.00    +0.002 A 
ATOM     20  C   UNL     1      -2.519 -12.339  14.111  0.00  0.00    +0.002 A 
ATOM     21  C   UNL     1      -1.317 -11.777  14.540  0.00  0.00    +0.000 A 
ENDBRANCH   4  13
BRANCH   3  12
ATOM     12  C   UNL     1     -10.689  -9.583  17.193  0.00  0.00    +0.121 C 
BRANCH  12  14
ATOM      5  N   UNL     1     -11.984  -7.424  14.366  0.00  0.00    -0.263 NA
ATOM     14  C   UNL     1     -11.058  -8.362  16.393  0.00  0.00    -0.015 A 
ATOM     17  C   UNL     1     -10.834  -7.083  16.891  0.00  0.00    +0.008 A 
ATOM     18  C   UNL     1     -11.631  -8.477  15.137  0.00  0.00    +0.115 A 
ATOM     22  C   UNL     1     -11.185  -5.975  16.129  0.00  0.00    +0.020 A 
ATOM     23  C   UNL     1     -11.752  -6.197  14.884  0.00  0.00    +0.111 A 
ENDBRANCH  12  14
ENDBRANCH   3  12
TORSDOF 3
ENDMDL
MODEL 6
REMARK VINA RESULT:      -6.1     28.448     32.077
REMARK  Name = 75537053
REMARK  3 active torsions:
REMARK  status: ('A' for Active; 'I' for Inactive)
REMARK    1  A    between atoms: N_3  and  C_12
REMARK    2  A    between atoms: N_4  and  C_13
REMARK    3  A    between atoms: C_12  and  C_14
REMARK                            x       y       z     vdW  Elec       q    Type
REMARK                         _______ _______ _______ _____ _____    ______ ____
ROOT
ATOM      1  O   UNL     1     -15.043   8.065  19.507  0.00  0.00    -0.252 OA
ATOM      2  N   UNL     1     -14.968   6.328  21.059  0.00  0.00    -0.278 N 
ATOM      3  N   UNL     1     -15.675   4.771  23.294  0.00  0.00    -0.295 NA
ATOM      4  N   UNL     1     -12.989   7.155  20.335  0.00  0.00    -0.254 N 
ATOM      6  C   UNL     1     -13.981   5.457  21.646  0.00  0.00    +0.109 C 
ATOM      7  C   UNL     1     -14.281   5.227  23.127  0.00  0.00    +0.109 C 
ATOM      8  C   UNL     1     -12.664   6.169  21.360  0.00  0.00    +0.139 C 
ATOM      9  C   UNL     1     -16.375   6.058  21.286  0.00  0.00    +0.125 C 
ATOM     10  C   UNL     1     -16.622   5.776  22.771  0.00  0.00    +0.104 C 
ATOM     11  C   UNL     1     -14.403   7.284  20.200  0.00  0.00    +0.309 C 
ENDROOT
BRANCH   4  13
ATOM     13  C   UNL     1     -11.990   7.911  19.658  0.00  0.00    +0.038 A 
ATOM     15  C   UNL     1     -11.503   7.476  18.426  0.00  0.00    +0.023 A 
ATOM     16  C   UNL     1     -11.498   9.086  20.228  0.00  0.00    +0.023 A 
ATOM     19  C   UNL     1     -10.524   8.217  17.762  0.00  0.00    +0.002 A 
ATOM     20  C   UNL     1     -10.519   9.826  19.564  0.00  0.00    +0.002 A 
ATOM     21  C   UNL     1     -10.032   9.392  18.332  0.00  0.00    +0.000 A 
ENDBRANCH   4  13
BRANCH   3  12
ATOM     12  C   UNL     1     -15.955   4.491  24.702  0.00  0.00    +0.121 C 
BRANCH  12  14
ATOM      5  N   UNL     1     -17.447   1.094  23.954  0.00  0.00    -0.263 NA
ATOM     14  C   UNL     1     -16.471   3.091  24.903  0.00  0.00    -0.015 A 
ATOM     17  C   UNL     1     -16.465   2.499  26.162  0.00  0.00    +0.008 A 
ATOM     18  C   UNL     1     -16.968   2.352  23.842  0.00  0.00    +0.115 A 
ATOM     22  C   UNL     1     -16.949   1.205  26.317  0.00  0.00    +0.020 A 
ATOM     23  C   UNL     1     -17.425   0.550  25.192  0.00  0.00    +0.111 A 
ENDBRANCH  12  14
ENDBRANCH   3  12
TORSDOF 3
ENDMDL
MODEL 7
REMARK VINA RESULT:      -5.9     33.782     35.369
REMARK  Name = 75537053
REMARK  3 active torsions:
REMARK  status: ('A' for Active; 'I' for Inactive)
REMARK    1  A    between atoms: N_3  and  C_12
REMARK    2  A    between atoms: N_4  and  C_13
REMARK    3  A    between atoms: C_12  and  C_14
REMARK                            x       y       z     vdW  Elec       q    Type
REMARK                         _______ _______ _______ _____ _____    ______ ____
ROOT
ATOM      1  O   UNL     1     -15.447  -0.491  29.862  0.00  0.00    -0.252 OA
ATOM      2  N   UNL     1     -15.143   1.596  30.855  0.00  0.00    -0.278 N 
ATOM      3  N   UNL     1     -14.871   3.522  32.888  0.00  0.00    -0.295 NA
ATOM      4  N   UNL     1     -16.417   1.514  28.985  0.00  0.00    -0.254 N 
ATOM      6  C   UNL     1     -15.422   2.977  30.553  0.00  0.00    +0.109 C 
ATOM      7  C   UNL     1     -15.861   3.724  31.811  0.00  0.00    +0.109 C 
ATOM      8  C   UNL     1     -16.475   2.895  29.454  0.00  0.00    +0.139 C 
ATOM      9  C   UNL     1     -14.300   1.276  31.990  0.00  0.00    +0.125 C 
ATOM     10  C   UNL     1     -14.736   2.088  33.213  0.00  0.00    +0.104 C 
ATOM     11  C   UNL     1     -15.645   0.717  29.882  0.00  0.00    +0.309 C 
ENDROOT
BRANCH   4  13
ATOM     13  C   UNL     1     -17.122   1.069  27.830  0.00  0.00    +0.038 A 
ATOM     15  C   UNL     1     -18.414   0.558  27.956  0.00  0.00    +0.023 A 
ATOM     16  C   UNL     1     -16.521   1.144  26.574  0.00  0.00    +0.023 A 
ATOM     19  C   UNL     1     -19.105   0.123  26.825  0.00  0.00    +0.002 A 
ATOM     20  C   UNL     1     -17.212   0.709  25.442  0.00  0.00    +0.002 A 
ATOM     21  C   UNL     1     -18.503   0.198  25.568  0.00  0.00    +0.000 A 
ENDBRANCH   4  13
BRANCH   3  12
ATOM     12  C   UNL     1     -15.251   4.281  34.079  0.00  0.00    +0.121 C 
BRANCH  12  14
ATOM      5  N   UNL     1     -13.082   6.949  35.661  0.00  0.00    -0.263 NA
ATOM     14  C   UNL     1     -14.423   5.528  34.238  0.00  0.00    -0.015 A 
ATOM     17  C   UNL     1     -14.223   6.396  33.170  0.00  0.00    +0.008 A 
ATOM     18  C   UNL     1     -13.835   5.847  35.451  0.00  0.00    +0.115 A 
ATOM     22  C   UNL     1     -13.453   7.540  33.347  0.00  0.00    +0.020 A 
ATOM     23  C   UNL     1     -12.909   7.770  34.601  0.00  0.00    +0.111 A 
ENDBRANCH  12  14
ENDBRANCH   3  12
TORSDOF 3
ENDMDL
MODEL 8
REMARK VINA RESULT:      -5.8     27.211     30.285
REMARK  Name = 75537053
REMARK  3 active torsions:
REMARK  status: ('A' for Active; 'I' for Inactive)
REMARK    1  A    between atoms: N_3  and  C_12
REMARK    2  A    between atoms: N_4  and  C_13
REMARK    3  A    between atoms: C_12  and  C_14
REMARK                            x       y       z     vdW  Elec       q    Type
REMARK                         _______ _______ _______ _____ _____    ______ ____
ROOT
ATOM      1  O   UNL     1      -7.827 -10.734  19.737  0.00  0.00    -0.252 OA
ATOM      2  N   UNL     1      -6.255 -11.180  18.075  0.00  0.00    -0.278 N 
ATOM      3  N   UNL     1      -3.740 -11.445  16.842  0.00  0.00    -0.295 NA
ATOM      4  N   UNL     1      -8.168 -10.149  17.441  0.00  0.00    -0.254 N 
ATOM      6  C   UNL     1      -6.170 -11.123  16.637  0.00  0.00    +0.109 C 
ATOM      7  C   UNL     1      -4.791 -10.632  16.199  0.00  0.00    +0.109 C 
ATOM      8  C   UNL     1      -7.330 -10.213  16.249  0.00  0.00    +0.139 C 
ATOM      9  C   UNL     1      -5.194 -11.828  18.821  0.00  0.00    +0.125 C 
ATOM     10  C   UNL     1      -3.830 -11.352  18.313  0.00  0.00    +0.104 C 
ATOM     11  C   UNL     1      -7.478 -10.693  18.564  0.00  0.00    +0.309 C 
ENDROOT
BRANCH   4  13
ATOM     13  C   UNL     1      -9.456  -9.540  17.437  0.00  0.00    +0.038 A 
ATOM     15  C   UNL     1     -10.575 -10.273  17.832  0.00  0.00    +0.023 A 
ATOM     16  C   UNL     1      -9.598  -8.211  17.037  0.00  0.00    +0.023 A 
ATOM     19  C   UNL     1     -11.836  -9.677  17.829  0.00  0.00    +0.002 A 
ATOM     20  C   UNL     1     -10.860  -7.615  17.034  0.00  0.00    +0.002 A 
ATOM     21  C   UNL     1     -11.978  -8.348  17.429  0.00  0.00    +0.000 A 
ENDBRANCH   4  13
BRANCH   3  12
ATOM     12  C   UNL     1      -2.416 -11.022  16.384  0.00  0.00    +0.121 C 
BRANCH  12  14
ATOM      5  N   UNL     1      -2.138 -12.800  13.054  0.00  0.00    -0.263 NA
ATOM     14  C   UNL     1      -2.234 -11.251  14.908  0.00  0.00    -0.015 A 
ATOM     17  C   UNL     1      -1.998 -10.189  14.041  0.00  0.00    +0.008 A 
ATOM     18  C   UNL     1      -2.294 -12.525  14.368  0.00  0.00    +0.115 A 
ATOM     22  C   UNL     1      -1.833 -10.431  12.682  0.00  0.00    +0.020 A 
ATOM     23  C   UNL     1      -1.911 -11.743  12.242  0.00  0.00    +0.111 A 
ENDBRANCH  12  14
ENDBRANCH   3  12
TORSDOF 3
ENDMDL
MODEL 9
REMARK VINA RESULT:      -5.8     27.753     31.306
REMARK  Name = 75537053
REMARK  3 active torsions:
REMARK  status: ('A' for Active; 'I' for Inactive)
REMARK    1  A    between atoms: N_3  and  C_12
REMARK    2  A    between atoms: N_4  and  C_13
REMARK    3  A    between atoms: C_12  and  C_14
REMARK                            x       y       z     vdW  Elec       q    Type
REMARK                         _______ _______ _______ _____ _____    ______ ____
ROOT
ATOM      1  O   UNL     1     -10.677  -9.849  19.155  0.00  0.00    -0.252 OA
ATOM      2  N   UNL     1      -8.671 -10.467  18.142  0.00  0.00    -0.278 N 
ATOM      3  N   UNL     1      -5.947 -11.129  17.899  0.00  0.00    -0.295 NA
ATOM      4  N   UNL     1     -10.004  -9.031  17.008  0.00  0.00    -0.254 N 
ATOM      6  C   UNL     1      -8.025 -10.316  16.862  0.00  0.00    +0.109 C 
ATOM      7  C   UNL     1      -6.527 -10.076  17.042  0.00  0.00    +0.109 C 
ATOM      8  C   UNL     1      -8.788  -9.168  16.213  0.00  0.00    +0.139 C 
ATOM      9  C   UNL     1      -8.096 -11.368  19.122  0.00  0.00    +0.125 C 
ATOM     10  C   UNL     1      -6.587 -11.135  19.230  0.00  0.00    +0.104 C 
ATOM     11  C   UNL     1      -9.897  -9.787  18.213  0.00  0.00    +0.309 C 
ENDROOT
BRANCH   4  13
ATOM     13  C   UNL     1     -11.079  -8.181  16.620  0.00  0.00    +0.038 A 
ATOM     15  C   UNL     1     -12.362  -8.705  16.471  0.00  0.00    +0.023 A 
ATOM     16  C   UNL     1     -10.847  -6.825  16.388  0.00  0.00    +0.023 A 
ATOM     19  C   UNL     1     -13.416  -7.872  16.091  0.00  0.00    +0.002 A 
ATOM     20  C   UNL     1     -11.900  -5.992  16.008  0.00  0.00    +0.002 A 
ATOM     21  C   UNL     1     -13.184  -6.516  15.860  0.00  0.00    +0.000 A 
ENDBRANCH   4  13
BRANCH   3  12
ATOM     12  C   UNL     1      -4.502 -10.942  18.029  0.00  0.00    +0.121 C 
BRANCH  12  14
ATOM      5  N   UNL     1      -3.566 -12.897  14.926  0.00  0.00    -0.263 NA
ATOM     14  C   UNL     1      -3.767 -11.365  16.785  0.00  0.00    -0.015 A 
ATOM     17  C   UNL     1      -2.653 -10.664  16.337  0.00  0.00    +0.008 A 
ATOM     18  C   UNL     1      -4.179 -12.464  16.049  0.00  0.00    +0.115 A 
ATOM     22  C   UNL     1      -1.994 -11.078  15.185  0.00  0.00    +0.020 A 
ATOM     23  C   UNL     1      -2.486 -12.191  14.521  0.00  0.00    +0.111 A 
ENDBRANCH  12  14
ENDBRANCH   3  12
TORSDOF 3
ENDMDL
MODEL 10
REMARK VINA RESULT:      -5.7     29.127     32.609
REMARK  Name = 75537053
REMARK  3 active torsions:
REMARK  status: ('A' for Active; 'I' for Inactive)
REMARK    1  A    between atoms: N_3  and  C_12
REMARK    2  A    between atoms: N_4  and  C_13
REMARK    3  A    between atoms: C_12  and  C_14
REMARK                            x       y       z     vdW  Elec       q    Type
REMARK                         _______ _______ _______ _____ _____    ______ ____
ROOT
ATOM      1  O   UNL     1     -12.335  -8.476  12.894  0.00  0.00    -0.252 OA
ATOM      2  N   UNL     1     -10.746  -8.472  14.600  0.00  0.00    -0.278 N 
ATOM      3  N   UNL     1      -9.241  -9.400  16.788  0.00  0.00    -0.295 NA
ATOM      4  N   UNL     1     -11.863  -6.540  14.221  0.00  0.00    -0.254 N 
ATOM      6  C   UNL     1     -10.107  -7.514  15.466  0.00  0.00    +0.109 C 
ATOM      7  C   UNL     1      -9.926  -8.095  16.868  0.00  0.00    +0.109 C 
ATOM      8  C   UNL     1     -11.021  -6.298  15.387  0.00  0.00    +0.139 C 
ATOM      9  C   UNL     1     -10.245  -9.832  14.556  0.00  0.00    +0.125 C 
ATOM     10  C   UNL     1     -10.023 -10.355  15.978  0.00  0.00    +0.104 C 
ATOM     11  C   UNL     1     -11.728  -7.890  13.782  0.00  0.00    +0.309 C 
ENDROOT
BRANCH   4  13
ATOM     13  C   UNL     1     -12.738  -5.548  13.691  0.00  0.00    +0.038 A 
ATOM     15  C   UNL     1     -12.221  -4.486  12.951  0.00  0.00    +0.023 A 
ATOM     16  C   UNL     1     -14.113  -5.641  13.913  0.00  0.00    +0.023 A 
ATOM     19  C   UNL     1     -13.079  -3.515  12.432  0.00  0.00    +0.002 A 
ATOM     20  C   UNL     1     -14.970  -4.670  13.394  0.00  0.00    +0.002 A 
ATOM     21  C   UNL     1     -14.453  -3.607  12.654  0.00  0.00    +0.000 A 
ENDBRANCH   4  13
BRANCH   3  12
ATOM     12  C   UNL     1      -9.009  -9.938  18.129  0.00  0.00    +0.121 C 
BRANCH  12  14
ATOM      5  N   UNL     1      -5.308 -10.407  17.491  0.00  0.00    -0.263 NA
ATOM     14  C   UNL     1      -7.575 -10.349  18.328  0.00  0.00    -0.015 A 
ATOM     17  C   UNL     1      -7.176 -11.027  19.475  0.00  0.00    +0.008 A 
ATOM     18  C   UNL     1      -6.610 -10.066  17.375  0.00  0.00    +0.115 A 
ATOM     22  C   UNL     1      -5.845 -11.394  19.631  0.00  0.00    +0.020 A 
ATOM     23  C   UNL     1      -4.957 -11.064  18.619  0.00  0.00    +0.111 A 
ENDBRANCH  12  14
ENDBRANCH   3  12
TORSDOF 3
ENDMDL
