MODEL 1
REMARK VINA RESULT:      -5.7      0.000      0.000
REMARK  Name = 38030138
REMARK  12 active torsions:
REMARK  status: ('A' for Active; 'I' for Inactive)
REMARK    1  A    between atoms: O_1  and  C_13
REMARK    2  A    between atoms: N_3  and  C_18
REMARK    3  A    between atoms: N_3  and  C_19
REMARK    4  A    between atoms: C_5  and  C_9
REMARK    5  A    between atoms: C_7  and  C_13
REMARK    6  A    between atoms: C_8  and  C_12
REMARK    7  A    between atoms: C_9  and  C_14
REMARK    8  A    between atoms: C_9  and  C_15
REMARK    9  A    between atoms: C_10  and  C_16
REMARK   10  A    between atoms: C_12  and  C_17
REMARK   11  A    between atoms: C_18  and  C_20
REMARK   12  A    between atoms: C_20  and  C_21
REMARK                            x       y       z     vdW  Elec       q    Type
REMARK                         _______ _______ _______ _____ _____    ______ ____
ROOT
ATOM      5  C   UNL     1      -3.480   0.533  24.844  0.00  0.00    +0.001 C 
ATOM      6  C   UNL     1      -2.095   0.657  25.495  0.00  0.00    +0.012 C 
ATOM      7  C   UNL     1      -4.398   1.694  25.299  0.00  0.00    +0.040 C 
ATOM      8  C   UNL     1      -1.404   1.990  25.146  0.00  0.00    +0.023 C 
ATOM     10  C   UNL     1      -2.341   3.170  25.315  0.00  0.00    -0.073 C 
ATOM     11  C   UNL     1      -3.675   3.017  25.394  0.00  0.00    -0.022 C 
ATOM     16  C   UNL     1      -1.705   4.526  25.436  0.00  0.00    +0.039 C 
ENDROOT
BRANCH   5   9
ATOM      9  C   UNL     1      -4.087  -0.834  25.174  0.00  0.00    -0.013 C 
ATOM     14  C   UNL     1      -4.210  -1.682  23.911  0.00  0.00    +0.007 C 
ATOM     15  C   UNL     1      -3.246  -1.550  26.227  0.00  0.00    +0.007 C 
ENDBRANCH   5   9
BRANCH   8  12
ATOM     12  C   UNL     1      -0.816   1.954  23.732  0.00  0.00    +0.103 C 
BRANCH  12  17
ATOM      2  O   UNL     1       1.524   2.217  24.179  0.00  0.00    -0.276 OA
ATOM      3  N   UNL     1       0.867   0.236  23.169  0.00  0.00    -0.304 N 
ATOM     17  C   UNL     1       0.631   1.498  23.722  0.00  0.00    +0.216 C 
ATOM     19  C   UNL     1      -0.204  -0.596  22.635  0.00  0.00    +0.132 C 
BRANCH   3  18
ATOM     18  C   UNL     1       2.206  -0.346  23.086  0.00  0.00    +0.122 C 
BRANCH  18  20
ATOM     20  C   UNL     1       3.229   0.628  22.515  0.00  0.00    +0.137 C 
BRANCH  20  21
ATOM      4  N   UNL     1       5.616   0.264  23.559  0.00  0.00    -0.197 NA
ATOM     21  C   UNL     1       4.563   0.424  23.100  0.00  0.00    +0.064 C 
ENDBRANCH  20  21
ENDBRANCH  18  20
ENDBRANCH   3  18
ENDBRANCH  12  17
ENDBRANCH   8  12
BRANCH   7  13
ATOM     13  C   UNL     1      -5.608   1.840  24.368  0.00  0.00    +0.163 C 
BRANCH  13   1
ATOM      1  O   UNL     1      -6.760   2.025  25.165  0.00  0.00    -0.394 OA
ATOM     22  H   UNL     1      -7.512   2.147  24.560  0.00  0.00    +0.209 HD
ENDBRANCH  13   1
ENDBRANCH   7  13
TORSDOF 8
ENDMDL
MODEL 2
REMARK VINA RESULT:      -5.5     13.461     15.777
REMARK  Name = 38030138
REMARK  12 active torsions:
REMARK  status: ('A' for Active; 'I' for Inactive)
REMARK    1  A    between atoms: O_1  and  C_13
REMARK    2  A    between atoms: N_3  and  C_18
REMARK    3  A    between atoms: N_3  and  C_19
REMARK    4  A    between atoms: C_5  and  C_9
REMARK    5  A    between atoms: C_7  and  C_13
REMARK    6  A    between atoms: C_8  and  C_12
REMARK    7  A    between atoms: C_9  and  C_14
REMARK    8  A    between atoms: C_9  and  C_15
REMARK    9  A    between atoms: C_10  and  C_16
REMARK   10  A    between atoms: C_12  and  C_17
REMARK   11  A    between atoms: C_18  and  C_20
REMARK   12  A    between atoms: C_20  and  C_21
REMARK                            x       y       z     vdW  Elec       q    Type
REMARK                         _______ _______ _______ _____ _____    ______ ____
ROOT
ATOM      5  C   UNL     1     -12.064   9.743  18.977  0.00  0.00    +0.001 C 
ATOM      6  C   UNL     1     -12.114   9.836  20.510  0.00  0.00    +0.012 C 
ATOM      7  C   UNL     1     -11.161   8.564  18.537  0.00  0.00    +0.040 C 
ATOM      8  C   UNL     1     -12.651   8.544  21.155  0.00  0.00    +0.023 C 
ATOM     10  C   UNL     1     -11.992   7.309  20.573  0.00  0.00    -0.073 C 
ATOM     11  C   UNL     1     -11.319   7.340  19.408  0.00  0.00    -0.022 C 
ATOM     16  C   UNL     1     -12.086   6.047  21.383  0.00  0.00    +0.039 C 
ENDROOT
BRANCH   5   9
ATOM      9  C   UNL     1     -11.584  11.076  18.393  0.00  0.00    -0.013 C 
ATOM     14  C   UNL     1     -11.951  12.228  19.323  0.00  0.00    +0.007 C 
ATOM     15  C   UNL     1     -10.080  11.038  18.145  0.00  0.00    +0.007 C 
ENDBRANCH   5   9
BRANCH   8  12
ATOM     12  C   UNL     1     -14.176   8.460  21.037  0.00  0.00    +0.103 C 
BRANCH  12  17
ATOM      2  O   UNL     1     -14.664   8.435  23.383  0.00  0.00    -0.276 OA
ATOM      3  N   UNL     1     -15.579   6.731  22.105  0.00  0.00    -0.304 N 
ATOM     17  C   UNL     1     -14.819   7.890  22.287  0.00  0.00    +0.216 C 
ATOM     19  C   UNL     1     -15.749   6.104  20.800  0.00  0.00    +0.132 C 
BRANCH   3  18
ATOM     18  C   UNL     1     -16.263   6.060  23.209  0.00  0.00    +0.122 C 
BRANCH  18  20
ATOM     20  C   UNL     1     -15.454   4.899  23.776  0.00  0.00    +0.137 C 
BRANCH  20  21
ATOM      4  N   UNL     1     -16.501   2.573  23.131  0.00  0.00    -0.197 NA
ATOM     21  C   UNL     1     -16.039   3.598  23.415  0.00  0.00    +0.064 C 
ENDBRANCH  20  21
ENDBRANCH  18  20
ENDBRANCH   3  18
ENDBRANCH  12  17
ENDBRANCH   8  12
BRANCH   7  13
ATOM     13  C   UNL     1     -11.420   8.186  17.074  0.00  0.00    +0.163 C 
BRANCH  13   1
ATOM      1  O   UNL     1     -10.246   7.595  16.554  0.00  0.00    -0.394 OA
ATOM     22  H   UNL     1     -10.074   8.009  15.691  0.00  0.00    +0.209 HD
ENDBRANCH  13   1
ENDBRANCH   7  13
TORSDOF 8
ENDMDL
MODEL 3
REMARK VINA RESULT:      -5.3     14.594     15.804
REMARK  Name = 38030138
REMARK  12 active torsions:
REMARK  status: ('A' for Active; 'I' for Inactive)
REMARK    1  A    between atoms: O_1  and  C_13
REMARK    2  A    between atoms: N_3  and  C_18
REMARK    3  A    between atoms: N_3  and  C_19
REMARK    4  A    between atoms: C_5  and  C_9
REMARK    5  A    between atoms: C_7  and  C_13
REMARK    6  A    between atoms: C_8  and  C_12
REMARK    7  A    between atoms: C_9  and  C_14
REMARK    8  A    between atoms: C_9  and  C_15
REMARK    9  A    between atoms: C_10  and  C_16
REMARK   10  A    between atoms: C_12  and  C_17
REMARK   11  A    between atoms: C_18  and  C_20
REMARK   12  A    between atoms: C_20  and  C_21
REMARK                            x       y       z     vdW  Elec       q    Type
REMARK                         _______ _______ _______ _____ _____    ______ ____
ROOT
ATOM      5  C   UNL     1      -7.210 -11.777  16.961  0.00  0.00    +0.001 C 
ATOM      6  C   UNL     1      -5.963 -12.459  16.378  0.00  0.00    +0.012 C 
ATOM      7  C   UNL     1      -7.355 -12.110  18.467  0.00  0.00    +0.040 C 
ATOM      8  C   UNL     1      -4.672 -12.027  17.099  0.00  0.00    +0.023 C 
ATOM     10  C   UNL     1      -4.827 -12.073  18.606  0.00  0.00    -0.073 C 
ATOM     11  C   UNL     1      -6.033 -12.123  19.199  0.00  0.00    -0.022 C 
ATOM     16  C   UNL     1      -3.560 -12.106  19.415  0.00  0.00    +0.039 C 
ENDROOT
BRANCH   5   9
ATOM      9  C   UNL     1      -8.450 -12.196  16.165  0.00  0.00    -0.013 C 
ATOM     14  C   UNL     1      -8.255 -11.899  14.681  0.00  0.00    +0.007 C 
ATOM     15  C   UNL     1      -8.751 -13.675  16.386  0.00  0.00    +0.007 C 
ENDBRANCH   5   9
BRANCH   8  12
ATOM     12  C   UNL     1      -4.219 -10.639  16.636  0.00  0.00    +0.103 C 
BRANCH  12  17
ATOM      2  O   UNL     1      -1.847 -10.817  16.345  0.00  0.00    -0.276 OA
ATOM      3  N   UNL     1      -3.124 -10.599  14.422  0.00  0.00    -0.304 N 
ATOM     17  C   UNL     1      -2.950 -10.695  15.806  0.00  0.00    +0.216 C 
ATOM     19  C   UNL     1      -4.438 -10.455  13.808  0.00  0.00    +0.132 C 
BRANCH   3  18
ATOM     18  C   UNL     1      -2.002 -10.637  13.486  0.00  0.00    +0.122 C 
BRANCH  18  20
ATOM     20  C   UNL     1      -2.072 -11.830  12.541  0.00  0.00    +0.137 C 
BRANCH  20  21
ATOM      4  N   UNL     1      -1.676 -14.104  13.805  0.00  0.00    -0.197 NA
ATOM     21  C   UNL     1      -1.852 -13.101  13.249  0.00  0.00    +0.064 C 
ENDBRANCH  20  21
ENDBRANCH  18  20
ENDBRANCH   3  18
ENDBRANCH  12  17
ENDBRANCH   8  12
BRANCH   7  13
ATOM     13  C   UNL     1      -8.312 -11.135  19.160  0.00  0.00    +0.163 C 
BRANCH  13   1
ATOM      1  O   UNL     1      -7.560 -10.327  20.043  0.00  0.00    -0.394 OA
ATOM     22  H   UNL     1      -6.626 -10.573  19.933  0.00  0.00    +0.209 HD
ENDBRANCH  13   1
ENDBRANCH   7  13
TORSDOF 8
ENDMDL
MODEL 4
REMARK VINA RESULT:      -5.2     14.748     16.397
REMARK  Name = 38030138
REMARK  12 active torsions:
REMARK  status: ('A' for Active; 'I' for Inactive)
REMARK    1  A    between atoms: O_1  and  C_13
REMARK    2  A    between atoms: N_3  and  C_18
REMARK    3  A    between atoms: N_3  and  C_19
REMARK    4  A    between atoms: C_5  and  C_9
REMARK    5  A    between atoms: C_7  and  C_13
REMARK    6  A    between atoms: C_8  and  C_12
REMARK    7  A    between atoms: C_9  and  C_14
REMARK    8  A    between atoms: C_9  and  C_15
REMARK    9  A    between atoms: C_10  and  C_16
REMARK   10  A    between atoms: C_12  and  C_17
REMARK   11  A    between atoms: C_18  and  C_20
REMARK   12  A    between atoms: C_20  and  C_21
REMARK                            x       y       z     vdW  Elec       q    Type
REMARK                         _______ _______ _______ _____ _____    ______ ____
ROOT
ATOM      5  C   UNL     1     -14.805   2.213  30.779  0.00  0.00    +0.001 C 
ATOM      6  C   UNL     1     -16.082   3.040  30.567  0.00  0.00    +0.012 C 
ATOM      7  C   UNL     1     -15.105   0.703  30.614  0.00  0.00    +0.040 C 
ATOM      8  C   UNL     1     -16.698   2.815  29.173  0.00  0.00    +0.023 C 
ATOM     10  C   UNL     1     -16.779   1.342  28.825  0.00  0.00    -0.073 C 
ATOM     11  C   UNL     1     -16.070   0.411  29.489  0.00  0.00    -0.022 C 
ATOM     16  C   UNL     1     -17.730   0.958  27.726  0.00  0.00    +0.039 C 
ENDROOT
BRANCH   5   9
ATOM      9  C   UNL     1     -14.206   2.527  32.153  0.00  0.00    -0.013 C 
ATOM     14  C   UNL     1     -13.131   3.604  32.033  0.00  0.00    +0.007 C 
ATOM     15  C   UNL     1     -15.300   2.961  33.124  0.00  0.00    +0.007 C 
ENDBRANCH   5   9
BRANCH   8  12
ATOM     12  C   UNL     1     -15.930   3.591  28.098  0.00  0.00    +0.103 C 
BRANCH  12  17
ATOM      2  O   UNL     1     -17.688   5.137  27.584  0.00  0.00    -0.276 OA
ATOM      3  N   UNL     1     -16.698   4.044  25.794  0.00  0.00    -0.304 N 
ATOM     17  C   UNL     1     -16.856   4.334  27.153  0.00  0.00    +0.216 C 
ATOM     19  C   UNL     1     -15.707   3.091  25.309  0.00  0.00    +0.132 C 
BRANCH   3  18
ATOM     18  C   UNL     1     -17.512   4.676  24.758  0.00  0.00    +0.122 C 
BRANCH  18  20
ATOM     20  C   UNL     1     -16.692   5.080  23.539  0.00  0.00    +0.137 C 
BRANCH  20  21
ATOM      4  N   UNL     1     -17.593   3.954  21.338  0.00  0.00    -0.197 NA
ATOM     21  C   UNL     1     -17.194   4.450  22.308  0.00  0.00    +0.064 C 
ENDBRANCH  20  21
ENDBRANCH  18  20
ENDBRANCH   3  18
ENDBRANCH  12  17
ENDBRANCH   8  12
BRANCH   7  13
ATOM     13  C   UNL     1     -13.815  -0.097  30.399  0.00  0.00    +0.163 C 
BRANCH  13   1
ATOM      1  O   UNL     1     -14.151  -1.325  29.786  0.00  0.00    -0.394 OA
ATOM     22  H   UNL     1     -14.135  -1.180  28.824  0.00  0.00    +0.209 HD
ENDBRANCH  13   1
ENDBRANCH   7  13
TORSDOF 8
ENDMDL
MODEL 5
REMARK VINA RESULT:      -5.1     14.208     15.243
REMARK  Name = 38030138
REMARK  12 active torsions:
REMARK  status: ('A' for Active; 'I' for Inactive)
REMARK    1  A    between atoms: O_1  and  C_13
REMARK    2  A    between atoms: N_3  and  C_18
REMARK    3  A    between atoms: N_3  and  C_19
REMARK    4  A    between atoms: C_5  and  C_9
REMARK    5  A    between atoms: C_7  and  C_13
REMARK    6  A    between atoms: C_8  and  C_12
REMARK    7  A    between atoms: C_9  and  C_14
REMARK    8  A    between atoms: C_9  and  C_15
REMARK    9  A    between atoms: C_10  and  C_16
REMARK   10  A    between atoms: C_12  and  C_17
REMARK   11  A    between atoms: C_18  and  C_20
REMARK   12  A    between atoms: C_20  and  C_21
REMARK                            x       y       z     vdW  Elec       q    Type
REMARK                         _______ _______ _______ _____ _____    ______ ____
ROOT
ATOM      5  C   UNL     1      -9.953  -9.536  17.930  0.00  0.00    +0.001 C 
ATOM      6  C   UNL     1      -9.081  -9.954  16.737  0.00  0.00    +0.012 C 
ATOM      7  C   UNL     1     -10.638 -10.774  18.560  0.00  0.00    +0.040 C 
ATOM      8  C   UNL     1      -7.989 -10.964  17.140  0.00  0.00    +0.023 C 
ATOM     10  C   UNL     1      -8.545 -12.083  17.998  0.00  0.00    -0.073 C 
ATOM     11  C   UNL     1      -9.737 -11.985  18.614  0.00  0.00    -0.022 C 
ATOM     16  C   UNL     1      -7.720 -13.335  18.094  0.00  0.00    +0.039 C 
ENDROOT
BRANCH   5   9
ATOM      9  C   UNL     1     -10.976  -8.487  17.482  0.00  0.00    -0.013 C 
ATOM     14  C   UNL     1     -10.291  -7.386  16.676  0.00  0.00    +0.007 C 
ATOM     15  C   UNL     1     -12.088  -9.141  16.668  0.00  0.00    +0.007 C 
ENDBRANCH   5   9
BRANCH   8  12
ATOM     12  C   UNL     1      -6.821 -10.263  17.842  0.00  0.00    +0.103 C 
BRANCH  12  17
ATOM      2  O   UNL     1      -5.662  -9.419  15.921  0.00  0.00    -0.276 OA
ATOM      3  N   UNL     1      -4.467 -10.814  17.335  0.00  0.00    -0.304 N 
ATOM     17  C   UNL     1      -5.611 -10.116  16.938  0.00  0.00    +0.216 C 
ATOM     19  C   UNL     1      -4.430 -11.633  18.542  0.00  0.00    +0.132 C 
BRANCH   3  18
ATOM     18  C   UNL     1      -3.220 -10.776  16.573  0.00  0.00    +0.122 C 
BRANCH  18  20
ATOM     20  C   UNL     1      -3.295 -11.597  15.292  0.00  0.00    +0.137 C 
BRANCH  20  21
ATOM      4  N   UNL     1      -2.124 -10.379  13.276  0.00  0.00    -0.197 NA
ATOM     21  C   UNL     1      -2.640 -10.915  14.166  0.00  0.00    +0.064 C 
ENDBRANCH  20  21
ENDBRANCH  18  20
ENDBRANCH   3  18
ENDBRANCH  12  17
ENDBRANCH   8  12
BRANCH   7  13
ATOM     13  C   UNL     1     -11.158 -10.462  19.969  0.00  0.00    +0.163 C 
BRANCH  13   1
ATOM      1  O   UNL     1     -10.054 -10.125  20.784  0.00  0.00    -0.394 OA
ATOM     22  H   UNL     1      -9.887  -9.174  20.664  0.00  0.00    +0.209 HD
ENDBRANCH  13   1
ENDBRANCH   7  13
TORSDOF 8
ENDMDL
MODEL 6
REMARK VINA RESULT:      -5.1     13.560     16.342
REMARK  Name = 38030138
REMARK  12 active torsions:
REMARK  status: ('A' for Active; 'I' for Inactive)
REMARK    1  A    between atoms: O_1  and  C_13
REMARK    2  A    between atoms: N_3  and  C_18
REMARK    3  A    between atoms: N_3  and  C_19
REMARK    4  A    between atoms: C_5  and  C_9
REMARK    5  A    between atoms: C_7  and  C_13
REMARK    6  A    between atoms: C_8  and  C_12
REMARK    7  A    between atoms: C_9  and  C_14
REMARK    8  A    between atoms: C_9  and  C_15
REMARK    9  A    between atoms: C_10  and  C_16
REMARK   10  A    between atoms: C_12  and  C_17
REMARK   11  A    between atoms: C_18  and  C_20
REMARK   12  A    between atoms: C_20  and  C_21
REMARK                            x       y       z     vdW  Elec       q    Type
REMARK                         _______ _______ _______ _____ _____    ______ ____
ROOT
ATOM      5  C   UNL     1     -12.598   8.165  15.003  0.00  0.00    +0.001 C 
ATOM      6  C   UNL     1     -13.301   9.003  16.082  0.00  0.00    +0.012 C 
ATOM      7  C   UNL     1     -11.223   8.783  14.648  0.00  0.00    +0.040 C 
ATOM      8  C   UNL     1     -12.466   9.109  17.372  0.00  0.00    +0.023 C 
ATOM     10  C   UNL     1     -11.020   9.457  17.080  0.00  0.00    -0.073 C 
ATOM     11  C   UNL     1     -10.486   9.317  15.854  0.00  0.00    -0.022 C 
ATOM     16  C   UNL     1     -10.214  10.012  18.221  0.00  0.00    +0.039 C 
ENDROOT
BRANCH   5   9
ATOM      9  C   UNL     1     -13.501   8.042  13.772  0.00  0.00    -0.013 C 
ATOM     14  C   UNL     1     -14.825   7.381  14.146  0.00  0.00    +0.007 C 
ATOM     15  C   UNL     1     -13.739   9.413  13.147  0.00  0.00    +0.007 C 
ENDBRANCH   5   9
BRANCH   8  12
ATOM     12  C   UNL     1     -12.565   7.825  18.202  0.00  0.00    +0.103 C 
BRANCH  12  17
ATOM      2  O   UNL     1     -14.706   8.374  19.130  0.00  0.00    -0.276 OA
ATOM      3  N   UNL     1     -13.108   7.553  20.596  0.00  0.00    -0.304 N 
ATOM     17  C   UNL     1     -13.566   7.948  19.336  0.00  0.00    +0.216 C 
ATOM     19  C   UNL     1     -11.757   7.053  20.816  0.00  0.00    +0.132 C 
BRANCH   3  18
ATOM     18  C   UNL     1     -13.951   7.611  21.790  0.00  0.00    +0.122 C 
BRANCH  18  20
ATOM     20  C   UNL     1     -14.312   6.227  22.315  0.00  0.00    +0.137 C 
BRANCH  20  21
ATOM      4  N   UNL     1     -16.069   5.023  20.772  0.00  0.00    -0.197 NA
ATOM     21  C   UNL     1     -15.295   5.554  21.453  0.00  0.00    +0.064 C 
ENDBRANCH  20  21
ENDBRANCH  18  20
ENDBRANCH   3  18
ENDBRANCH  12  17
ENDBRANCH   8  12
BRANCH   7  13
ATOM     13  C   UNL     1     -10.335   7.773  13.913  0.00  0.00    +0.163 C 
BRANCH  13   1
ATOM      1  O   UNL     1     -10.060   6.701  14.793  0.00  0.00    -0.394 OA
ATOM     22  H   UNL     1     -10.593   5.943  14.498  0.00  0.00    +0.209 HD
ENDBRANCH  13   1
ENDBRANCH   7  13
TORSDOF 8
ENDMDL
MODEL 7
REMARK VINA RESULT:      -5.0     13.695     15.847
REMARK  Name = 38030138
REMARK  12 active torsions:
REMARK  status: ('A' for Active; 'I' for Inactive)
REMARK    1  A    between atoms: O_1  and  C_13
REMARK    2  A    between atoms: N_3  and  C_18
REMARK    3  A    between atoms: N_3  and  C_19
REMARK    4  A    between atoms: C_5  and  C_9
REMARK    5  A    between atoms: C_7  and  C_13
REMARK    6  A    between atoms: C_8  and  C_12
REMARK    7  A    between atoms: C_9  and  C_14
REMARK    8  A    between atoms: C_9  and  C_15
REMARK    9  A    between atoms: C_10  and  C_16
REMARK   10  A    between atoms: C_12  and  C_17
REMARK   11  A    between atoms: C_18  and  C_20
REMARK   12  A    between atoms: C_20  and  C_21
REMARK                            x       y       z     vdW  Elec       q    Type
REMARK                         _______ _______ _______ _____ _____    ______ ____
ROOT
ATOM      5  C   UNL     1     -12.387   8.973  16.682  0.00  0.00    +0.001 C 
ATOM      6  C   UNL     1     -12.770  10.186  17.543  0.00  0.00    +0.012 C 
ATOM      7  C   UNL     1     -11.502   9.413  15.491  0.00  0.00    +0.040 C 
ATOM      8  C   UNL     1     -11.535  10.921  18.098  0.00  0.00    +0.023 C 
ATOM     10  C   UNL     1     -10.490  11.154  17.025  0.00  0.00    -0.073 C 
ATOM     11  C   UNL     1     -10.499  10.481  15.861  0.00  0.00    -0.022 C 
ATOM     16  C   UNL     1      -9.460  12.213  17.303  0.00  0.00    +0.039 C 
ENDROOT
BRANCH   5   9
ATOM      9  C   UNL     1     -13.653   8.249  16.214  0.00  0.00    -0.013 C 
ATOM     14  C   UNL     1     -14.652   8.126  17.361  0.00  0.00    +0.007 C 
ATOM     15  C   UNL     1     -14.278   8.980  15.030  0.00  0.00    +0.007 C 
ENDBRANCH   5   9
BRANCH   8  12
ATOM     12  C   UNL     1     -10.937  10.171  19.293  0.00  0.00    +0.103 C 
BRANCH  12  17
ATOM      2  O   UNL     1     -12.577  10.724  20.951  0.00  0.00    -0.276 OA
ATOM      3  N   UNL     1     -12.207   8.470  20.556  0.00  0.00    -0.304 N 
ATOM     17  C   UNL     1     -11.980   9.833  20.341  0.00  0.00    +0.216 C 
ATOM     19  C   UNL     1     -11.490   7.433  19.823  0.00  0.00    +0.132 C 
BRANCH   3  18
ATOM     18  C   UNL     1     -13.180   7.981  21.531  0.00  0.00    +0.122 C 
BRANCH  18  20
ATOM     20  C   UNL     1     -14.266   7.126  20.891  0.00  0.00    +0.137 C 
BRANCH  20  21
ATOM      4  N   UNL     1     -14.404   4.737  21.984  0.00  0.00    -0.197 NA
ATOM     21  C   UNL     1     -14.342   5.790  21.502  0.00  0.00    +0.064 C 
ENDBRANCH  20  21
ENDBRANCH  18  20
ENDBRANCH   3  18
ENDBRANCH  12  17
ENDBRANCH   8  12
BRANCH   7  13
ATOM     13  C   UNL     1     -10.769   8.216  14.874  0.00  0.00    +0.163 C 
BRANCH  13   1
ATOM      1  O   UNL     1     -10.193   7.461  15.921  0.00  0.00    -0.394 OA
ATOM     22  H   UNL     1     -10.712   6.644  16.006  0.00  0.00    +0.209 HD
ENDBRANCH  13   1
ENDBRANCH   7  13
TORSDOF 8
ENDMDL
MODEL 8
REMARK VINA RESULT:      -4.9     15.059     17.666
REMARK  Name = 38030138
REMARK  12 active torsions:
REMARK  status: ('A' for Active; 'I' for Inactive)
REMARK    1  A    between atoms: O_1  and  C_13
REMARK    2  A    between atoms: N_3  and  C_18
REMARK    3  A    between atoms: N_3  and  C_19
REMARK    4  A    between atoms: C_5  and  C_9
REMARK    5  A    between atoms: C_7  and  C_13
REMARK    6  A    between atoms: C_8  and  C_12
REMARK    7  A    between atoms: C_9  and  C_14
REMARK    8  A    between atoms: C_9  and  C_15
REMARK    9  A    between atoms: C_10  and  C_16
REMARK   10  A    between atoms: C_12  and  C_17
REMARK   11  A    between atoms: C_18  and  C_20
REMARK   12  A    between atoms: C_20  and  C_21
REMARK                            x       y       z     vdW  Elec       q    Type
REMARK                         _______ _______ _______ _____ _____    ______ ____
ROOT
ATOM      5  C   UNL     1      -3.956 -10.583  15.357  0.00  0.00    +0.001 C 
ATOM      6  C   UNL     1      -5.061 -11.291  14.559  0.00  0.00    +0.012 C 
ATOM      7  C   UNL     1      -2.689 -11.470  15.431  0.00  0.00    +0.040 C 
ATOM      8  C   UNL     1      -4.617 -11.629  13.123  0.00  0.00    +0.023 C 
ATOM     10  C   UNL     1      -3.244 -12.270  13.094  0.00  0.00    -0.073 C 
ATOM     11  C   UNL     1      -2.401 -12.200  14.140  0.00  0.00    -0.022 C 
ATOM     16  C   UNL     1      -2.879 -13.032  11.851  0.00  0.00    +0.039 C 
ENDROOT
BRANCH   5   9
ATOM      9  C   UNL     1      -4.477 -10.218  16.751  0.00  0.00    -0.013 C 
ATOM     14  C   UNL     1      -5.901  -9.675  16.662  0.00  0.00    +0.007 C 
ATOM     15  C   UNL     1      -4.417 -11.429  17.676  0.00  0.00    +0.007 C 
ENDBRANCH   5   9
BRANCH   8  12
ATOM     12  C   UNL     1      -4.663 -10.388  12.225  0.00  0.00    +0.103 C 
BRANCH  12  17
ATOM      2  O   UNL     1      -6.425 -11.507  11.047  0.00  0.00    -0.276 OA
ATOM      3  N   UNL     1      -5.751  -9.450  10.215  0.00  0.00    -0.304 N 
ATOM     17  C   UNL     1      -5.695 -10.515  11.120  0.00  0.00    +0.216 C 
ATOM     19  C   UNL     1      -4.877  -8.288  10.321  0.00  0.00    +0.132 C 
BRANCH   3  18
ATOM     18  C   UNL     1      -6.690  -9.421   9.095  0.00  0.00    +0.122 C 
BRANCH  18  20
ATOM     20  C   UNL     1      -7.921  -8.572   9.390  0.00  0.00    +0.137 C 
BRANCH  20  21
ATOM      4  N   UNL     1      -8.021  -6.431   7.865  0.00  0.00    -0.197 NA
ATOM     21  C   UNL     1      -7.977  -7.376   8.536  0.00  0.00    +0.064 C 
ENDBRANCH  20  21
ENDBRANCH  18  20
ENDBRANCH   3  18
ENDBRANCH  12  17
ENDBRANCH   8  12
BRANCH   7  13
ATOM     13  C   UNL     1      -1.461 -10.648  15.838  0.00  0.00    +0.163 C 
BRANCH  13   1
ATOM      1  O   UNL     1      -1.393  -9.510  15.002  0.00  0.00    -0.394 OA
ATOM     22  H   UNL     1      -0.665  -8.955  15.331  0.00  0.00    +0.209 HD
ENDBRANCH  13   1
ENDBRANCH   7  13
TORSDOF 8
ENDMDL
MODEL 9
REMARK VINA RESULT:      -4.9     14.518     17.132
REMARK  Name = 38030138
REMARK  12 active torsions:
REMARK  status: ('A' for Active; 'I' for Inactive)
REMARK    1  A    between atoms: O_1  and  C_13
REMARK    2  A    between atoms: N_3  and  C_18
REMARK    3  A    between atoms: N_3  and  C_19
REMARK    4  A    between atoms: C_5  and  C_9
REMARK    5  A    between atoms: C_7  and  C_13
REMARK    6  A    between atoms: C_8  and  C_12
REMARK    7  A    between atoms: C_9  and  C_14
REMARK    8  A    between atoms: C_9  and  C_15
REMARK    9  A    between atoms: C_10  and  C_16
REMARK   10  A    between atoms: C_12  and  C_17
REMARK   11  A    between atoms: C_18  and  C_20
REMARK   12  A    between atoms: C_20  and  C_21
REMARK                            x       y       z     vdW  Elec       q    Type
REMARK                         _______ _______ _______ _____ _____    ______ ____
ROOT
ATOM      5  C   UNL     1      -4.505 -10.299  11.862  0.00  0.00    +0.001 C 
ATOM      6  C   UNL     1      -5.211 -11.420  12.641  0.00  0.00    +0.012 C 
ATOM      7  C   UNL     1      -5.502  -9.585  10.918  0.00  0.00    +0.040 C 
ATOM      8  C   UNL     1      -6.387 -10.891  13.484  0.00  0.00    +0.023 C 
ATOM     10  C   UNL     1      -7.276  -9.957  12.686  0.00  0.00    -0.073 C 
ATOM     11  C   UNL     1      -6.868  -9.393  11.535  0.00  0.00    -0.022 C 
ATOM     16  C   UNL     1      -8.661  -9.721  13.220  0.00  0.00    +0.039 C 
ENDROOT
BRANCH   5   9
ATOM      9  C   UNL     1      -3.309 -10.875  11.097  0.00  0.00    -0.013 C 
ATOM     14  C   UNL     1      -2.301 -11.486  12.066  0.00  0.00    +0.007 C 
ATOM     15  C   UNL     1      -3.776 -11.909  10.078  0.00  0.00    +0.007 C 
ENDBRANCH   5   9
BRANCH   8  12
ATOM     12  C   UNL     1      -5.889 -10.215  14.765  0.00  0.00    +0.103 C 
BRANCH  12  17
ATOM      2  O   UNL     1      -7.184 -11.351  16.432  0.00  0.00    -0.276 OA
ATOM      3  N   UNL     1      -4.881 -11.591  16.552  0.00  0.00    -0.304 N 
ATOM     17  C   UNL     1      -6.062 -11.099  15.986  0.00  0.00    +0.216 C 
ATOM     19  C   UNL     1      -3.565 -11.280  16.007  0.00  0.00    +0.132 C 
BRANCH   3  18
ATOM     18  C   UNL     1      -4.877 -12.456  17.730  0.00  0.00    +0.122 C 
BRANCH  18  20
ATOM     20  C   UNL     1      -4.512 -11.703  19.004  0.00  0.00    +0.137 C 
BRANCH  20  21
ATOM      4  N   UNL     1      -6.641 -10.755  20.226  0.00  0.00    -0.197 NA
ATOM     21  C   UNL     1      -5.703 -11.174  19.687  0.00  0.00    +0.064 C 
ENDBRANCH  20  21
ENDBRANCH  18  20
ENDBRANCH   3  18
ENDBRANCH  12  17
ENDBRANCH   8  12
BRANCH   7  13
ATOM     13  C   UNL     1      -4.955  -8.229  10.457  0.00  0.00    +0.163 C 
BRANCH  13   1
ATOM      1  O   UNL     1      -4.669  -8.312   9.076  0.00  0.00    -0.394 OA
ATOM     22  H   UNL     1      -3.981  -8.990   8.964  0.00  0.00    +0.209 HD
ENDBRANCH  13   1
ENDBRANCH   7  13
TORSDOF 8
ENDMDL
MODEL 10
REMARK VINA RESULT:      -4.9     20.823     24.148
REMARK  Name = 38030138
REMARK  12 active torsions:
REMARK  status: ('A' for Active; 'I' for Inactive)
REMARK    1  A    between atoms: O_1  and  C_13
REMARK    2  A    between atoms: N_3  and  C_18
REMARK    3  A    between atoms: N_3  and  C_19
REMARK    4  A    between atoms: C_5  and  C_9
REMARK    5  A    between atoms: C_7  and  C_13
REMARK    6  A    between atoms: C_8  and  C_12
REMARK    7  A    between atoms: C_9  and  C_14
REMARK    8  A    between atoms: C_9  and  C_15
REMARK    9  A    between atoms: C_10  and  C_16
REMARK   10  A    between atoms: C_12  and  C_17
REMARK   11  A    between atoms: C_18  and  C_20
REMARK   12  A    between atoms: C_20  and  C_21
REMARK                            x       y       z     vdW  Elec       q    Type
REMARK                         _______ _______ _______ _____ _____    ______ ____
ROOT
ATOM      5  C   UNL     1      10.131   6.854   4.181  0.00  0.00    +0.001 C 
ATOM      6  C   UNL     1      10.890   5.897   5.113  0.00  0.00    +0.012 C 
ATOM      7  C   UNL     1       8.624   6.870   4.533  0.00  0.00    +0.040 C 
ATOM      8  C   UNL     1      10.740   6.286   6.596  0.00  0.00    +0.023 C 
ATOM     10  C   UNL     1       9.297   6.581   6.957  0.00  0.00    -0.073 C 
ATOM     11  C   UNL     1       8.363   6.827   6.021  0.00  0.00    -0.022 C 
ATOM     16  C   UNL     1       8.944   6.543   8.417  0.00  0.00    +0.039 C 
ENDROOT
BRANCH   5   9
ATOM      9  C   UNL     1      10.371   6.455   2.722  0.00  0.00    -0.013 C 
ATOM     14  C   UNL     1      11.468   7.318   2.106  0.00  0.00    +0.007 C 
ATOM     15  C   UNL     1      10.729   4.975   2.626  0.00  0.00    +0.007 C 
ENDBRANCH   5   9
BRANCH   8  12
ATOM     12  C   UNL     1      11.647   7.468   6.952  0.00  0.00    +0.103 C 
BRANCH  12  17
ATOM      2  O   UNL     1      13.621   6.223   7.500  0.00  0.00    -0.276 OA
ATOM      3  N   UNL     1      13.842   7.885   5.898  0.00  0.00    -0.304 N 
ATOM     17  C   UNL     1      13.119   7.123   6.821  0.00  0.00    +0.216 C 
ATOM     19  C   UNL     1      13.228   8.944   5.106  0.00  0.00    +0.132 C 
BRANCH   3  18
ATOM     18  C   UNL     1      15.269   7.676   5.655  0.00  0.00    +0.122 C 
BRANCH  18  20
ATOM     20  C   UNL     1      15.546   7.112   4.266  0.00  0.00    +0.137 C 
BRANCH  20  21
ATOM      4  N   UNL     1      17.245   8.607   2.925  0.00  0.00    -0.197 NA
ATOM     21  C   UNL     1      16.495   7.949   3.516  0.00  0.00    +0.064 C 
ENDBRANCH  20  21
ENDBRANCH  18  20
ENDBRANCH   3  18
ENDBRANCH  12  17
ENDBRANCH   8  12
BRANCH   7  13
ATOM     13  C   UNL     1       7.927   8.094   3.929  0.00  0.00    +0.163 C 
BRANCH  13   1
ATOM      1  O   UNL     1       7.286   8.800   4.972  0.00  0.00    -0.394 OA
ATOM     22  H   UNL     1       7.606   9.718   4.938  0.00  0.00    +0.209 HD
ENDBRANCH  13   1
ENDBRANCH   7  13
TORSDOF 8
ENDMDL
