MODEL 1
REMARK VINA RESULT:      -5.8      0.000      0.000
REMARK  Name = 75536591
REMARK  8 active torsions:
REMARK  status: ('A' for Active; 'I' for Inactive)
REMARK    1  A    between atoms: O_3  and  C_8
REMARK    2  A    between atoms: N_5  and  C_7
REMARK    3  A    between atoms: N_5  and  C_12
REMARK    4  A    between atoms: N_6  and  C_11
REMARK    5  A    between atoms: C_9  and  C_11
REMARK    6  A    between atoms: C_12  and  C_13
REMARK    7  A    between atoms: C_12  and  C_14
REMARK    8  A    between atoms: C_15  and  C_16
REMARK                            x       y       z     vdW  Elec       q    Type
REMARK                         _______ _______ _______ _____ _____    ______ ____
ROOT
ATOM      2  O   UNL     1      11.515   7.571  19.775  0.00  0.00    -0.371 OA
ATOM      7  C   UNL     1      11.730   9.209  21.481  0.00  0.00    +0.111 C 
ATOM      8  C   UNL     1      13.110   8.714  21.095  0.00  0.00    +0.164 C 
ATOM      9  C   UNL     1      12.837   8.131  19.715  0.00  0.00    +0.165 C 
ATOM     10  C   UNL     1      10.848   8.099  20.934  0.00  0.00    +0.181 C 
ENDROOT
BRANCH   8   3
ATOM      3  O   UNL     1      14.071   9.752  21.048  0.00  0.00    -0.388 OA
ATOM     21  H   UNL     1      13.661  10.529  20.631  0.00  0.00    +0.210 HD
ENDBRANCH   8   3
BRANCH   7   5
ATOM      5  N   UNL     1      11.561   9.414  22.910  0.00  0.00    -0.307 NA
ATOM     20  H   UNL     1      12.470   9.420  23.373  0.00  0.00    +0.123 HD
BRANCH   5  12
ATOM     12  C   UNL     1      10.857  10.661  23.183  0.00  0.00    +0.048 C 
ATOM     13  C   UNL     1      11.159  11.114  24.609  0.00  0.00    +0.023 C 
ATOM     14  C   UNL     1      11.259  11.730  22.172  0.00  0.00    +0.023 C 
ENDBRANCH   5  12
ENDBRANCH   7   5
BRANCH   9  11
ATOM     11  C   UNL     1      13.831   7.056  19.310  0.00  0.00    +0.138 C 
BRANCH  11   6
ATOM      4  O   UNL     1      16.308   5.778  18.619  0.00  0.00    -0.270 OA
ATOM      6  N   UNL     1      15.104   7.259  19.939  0.00  0.00    -0.308 N 
ATOM     15  C   UNL     1      16.258   6.593  19.537  0.00  0.00    +0.251 C 
ATOM     22  H   UNL     1      15.135   7.909  20.716  0.00  0.00    +0.149 HD
BRANCH  15  16
ATOM      1  S   UNL     1      17.524   8.274  21.322  0.00  0.00    -0.092 S 
ATOM     16  C   UNL     1      17.491   6.894  20.308  0.00  0.00    +0.074 A 
ATOM     17  C   UNL     1      18.681   6.201  20.340  0.00  0.00    +0.021 A 
ATOM     18  C   UNL     1      19.632   6.811  21.208  0.00  0.00    +0.008 A 
ATOM     19  C   UNL     1      19.133   7.946  21.807  0.00  0.00    +0.046 A 
ENDBRANCH  15  16
ENDBRANCH  11   6
ENDBRANCH   9  11
TORSDOF 6
ENDMDL
MODEL 2
REMARK VINA RESULT:      -5.6      2.581      3.790
REMARK  Name = 75536591
REMARK  8 active torsions:
REMARK  status: ('A' for Active; 'I' for Inactive)
REMARK    1  A    between atoms: O_3  and  C_8
REMARK    2  A    between atoms: N_5  and  C_7
REMARK    3  A    between atoms: N_5  and  C_12
REMARK    4  A    between atoms: N_6  and  C_11
REMARK    5  A    between atoms: C_9  and  C_11
REMARK    6  A    between atoms: C_12  and  C_13
REMARK    7  A    between atoms: C_12  and  C_14
REMARK    8  A    between atoms: C_15  and  C_16
REMARK                            x       y       z     vdW  Elec       q    Type
REMARK                         _______ _______ _______ _____ _____    ______ ____
ROOT
ATOM      2  O   UNL     1      12.207   8.097  21.444  0.00  0.00    -0.371 OA
ATOM      7  C   UNL     1      12.390   6.958  19.368  0.00  0.00    +0.111 C 
ATOM      8  C   UNL     1      13.782   7.256  19.893  0.00  0.00    +0.164 C 
ATOM      9  C   UNL     1      13.497   7.468  21.373  0.00  0.00    +0.165 C 
ATOM     10  C   UNL     1      11.549   7.932  20.175  0.00  0.00    +0.181 C 
ENDROOT
BRANCH   8   3
ATOM      3  O   UNL     1      14.687   6.190  19.677  0.00  0.00    -0.388 OA
ATOM     21  H   UNL     1      14.207   5.465  19.241  0.00  0.00    +0.210 HD
ENDBRANCH   8   3
BRANCH   7   5
ATOM      5  N   UNL     1      12.254   7.148  17.933  0.00  0.00    -0.307 NA
ATOM     20  H   UNL     1      11.566   6.496  17.556  0.00  0.00    +0.123 HD
BRANCH   5  12
ATOM     12  C   UNL     1      11.867   8.517  17.617  0.00  0.00    +0.048 C 
ATOM     13  C   UNL     1      13.035   9.234  16.946  0.00  0.00    +0.023 C 
ATOM     14  C   UNL     1      10.632   8.526  16.722  0.00  0.00    +0.023 C 
ENDBRANCH   5  12
ENDBRANCH   7   5
BRANCH   9  11
ATOM     11  C   UNL     1      14.531   8.339  22.064  0.00  0.00    +0.138 C 
BRANCH  11   6
ATOM      4  O   UNL     1      16.763   9.733  20.915  0.00  0.00    -0.270 OA
ATOM      6  N   UNL     1      15.857   7.826  21.876  0.00  0.00    -0.308 N 
ATOM     15  C   UNL     1      16.882   8.575  21.308  0.00  0.00    +0.251 C 
ATOM     22  H   UNL     1      16.024   6.868  22.165  0.00  0.00    +0.149 HD
BRANCH  15  16
ATOM      1  S   UNL     1      18.236   6.323  20.465  0.00  0.00    -0.092 S 
ATOM     16  C   UNL     1      18.191   7.889  21.158  0.00  0.00    +0.074 A 
ATOM     17  C   UNL     1      19.446   8.335  21.507  0.00  0.00    +0.021 A 
ATOM     18  C   UNL     1      20.458   7.381  21.203  0.00  0.00    +0.008 A 
ATOM     19  C   UNL     1      19.938   6.241  20.631  0.00  0.00    +0.046 A 
ENDBRANCH  15  16
ENDBRANCH  11   6
ENDBRANCH   9  11
TORSDOF 6
ENDMDL
MODEL 3
REMARK VINA RESULT:      -5.4      1.855      3.080
REMARK  Name = 75536591
REMARK  8 active torsions:
REMARK  status: ('A' for Active; 'I' for Inactive)
REMARK    1  A    between atoms: O_3  and  C_8
REMARK    2  A    between atoms: N_5  and  C_7
REMARK    3  A    between atoms: N_5  and  C_12
REMARK    4  A    between atoms: N_6  and  C_11
REMARK    5  A    between atoms: C_9  and  C_11
REMARK    6  A    between atoms: C_12  and  C_13
REMARK    7  A    between atoms: C_12  and  C_14
REMARK    8  A    between atoms: C_15  and  C_16
REMARK                            x       y       z     vdW  Elec       q    Type
REMARK                         _______ _______ _______ _____ _____    ______ ____
ROOT
ATOM      2  O   UNL     1      13.202  10.441  22.729  0.00  0.00    -0.371 OA
ATOM      7  C   UNL     1      11.065  10.866  23.673  0.00  0.00    +0.111 C 
ATOM      8  C   UNL     1      10.889  10.106  22.373  0.00  0.00    +0.164 C 
ATOM      9  C   UNL     1      12.268   9.482  22.209  0.00  0.00    +0.165 C 
ATOM     10  C   UNL     1      12.479  11.400  23.521  0.00  0.00    +0.181 C 
ENDROOT
BRANCH   8   3
ATOM      3  O   UNL     1       9.871   9.126  22.445  0.00  0.00    -0.388 OA
ATOM     21  H   UNL     1       9.927   8.568  21.650  0.00  0.00    +0.210 HD
ENDBRANCH   8   3
BRANCH   7   5
ATOM      5  N   UNL     1      10.081  11.917  23.874  0.00  0.00    -0.307 NA
ATOM     20  H   UNL     1       9.446  11.664  24.630  0.00  0.00    +0.123 HD
BRANCH   5  12
ATOM     12  C   UNL     1      10.725  13.191  24.172  0.00  0.00    +0.048 C 
ATOM     13  C   UNL     1      10.135  14.280  23.282  0.00  0.00    +0.023 C 
ATOM     14  C   UNL     1      10.556  13.537  25.648  0.00  0.00    +0.023 C 
ENDBRANCH   5  12
ENDBRANCH   7   5
BRANCH   9  11
ATOM     11  C   UNL     1      12.613   9.161  20.765  0.00  0.00    +0.138 C 
BRANCH  11   6
ATOM      4  O   UNL     1      13.406   6.734  19.450  0.00  0.00    -0.270 OA
ATOM      6  N   UNL     1      13.947   8.645  20.650  0.00  0.00    -0.308 N 
ATOM     15  C   UNL     1      14.241   7.455  19.992  0.00  0.00    +0.251 C 
ATOM     22  H   UNL     1      14.687   9.182  21.088  0.00  0.00    +0.149 HD
BRANCH  15  16
ATOM      1  S   UNL     1      16.721   7.668  21.183  0.00  0.00    -0.092 S 
ATOM     16  C   UNL     1      15.669   7.045  19.984  0.00  0.00    +0.074 A 
ATOM     17  C   UNL     1      16.319   6.196  19.116  0.00  0.00    +0.021 A 
ATOM     18  C   UNL     1      17.699   6.054  19.439  0.00  0.00    +0.008 A 
ATOM     19  C   UNL     1      18.051   6.800  20.543  0.00  0.00    +0.046 A 
ENDBRANCH  15  16
ENDBRANCH  11   6
ENDBRANCH   9  11
TORSDOF 6
ENDMDL
MODEL 4
REMARK VINA RESULT:      -5.4      2.058      6.268
REMARK  Name = 75536591
REMARK  8 active torsions:
REMARK  status: ('A' for Active; 'I' for Inactive)
REMARK    1  A    between atoms: O_3  and  C_8
REMARK    2  A    between atoms: N_5  and  C_7
REMARK    3  A    between atoms: N_5  and  C_12
REMARK    4  A    between atoms: N_6  and  C_11
REMARK    5  A    between atoms: C_9  and  C_11
REMARK    6  A    between atoms: C_12  and  C_13
REMARK    7  A    between atoms: C_12  and  C_14
REMARK    8  A    between atoms: C_15  and  C_16
REMARK                            x       y       z     vdW  Elec       q    Type
REMARK                         _______ _______ _______ _____ _____    ______ ____
ROOT
ATOM      2  O   UNL     1      11.611   7.323  19.750  0.00  0.00    -0.371 OA
ATOM      7  C   UNL     1      13.944   6.939  19.977  0.00  0.00    +0.111 C 
ATOM      8  C   UNL     1      13.466   7.784  21.142  0.00  0.00    +0.164 C 
ATOM      9  C   UNL     1      11.974   7.482  21.131  0.00  0.00    +0.165 C 
ATOM     10  C   UNL     1      12.812   7.131  18.982  0.00  0.00    +0.181 C 
ENDROOT
BRANCH   8   3
ATOM      3  O   UNL     1      14.070   7.417  22.367  0.00  0.00    -0.388 OA
ATOM     21  H   UNL     1      14.334   6.483  22.310  0.00  0.00    +0.210 HD
ENDBRANCH   8   3
BRANCH   7   5
ATOM      5  N   UNL     1      15.236   7.348  19.450  0.00  0.00    -0.307 NA
ATOM     20  H   UNL     1      15.433   8.313  19.713  0.00  0.00    +0.123 HD
BRANCH   5  12
ATOM     12  C   UNL     1      16.300   6.474  19.929  0.00  0.00    +0.048 C 
ATOM     13  C   UNL     1      16.994   5.818  18.740  0.00  0.00    +0.023 C 
ATOM     14  C   UNL     1      17.294   7.265  20.776  0.00  0.00    +0.023 C 
ENDBRANCH   5  12
ENDBRANCH   7   5
BRANCH   9  11
ATOM     11  C   UNL     1      11.134   8.580  21.758  0.00  0.00    +0.138 C 
BRANCH  11   6
ATOM      4  O   UNL     1      11.097  11.432  22.095  0.00  0.00    -0.270 OA
ATOM      6  N   UNL     1      11.894   9.341  22.708  0.00  0.00    -0.308 N 
ATOM     15  C   UNL     1      11.813  10.727  22.801  0.00  0.00    +0.251 C 
ATOM     22  H   UNL     1      12.520   8.824  23.316  0.00  0.00    +0.149 HD
BRANCH  15  16
ATOM      1  S   UNL     1      14.386  11.279  23.633  0.00  0.00    -0.092 S 
ATOM     16  C   UNL     1      12.685  11.368  23.818  0.00  0.00    +0.074 A 
ATOM     17  C   UNL     1      12.325  12.061  24.952  0.00  0.00    +0.021 A 
ATOM     18  C   UNL     1      13.459  12.526  25.678  0.00  0.00    +0.008 A 
ATOM     19  C   UNL     1      14.643  12.171  25.072  0.00  0.00    +0.046 A 
ENDBRANCH  15  16
ENDBRANCH  11   6
ENDBRANCH   9  11
TORSDOF 6
ENDMDL
MODEL 5
REMARK VINA RESULT:      -5.3      2.399      7.449
REMARK  Name = 75536591
REMARK  8 active torsions:
REMARK  status: ('A' for Active; 'I' for Inactive)
REMARK    1  A    between atoms: O_3  and  C_8
REMARK    2  A    between atoms: N_5  and  C_7
REMARK    3  A    between atoms: N_5  and  C_12
REMARK    4  A    between atoms: N_6  and  C_11
REMARK    5  A    between atoms: C_9  and  C_11
REMARK    6  A    between atoms: C_12  and  C_13
REMARK    7  A    between atoms: C_12  and  C_14
REMARK    8  A    between atoms: C_15  and  C_16
REMARK                            x       y       z     vdW  Elec       q    Type
REMARK                         _______ _______ _______ _____ _____    ______ ____
ROOT
ATOM      2  O   UNL     1      16.893   7.622  20.898  0.00  0.00    -0.371 OA
ATOM      7  C   UNL     1      18.814   6.503  20.060  0.00  0.00    +0.111 C 
ATOM      8  C   UNL     1      17.571   5.839  19.500  0.00  0.00    +0.164 C 
ATOM      9  C   UNL     1      16.540   6.945  19.680  0.00  0.00    +0.165 C 
ATOM     10  C   UNL     1      18.241   7.261  21.246  0.00  0.00    +0.181 C 
ENDROOT
BRANCH   8   3
ATOM      3  O   UNL     1      17.714   5.468  18.142  0.00  0.00    -0.388 OA
ATOM     21  H   UNL     1      18.266   6.136  17.700  0.00  0.00    +0.210 HD
ENDBRANCH   8   3
BRANCH   7   5
ATOM      5  N   UNL     1      19.858   5.565  20.438  0.00  0.00    -0.307 NA
ATOM     20  H   UNL     1      20.285   5.161  19.605  0.00  0.00    +0.123 HD
BRANCH   5  12
ATOM     12  C   UNL     1      20.877   6.212  21.256  0.00  0.00    +0.048 C 
ATOM     13  C   UNL     1      21.413   5.218  22.281  0.00  0.00    +0.023 C 
ATOM     14  C   UNL     1      22.000   6.751  20.374  0.00  0.00    +0.023 C 
ENDBRANCH   5  12
ENDBRANCH   7   5
BRANCH   9  11
ATOM     11  C   UNL     1      15.116   6.429  19.775  0.00  0.00    +0.138 C 
BRANCH  11   6
ATOM      4  O   UNL     1      12.282   6.735  19.428  0.00  0.00    -0.270 OA
ATOM      6  N   UNL     1      14.265   7.364  20.454  0.00  0.00    -0.308 N 
ATOM     15  C   UNL     1      12.896   7.444  20.222  0.00  0.00    +0.251 C 
ATOM     22  H   UNL     1      14.708   7.993  21.115  0.00  0.00    +0.149 HD
BRANCH  15  16
ATOM      1  S   UNL     1      10.948   8.002  22.095  0.00  0.00    -0.092 S 
ATOM     16  C   UNL     1      12.160   8.484  20.985  0.00  0.00    +0.074 A 
ATOM     17  C   UNL     1      12.304   9.853  20.940  0.00  0.00    +0.021 A 
ATOM     18  C   UNL     1      11.409  10.515  21.828  0.00  0.00    +0.008 A 
ATOM     19  C   UNL     1      10.615   9.627  22.519  0.00  0.00    +0.046 A 
ENDBRANCH  15  16
ENDBRANCH  11   6
ENDBRANCH   9  11
TORSDOF 6
ENDMDL
MODEL 6
REMARK VINA RESULT:      -5.2     26.069     27.612
REMARK  Name = 75536591
REMARK  8 active torsions:
REMARK  status: ('A' for Active; 'I' for Inactive)
REMARK    1  A    between atoms: O_3  and  C_8
REMARK    2  A    between atoms: N_5  and  C_7
REMARK    3  A    between atoms: N_5  and  C_12
REMARK    4  A    between atoms: N_6  and  C_11
REMARK    5  A    between atoms: C_9  and  C_11
REMARK    6  A    between atoms: C_12  and  C_13
REMARK    7  A    between atoms: C_12  and  C_14
REMARK    8  A    between atoms: C_15  and  C_16
REMARK                            x       y       z     vdW  Elec       q    Type
REMARK                         _______ _______ _______ _____ _____    ______ ____
ROOT
ATOM      2  O   UNL     1      -1.312 -11.352  14.901  0.00  0.00    -0.371 OA
ATOM      7  C   UNL     1      -3.444 -10.944  15.866  0.00  0.00    +0.111 C 
ATOM      8  C   UNL     1      -3.575 -10.935  14.355  0.00  0.00    +0.164 C 
ATOM      9  C   UNL     1      -2.327 -11.706  13.947  0.00  0.00    +0.165 C 
ATOM     10  C   UNL     1      -1.947 -10.744  16.039  0.00  0.00    +0.181 C 
ENDROOT
BRANCH   8   3
ATOM      3  O   UNL     1      -4.757 -11.568  13.905  0.00  0.00    -0.388 OA
ATOM     21  H   UNL     1      -5.406 -11.554  14.629  0.00  0.00    +0.210 HD
ENDBRANCH   8   3
BRANCH   7   5
ATOM      5  N   UNL     1      -4.232  -9.918  16.527  0.00  0.00    -0.307 NA
ATOM     20  H   UNL     1      -4.442  -9.161  15.875  0.00  0.00    +0.123 HD
BRANCH   5  12
ATOM     12  C   UNL     1      -5.472 -10.469  17.062  0.00  0.00    +0.048 C 
ATOM     13  C   UNL     1      -5.352 -10.612  18.576  0.00  0.00    +0.023 C 
ATOM     14  C   UNL     1      -6.653  -9.579  16.688  0.00  0.00    +0.023 C 
ENDBRANCH   5  12
ENDBRANCH   7   5
BRANCH   9  11
ATOM     11  C   UNL     1      -1.849 -11.377  12.544  0.00  0.00    +0.138 C 
BRANCH  11   6
ATOM      4  O   UNL     1      -1.830  -9.176  10.700  0.00  0.00    -0.270 OA
ATOM      6  N   UNL     1      -2.935 -10.949  11.710  0.00  0.00    -0.308 N 
ATOM     15  C   UNL     1      -2.837  -9.867  10.841  0.00  0.00    +0.251 C 
ATOM     22  H   UNL     1      -3.804 -11.466  11.785  0.00  0.00    +0.149 HD
BRANCH  15  16
ATOM      1  S   UNL     1      -5.301  -8.625  10.816  0.00  0.00    -0.092 S 
ATOM     16  C   UNL     1      -4.059  -9.535  10.066  0.00  0.00    +0.074 A 
ATOM     17  C   UNL     1      -4.373  -9.862   8.765  0.00  0.00    +0.021 A 
ATOM     18  C   UNL     1      -5.648  -9.359   8.379  0.00  0.00    +0.008 A 
ATOM     19  C   UNL     1      -6.261  -8.666   9.399  0.00  0.00    +0.046 A 
ENDBRANCH  15  16
ENDBRANCH  11   6
ENDBRANCH   9  11
TORSDOF 6
ENDMDL
MODEL 7
REMARK VINA RESULT:      -5.1     26.652     29.376
REMARK  Name = 75536591
REMARK  8 active torsions:
REMARK  status: ('A' for Active; 'I' for Inactive)
REMARK    1  A    between atoms: O_3  and  C_8
REMARK    2  A    between atoms: N_5  and  C_7
REMARK    3  A    between atoms: N_5  and  C_12
REMARK    4  A    between atoms: N_6  and  C_11
REMARK    5  A    between atoms: C_9  and  C_11
REMARK    6  A    between atoms: C_12  and  C_13
REMARK    7  A    between atoms: C_12  and  C_14
REMARK    8  A    between atoms: C_15  and  C_16
REMARK                            x       y       z     vdW  Elec       q    Type
REMARK                         _______ _______ _______ _____ _____    ______ ____
ROOT
ATOM      2  O   UNL     1      -5.887 -10.269  17.146  0.00  0.00    -0.371 OA
ATOM      7  C   UNL     1      -3.835 -11.438  16.894  0.00  0.00    +0.111 C 
ATOM      8  C   UNL     1      -4.283 -11.532  18.340  0.00  0.00    +0.164 C 
ATOM      9  C   UNL     1      -5.770 -11.232  18.206  0.00  0.00    +0.165 C 
ATOM     10  C   UNL     1      -4.657 -10.259  16.400  0.00  0.00    +0.181 C 
ENDROOT
BRANCH   8   3
ATOM      3  O   UNL     1      -4.051 -12.809  18.902  0.00  0.00    -0.388 OA
ATOM     21  H   UNL     1      -3.092 -12.971  18.908  0.00  0.00    +0.210 HD
ENDBRANCH   8   3
BRANCH   7   5
ATOM      5  N   UNL     1      -2.404 -11.234  16.738  0.00  0.00    -0.307 NA
ATOM     20  H   UNL     1      -1.901 -12.092  16.965  0.00  0.00    +0.123 HD
BRANCH   5  12
ATOM     12  C   UNL     1      -2.077 -10.810  15.382  0.00  0.00    +0.048 C 
ATOM     13  C   UNL     1      -0.915  -9.823  15.424  0.00  0.00    +0.023 C 
ATOM     14  C   UNL     1      -1.738 -12.020  14.516  0.00  0.00    +0.023 C 
ENDBRANCH   5  12
ENDBRANCH   7   5
BRANCH   9  11
ATOM     11  C   UNL     1      -6.386 -10.674  19.476  0.00  0.00    +0.138 C 
BRANCH  11   6
ATOM      4  O   UNL     1      -8.779 -12.120  20.133  0.00  0.00    -0.270 OA
ATOM      6  N   UNL     1      -7.737 -10.242  19.256  0.00  0.00    -0.308 N 
ATOM     15  C   UNL     1      -8.841 -11.012  19.607  0.00  0.00    +0.251 C 
ATOM     22  H   UNL     1      -7.864  -9.340  18.811  0.00  0.00    +0.149 HD
BRANCH  15  16
ATOM      1  S   UNL     1     -10.405  -9.665  17.775  0.00  0.00    -0.092 S 
ATOM     16  C   UNL     1     -10.172 -10.434  19.287  0.00  0.00    +0.074 A 
ATOM     17  C   UNL     1     -11.313 -10.415  20.057  0.00  0.00    +0.021 A 
ATOM     18  C   UNL     1     -12.393  -9.762  19.397  0.00  0.00    +0.008 A 
ATOM     19  C   UNL     1     -12.037  -9.307  18.147  0.00  0.00    +0.046 A 
ENDBRANCH  15  16
ENDBRANCH  11   6
ENDBRANCH   9  11
TORSDOF 6
ENDMDL
MODEL 8
REMARK VINA RESULT:      -5.1     26.592     27.792
REMARK  Name = 75536591
REMARK  8 active torsions:
REMARK  status: ('A' for Active; 'I' for Inactive)
REMARK    1  A    between atoms: O_3  and  C_8
REMARK    2  A    between atoms: N_5  and  C_7
REMARK    3  A    between atoms: N_5  and  C_12
REMARK    4  A    between atoms: N_6  and  C_11
REMARK    5  A    between atoms: C_9  and  C_11
REMARK    6  A    between atoms: C_12  and  C_13
REMARK    7  A    between atoms: C_12  and  C_14
REMARK    8  A    between atoms: C_15  and  C_16
REMARK                            x       y       z     vdW  Elec       q    Type
REMARK                         _______ _______ _______ _____ _____    ______ ____
ROOT
ATOM      2  O   UNL     1      -5.444 -11.563  18.125  0.00  0.00    -0.371 OA
ATOM      7  C   UNL     1      -7.339 -10.230  17.599  0.00  0.00    +0.111 C 
ATOM      8  C   UNL     1      -6.179  -9.809  16.718  0.00  0.00    +0.164 C 
ATOM      9  C   UNL     1      -5.290 -11.043  16.794  0.00  0.00    +0.165 C 
ATOM     10  C   UNL     1      -6.618 -10.973  18.711  0.00  0.00    +0.181 C 
ENDROOT
BRANCH   8   3
ATOM      3  O   UNL     1      -6.575  -9.526  15.390  0.00  0.00    -0.388 OA
ATOM     21  H   UNL     1      -6.268  -8.631  15.163  0.00  0.00    +0.210 HD
ENDBRANCH   8   3
BRANCH   7   5
ATOM      5  N   UNL     1      -8.136  -9.117  18.087  0.00  0.00    -0.307 NA
ATOM     20  H   UNL     1      -7.707  -8.232  17.816  0.00  0.00    +0.123 HD
BRANCH   5  12
ATOM     12  C   UNL     1      -9.501  -9.183  17.578  0.00  0.00    +0.048 C 
ATOM     13  C   UNL     1     -10.406  -9.813  18.631  0.00  0.00    +0.023 C 
ATOM     14  C   UNL     1      -9.992  -7.790  17.194  0.00  0.00    +0.023 C 
ENDBRANCH   5  12
ENDBRANCH   7   5
BRANCH   9  11
ATOM     11  C   UNL     1      -3.825 -10.746  16.526  0.00  0.00    +0.138 C 
BRANCH  11   6
ATOM      4  O   UNL     1      -2.574 -12.251  14.425  0.00  0.00    -0.270 OA
ATOM      6  N   UNL     1      -3.618 -10.318  15.173  0.00  0.00    -0.308 N 
ATOM     15  C   UNL     1      -2.999 -11.117  14.216  0.00  0.00    +0.251 C 
ATOM     22  H   UNL     1      -3.932  -9.385  14.932  0.00  0.00    +0.149 HD
BRANCH  15  16
ATOM      1  S   UNL     1      -4.219 -10.293  11.882  0.00  0.00    -0.092 S 
ATOM     16  C   UNL     1      -2.836 -10.518  12.867  0.00  0.00    +0.074 A 
ATOM     17  C   UNL     1      -1.684 -10.091  12.245  0.00  0.00    +0.021 A 
ATOM     18  C   UNL     1      -1.940  -9.571  10.943  0.00  0.00    +0.008 A 
ATOM     19  C   UNL     1      -3.278  -9.621  10.620  0.00  0.00    +0.046 A 
ENDBRANCH  15  16
ENDBRANCH  11   6
ENDBRANCH   9  11
TORSDOF 6
ENDMDL
MODEL 9
REMARK VINA RESULT:      -5.1      4.505      9.742
REMARK  Name = 75536591
REMARK  8 active torsions:
REMARK  status: ('A' for Active; 'I' for Inactive)
REMARK    1  A    between atoms: O_3  and  C_8
REMARK    2  A    between atoms: N_5  and  C_7
REMARK    3  A    between atoms: N_5  and  C_12
REMARK    4  A    between atoms: N_6  and  C_11
REMARK    5  A    between atoms: C_9  and  C_11
REMARK    6  A    between atoms: C_12  and  C_13
REMARK    7  A    between atoms: C_12  and  C_14
REMARK    8  A    between atoms: C_15  and  C_16
REMARK                            x       y       z     vdW  Elec       q    Type
REMARK                         _______ _______ _______ _____ _____    ______ ____
ROOT
ATOM      2  O   UNL     1      22.419   6.015  22.595  0.00  0.00    -0.371 OA
ATOM      7  C   UNL     1      22.638   4.376  20.890  0.00  0.00    +0.111 C 
ATOM      8  C   UNL     1      21.179   4.776  21.008  0.00  0.00    +0.164 C 
ATOM      9  C   UNL     1      21.300   6.127  21.701  0.00  0.00    +0.165 C 
ATOM     10  C   UNL     1      23.191   4.861  22.220  0.00  0.00    +0.181 C 
ENDROOT
BRANCH   8   3
ATOM      3  O   UNL     1      20.539   4.883  19.751  0.00  0.00    -0.388 OA
ATOM     21  H   UNL     1      19.727   5.407  19.866  0.00  0.00    +0.210 HD
ENDBRANCH   8   3
BRANCH   7   5
ATOM      5  N   UNL     1      22.838   2.952  20.679  0.00  0.00    -0.307 NA
ATOM     20  H   UNL     1      22.563   2.696  19.731  0.00  0.00    +0.123 HD
BRANCH   5  12
ATOM     12  C   UNL     1      24.227   2.575  20.912  0.00  0.00    +0.048 C 
ATOM     13  C   UNL     1      24.298   1.095  21.274  0.00  0.00    +0.023 C 
ATOM     14  C   UNL     1      25.073   2.880  19.680  0.00  0.00    +0.023 C 
ENDBRANCH   5  12
ENDBRANCH   7   5
BRANCH   9  11
ATOM     11  C   UNL     1      20.057   6.515  22.480  0.00  0.00    +0.138 C 
BRANCH  11   6
ATOM      4  O   UNL     1      18.455   8.833  21.925  0.00  0.00    -0.270 OA
ATOM      6  N   UNL     1      18.904   6.576  21.629  0.00  0.00    -0.308 N 
ATOM     15  C   UNL     1      18.185   7.748  21.416  0.00  0.00    +0.251 C 
ATOM     22  H   UNL     1      18.614   5.711  21.186  0.00  0.00    +0.149 HD
BRANCH  15  16
ATOM      1  S   UNL     1      15.917   8.960  20.416  0.00  0.00    -0.092 S 
ATOM     16  C   UNL     1      17.000   7.638  20.527  0.00  0.00    +0.074 A 
ATOM     17  C   UNL     1      16.609   6.582  19.734  0.00  0.00    +0.021 A 
ATOM     18  C   UNL     1      15.406   6.862  19.024  0.00  0.00    +0.008 A 
ATOM     19  C   UNL     1      14.923   8.121  19.302  0.00  0.00    +0.046 A 
ENDBRANCH  15  16
ENDBRANCH  11   6
ENDBRANCH   9  11
TORSDOF 6
ENDMDL
MODEL 10
REMARK VINA RESULT:      -5.0      4.783      5.514
REMARK  Name = 75536591
REMARK  8 active torsions:
REMARK  status: ('A' for Active; 'I' for Inactive)
REMARK    1  A    between atoms: O_3  and  C_8
REMARK    2  A    between atoms: N_5  and  C_7
REMARK    3  A    between atoms: N_5  and  C_12
REMARK    4  A    between atoms: N_6  and  C_11
REMARK    5  A    between atoms: C_9  and  C_11
REMARK    6  A    between atoms: C_12  and  C_13
REMARK    7  A    between atoms: C_12  and  C_14
REMARK    8  A    between atoms: C_15  and  C_16
REMARK                            x       y       z     vdW  Elec       q    Type
REMARK                         _______ _______ _______ _____ _____    ______ ____
ROOT
ATOM      2  O   UNL     1      13.987   9.466  18.637  0.00  0.00    -0.371 OA
ATOM      7  C   UNL     1      12.150   8.214  19.473  0.00  0.00    +0.111 C 
ATOM      8  C   UNL     1      12.147   8.145  17.958  0.00  0.00    +0.164 C 
ATOM      9  C   UNL     1      13.594   8.504  17.645  0.00  0.00    +0.165 C 
ATOM     10  C   UNL     1      13.038   9.422  19.717  0.00  0.00    +0.181 C 
ENDROOT
BRANCH   8   3
ATOM      3  O   UNL     1      11.805   6.862  17.470  0.00  0.00    -0.388 OA
ATOM     21  H   UNL     1      10.956   6.601  17.866  0.00  0.00    +0.210 HD
ENDBRANCH   8   3
BRANCH   7   5
ATOM      5  N   UNL     1      10.825   8.359  20.054  0.00  0.00    -0.307 NA
ATOM     20  H   UNL     1      10.113   8.093  19.374  0.00  0.00    +0.123 HD
BRANCH   5  12
ATOM     12  C   UNL     1      10.687   7.550  21.259  0.00  0.00    +0.048 C 
ATOM     13  C   UNL     1      11.692   6.403  21.220  0.00  0.00    +0.023 C 
ATOM     14  C   UNL     1      10.889   8.413  22.501  0.00  0.00    +0.023 C 
ENDBRANCH   5  12
ENDBRANCH   7   5
BRANCH   9  11
ATOM     11  C   UNL     1      13.779   9.092  16.258  0.00  0.00    +0.138 C 
BRANCH  11   6
ATOM      4  O   UNL     1      15.213  10.226  14.043  0.00  0.00    -0.270 OA
ATOM      6  N   UNL     1      14.634  10.244  16.290  0.00  0.00    -0.308 N 
ATOM     15  C   UNL     1      15.292  10.726  15.163  0.00  0.00    +0.251 C 
ATOM     22  H   UNL     1      14.757  10.701  17.187  0.00  0.00    +0.149 HD
BRANCH  15  16
ATOM      1  S   UNL     1      15.553  13.248  16.251  0.00  0.00    -0.092 S 
ATOM     16  C   UNL     1      16.161  11.913  15.368  0.00  0.00    +0.074 A 
ATOM     17  C   UNL     1      17.452  12.124  14.936  0.00  0.00    +0.021 A 
ATOM     18  C   UNL     1      17.948  13.397  15.335  0.00  0.00    +0.008 A 
ATOM     19  C   UNL     1      17.019  14.112  16.058  0.00  0.00    +0.046 A 
ENDBRANCH  15  16
ENDBRANCH  11   6
ENDBRANCH   9  11
TORSDOF 6
ENDMDL
