MODEL 1
REMARK VINA RESULT:      -6.1      0.000      0.000
REMARK  Name = 11867600
REMARK  11 active torsions:
REMARK  status: ('A' for Active; 'I' for Inactive)
REMARK    1  A    between atoms: O_5  and  C_23
REMARK    2  A    between atoms: O_5  and  C_35
REMARK    3  A    between atoms: N_9  and  C_19
REMARK    4  A    between atoms: N_10  and  C_20
REMARK    5  A    between atoms: C_12  and  C_16
REMARK    6  A    between atoms: C_18  and  C_21
REMARK    7  A    between atoms: C_19  and  C_22
REMARK    8  A    between atoms: C_19  and  C_23
REMARK    9  A    between atoms: C_20  and  C_25
REMARK   10  A    between atoms: C_20  and  C_26
REMARK   11  A    between atoms: C_22  and  C_24
REMARK                            x       y       z     vdW  Elec       q    Type
REMARK                         _______ _______ _______ _____ _____    ______ ____
ROOT
ATOM      3  O   UNL     1      -7.803  -9.791  17.569  0.00  0.00    -0.253 OA
ATOM      4  O   UNL     1      -7.635 -12.172  10.628  0.00  0.00    -0.270 OA
ATOM      7  N   UNL     1      -7.309 -10.772  15.521  0.00  0.00    -0.271 N 
ATOM      8  N   UNL     1      -7.778 -11.012  12.652  0.00  0.00    -0.294 N 
ATOM     10  N   UNL     1      -6.064 -11.291  17.463  0.00  0.00    -0.297 N 
ATOM     12  C   UNL     1      -6.620 -11.797  14.720  0.00  0.00    +0.181 C 
ATOM     13  C   UNL     1      -7.386 -12.174  13.451  0.00  0.00    +0.140 C 
ATOM     14  C   UNL     1      -8.389 -10.037  14.856  0.00  0.00    +0.129 C 
ATOM     15  C   UNL     1      -8.094  -9.780  13.385  0.00  0.00    +0.127 C 
ATOM     17  C   UNL     1      -7.108 -10.564  16.901  0.00  0.00    +0.303 C 
ATOM     18  C   UNL     1      -7.894 -11.151  11.264  0.00  0.00    +0.247 C 
ATOM     38  H   UNL     1      -5.438 -11.821  16.871  0.00  0.00    +0.150 HD
ENDROOT
BRANCH  18  21
ATOM      1  F   UNL     1      -6.987  -7.141   8.689  0.00  0.00    -0.205 F 
ATOM     21  C   UNL     1      -8.358  -9.991  10.487  0.00  0.00    +0.040 A 
ATOM     27  C   UNL     1      -7.433  -9.098   9.946  0.00  0.00    +0.051 A 
ATOM     28  C   UNL     1      -9.724  -9.784  10.292  0.00  0.00    +0.013 A 
ATOM     29  C   UNL     1      -7.874  -7.999   9.209  0.00  0.00    +0.124 A 
ATOM     30  C   UNL     1     -10.165  -8.686   9.555  0.00  0.00    +0.004 A 
ATOM     33  C   UNL     1      -9.240  -7.792   9.014  0.00  0.00    +0.038 A 
ENDBRANCH  18  21
BRANCH  12  16
ATOM      2  O   UNL     1      -4.933 -10.108  14.622  0.00  0.00    -0.274 OA
ATOM      9  N   UNL     1      -4.491 -12.196  13.695  0.00  0.00    -0.301 N 
ATOM     16  C   UNL     1      -5.265 -11.260  14.358  0.00  0.00    +0.236 C 
ATOM     37  H   UNL     1      -4.840 -13.146  13.600  0.00  0.00    +0.150 HD
BRANCH   9  19
ATOM     19  C   UNL     1      -3.155 -11.922  13.218  0.00  0.00    +0.186 C 
BRANCH  19  23
ATOM      6  O   UNL     1      -1.702 -13.684  14.007  0.00  0.00    -0.249 OA
ATOM     23  C   UNL     1      -2.088 -12.526  14.123  0.00  0.00    +0.328 C 
BRANCH  23   5
ATOM      5  O   UNL     1      -1.648 -11.640  15.059  0.00  0.00    -0.467 OA
ATOM     35  C   UNL     1      -1.458 -10.297  14.603  0.00  0.00    +0.280 C 
ENDBRANCH  23   5
ENDBRANCH  19  23
BRANCH  19  22
ATOM     22  C   UNL     1      -2.972 -12.346  11.752  0.00  0.00    +0.070 C 
BRANCH  22  24
ATOM     11  N   UNL     1      -4.458 -10.728   8.663  0.00  0.00    -0.263 NA
ATOM     24  C   UNL     1      -3.356 -11.292  10.739  0.00  0.00    -0.027 A 
ATOM     31  C   UNL     1      -2.988  -9.962  10.913  0.00  0.00    +0.006 A 
ATOM     32  C   UNL     1      -4.084 -11.620   9.606  0.00  0.00    +0.114 A 
ATOM     34  C   UNL     1      -3.355  -9.015   9.964  0.00  0.00    +0.020 A 
ATOM     36  C   UNL     1      -4.082  -9.445   8.866  0.00  0.00    +0.111 A 
ENDBRANCH  22  24
ENDBRANCH  19  22
ENDBRANCH   9  19
ENDBRANCH  12  16
BRANCH  10  20
ATOM     20  C   UNL     1      -5.720 -11.191  18.864  0.00  0.00    +0.068 C 
ATOM     25  C   UNL     1      -4.327 -11.754  19.110  0.00  0.00    +0.027 C 
ATOM     26  C   UNL     1      -6.762 -11.899  19.722  0.00  0.00    +0.027 C 
ENDBRANCH  10  20
TORSDOF 8
ENDMDL
MODEL 2
REMARK VINA RESULT:      -6.0     25.567     27.677
REMARK  Name = 11867600
REMARK  11 active torsions:
REMARK  status: ('A' for Active; 'I' for Inactive)
REMARK    1  A    between atoms: O_5  and  C_23
REMARK    2  A    between atoms: O_5  and  C_35
REMARK    3  A    between atoms: N_9  and  C_19
REMARK    4  A    between atoms: N_10  and  C_20
REMARK    5  A    between atoms: C_12  and  C_16
REMARK    6  A    between atoms: C_18  and  C_21
REMARK    7  A    between atoms: C_19  and  C_22
REMARK    8  A    between atoms: C_19  and  C_23
REMARK    9  A    between atoms: C_20  and  C_25
REMARK   10  A    between atoms: C_20  and  C_26
REMARK   11  A    between atoms: C_22  and  C_24
REMARK                            x       y       z     vdW  Elec       q    Type
REMARK                         _______ _______ _______ _____ _____    ______ ____
ROOT
ATOM      3  O   UNL     1      15.226  10.574   4.962  0.00  0.00    -0.253 OA
ATOM      4  O   UNL     1       9.436   6.105   4.341  0.00  0.00    -0.270 OA
ATOM      7  N   UNL     1      13.750   8.810   4.628  0.00  0.00    -0.271 N 
ATOM      8  N   UNL     1      11.027   7.818   4.301  0.00  0.00    -0.294 N 
ATOM     10  N   UNL     1      16.090   8.475   4.599  0.00  0.00    -0.297 N 
ATOM     12  C   UNL     1      13.472   7.367   4.537  0.00  0.00    +0.181 C 
ATOM     13  C   UNL     1      12.048   7.008   4.967  0.00  0.00    +0.140 C 
ATOM     14  C   UNL     1      12.589   9.694   4.768  0.00  0.00    +0.129 C 
ATOM     15  C   UNL     1      11.387   9.202   3.973  0.00  0.00    +0.127 C 
ATOM     17  C   UNL     1      15.037   9.372   4.747  0.00  0.00    +0.303 C 
ATOM     18  C   UNL     1       9.762   7.262   4.075  0.00  0.00    +0.247 C 
ATOM     38  H   UNL     1      15.910   7.523   4.304  0.00  0.00    +0.150 HD
ENDROOT
BRANCH  18  21
ATOM      1  F   UNL     1       5.896  10.165   4.478  0.00  0.00    -0.205 F 
ATOM     21  C   UNL     1       8.728   8.115   3.470  0.00  0.00    +0.040 A 
ATOM     27  C   UNL     1       7.783   8.748   4.278  0.00  0.00    +0.051 A 
ATOM     28  C   UNL     1       8.692   8.290   2.086  0.00  0.00    +0.013 A 
ATOM     29  C   UNL     1       6.803   9.556   3.703  0.00  0.00    +0.124 A 
ATOM     30  C   UNL     1       7.712   9.099   1.511  0.00  0.00    +0.004 A 
ATOM     33  C   UNL     1       6.767   9.732   2.319  0.00  0.00    +0.038 A 
ENDBRANCH  18  21
BRANCH  12  16
ATOM      2  O   UNL     1      14.133   7.726   2.269  0.00  0.00    -0.274 OA
ATOM      9  N   UNL     1      13.331   5.632   2.890  0.00  0.00    -0.301 N 
ATOM     16  C   UNL     1      13.695   6.948   3.112  0.00  0.00    +0.236 C 
ATOM     37  H   UNL     1      13.053   5.058   3.681  0.00  0.00    +0.150 HD
BRANCH   9  19
ATOM     19  C   UNL     1      13.425   4.993   1.598  0.00  0.00    +0.186 C 
BRANCH  19  23
ATOM      6  O   UNL     1      15.002   3.201   1.976  0.00  0.00    -0.249 OA
ATOM     23  C   UNL     1      14.750   4.263   1.416  0.00  0.00    +0.328 C 
BRANCH  23   5
ATOM      5  O   UNL     1      15.597   4.935   0.587  0.00  0.00    -0.467 OA
ATOM     35  C   UNL     1      15.823   4.334  -0.692  0.00  0.00    +0.280 C 
ENDBRANCH  23   5
ENDBRANCH  19  23
BRANCH  19  22
ATOM     22  C   UNL     1      12.222   4.078   1.322  0.00  0.00    +0.070 C 
BRANCH  22  24
ATOM     11  N   UNL     1      11.174   4.315  -2.313  0.00  0.00    -0.263 NA
ATOM     24  C   UNL     1      11.427   4.436   0.088  0.00  0.00    -0.027 A 
ATOM     31  C   UNL     1      10.260   5.187   0.179  0.00  0.00    +0.006 A 
ATOM     32  C   UNL     1      11.838   4.029  -1.171  0.00  0.00    +0.114 A 
ATOM     34  C   UNL     1       9.550   5.502  -0.973  0.00  0.00    +0.020 A 
ATOM     36  C   UNL     1      10.045   5.047  -2.184  0.00  0.00    +0.111 A 
ENDBRANCH  22  24
ENDBRANCH  19  22
ENDBRANCH   9  19
ENDBRANCH  12  16
BRANCH  10  20
ATOM     20  C   UNL     1      17.473   8.887   4.687  0.00  0.00    +0.068 C 
ATOM     25  C   UNL     1      18.327   8.089   3.709  0.00  0.00    +0.027 C 
ATOM     26  C   UNL     1      17.986   8.740   6.114  0.00  0.00    +0.027 C 
ENDBRANCH  10  20
TORSDOF 8
ENDMDL
MODEL 3
REMARK VINA RESULT:      -5.9     25.098     28.323
REMARK  Name = 11867600
REMARK  11 active torsions:
REMARK  status: ('A' for Active; 'I' for Inactive)
REMARK    1  A    between atoms: O_5  and  C_23
REMARK    2  A    between atoms: O_5  and  C_35
REMARK    3  A    between atoms: N_9  and  C_19
REMARK    4  A    between atoms: N_10  and  C_20
REMARK    5  A    between atoms: C_12  and  C_16
REMARK    6  A    between atoms: C_18  and  C_21
REMARK    7  A    between atoms: C_19  and  C_22
REMARK    8  A    between atoms: C_19  and  C_23
REMARK    9  A    between atoms: C_20  and  C_25
REMARK   10  A    between atoms: C_20  and  C_26
REMARK   11  A    between atoms: C_22  and  C_24
REMARK                            x       y       z     vdW  Elec       q    Type
REMARK                         _______ _______ _______ _____ _____    ______ ____
ROOT
ATOM      3  O   UNL     1      17.515  10.331   5.415  0.00  0.00    -0.253 OA
ATOM      4  O   UNL     1      11.104   7.274   7.272  0.00  0.00    -0.270 OA
ATOM      7  N   UNL     1      15.618   9.009   5.649  0.00  0.00    -0.271 N 
ATOM      8  N   UNL     1      12.907   8.631   6.657  0.00  0.00    -0.294 N 
ATOM     10  N   UNL     1      17.457   8.296   4.346  0.00  0.00    -0.297 N 
ATOM     12  C   UNL     1      14.925   7.718   5.505  0.00  0.00    +0.181 C 
ATOM     13  C   UNL     1      13.837   7.505   6.559  0.00  0.00    +0.140 C 
ATOM     14  C   UNL     1      14.971  10.007   6.506  0.00  0.00    +0.129 C 
ATOM     15  C   UNL     1      13.453   9.968   6.398  0.00  0.00    +0.127 C 
ATOM     17  C   UNL     1      16.909   9.286   5.156  0.00  0.00    +0.303 C 
ATOM     18  C   UNL     1      11.585   8.385   7.049  0.00  0.00    +0.247 C 
ATOM     38  H   UNL     1      16.893   7.509   4.053  0.00  0.00    +0.150 HD
ENDROOT
BRANCH  18  21
ATOM      1  F   UNL     1       9.328  11.635   9.855  0.00  0.00    -0.205 F 
ATOM     21  C   UNL     1      10.685   9.537   7.211  0.00  0.00    +0.040 A 
ATOM     27  C   UNL     1      10.429  10.050   8.483  0.00  0.00    +0.051 A 
ATOM     28  C   UNL     1      10.087  10.117   6.091  0.00  0.00    +0.013 A 
ATOM     29  C   UNL     1       9.575  11.142   8.635  0.00  0.00    +0.124 A 
ATOM     30  C   UNL     1       9.234  11.210   6.244  0.00  0.00    +0.004 A 
ATOM     33  C   UNL     1       8.977  11.722   7.515  0.00  0.00    +0.038 A 
ENDBRANCH  18  21
BRANCH  12  16
ATOM      2  O   UNL     1      14.494   8.579   3.318  0.00  0.00    -0.274 OA
ATOM      9  N   UNL     1      13.554   6.541   3.931  0.00  0.00    -0.301 N 
ATOM     16  C   UNL     1      14.319   7.676   4.131  0.00  0.00    +0.236 C 
ATOM     37  H   UNL     1      13.544   5.821   4.648  0.00  0.00    +0.150 HD
BRANCH   9  19
ATOM     19  C   UNL     1      12.844   6.272   2.702  0.00  0.00    +0.186 C 
BRANCH  19  23
ATOM      6  O   UNL     1      13.693   6.332   0.440  0.00  0.00    -0.249 OA
ATOM     23  C   UNL     1      13.785   5.871   1.573  0.00  0.00    +0.328 C 
BRANCH  23   5
ATOM      5  O   UNL     1      14.703   4.946   1.972  0.00  0.00    -0.467 OA
ATOM     35  C   UNL     1      14.735   3.734   1.211  0.00  0.00    +0.280 C 
ENDBRANCH  23   5
ENDBRANCH  19  23
BRANCH  19  22
ATOM     22  C   UNL     1      11.718   5.247   2.903  0.00  0.00    +0.070 C 
BRANCH  22  24
ATOM     11  N   UNL     1       8.922   5.481   5.453  0.00  0.00    -0.263 NA
ATOM     24  C   UNL     1      10.518   5.768   3.659  0.00  0.00    -0.027 A 
ATOM     31  C   UNL     1       9.905   6.963   3.298  0.00  0.00    +0.006 A 
ATOM     32  C   UNL     1       9.992   5.070   4.735  0.00  0.00    +0.114 A 
ATOM     34  C   UNL     1       8.803   7.418   4.011  0.00  0.00    +0.020 A 
ATOM     36  C   UNL     1       8.354   6.646   5.071  0.00  0.00    +0.111 A 
ENDBRANCH  22  24
ENDBRANCH  19  22
ENDBRANCH   9  19
ENDBRANCH  12  16
BRANCH  10  20
ATOM     20  C   UNL     1      18.771   8.423   3.755  0.00  0.00    +0.068 C 
ATOM     25  C   UNL     1      18.703   8.172   2.254  0.00  0.00    +0.027 C 
ATOM     26  C   UNL     1      19.755   7.475   4.429  0.00  0.00    +0.027 C 
ENDBRANCH  10  20
TORSDOF 8
ENDMDL
MODEL 4
REMARK VINA RESULT:      -5.8     23.897     27.416
REMARK  Name = 11867600
REMARK  11 active torsions:
REMARK  status: ('A' for Active; 'I' for Inactive)
REMARK    1  A    between atoms: O_5  and  C_23
REMARK    2  A    between atoms: O_5  and  C_35
REMARK    3  A    between atoms: N_9  and  C_19
REMARK    4  A    between atoms: N_10  and  C_20
REMARK    5  A    between atoms: C_12  and  C_16
REMARK    6  A    between atoms: C_18  and  C_21
REMARK    7  A    between atoms: C_19  and  C_22
REMARK    8  A    between atoms: C_19  and  C_23
REMARK    9  A    between atoms: C_20  and  C_25
REMARK   10  A    between atoms: C_20  and  C_26
REMARK   11  A    between atoms: C_22  and  C_24
REMARK                            x       y       z     vdW  Elec       q    Type
REMARK                         _______ _______ _______ _____ _____    ______ ____
ROOT
ATOM      3  O   UNL     1      13.116   2.722   1.294  0.00  0.00    -0.253 OA
ATOM      4  O   UNL     1       8.435   7.719   3.941  0.00  0.00    -0.270 OA
ATOM      7  N   UNL     1      11.861   4.616   1.786  0.00  0.00    -0.271 N 
ATOM      8  N   UNL     1      10.010   6.040   3.533  0.00  0.00    -0.294 N 
ATOM     10  N   UNL     1      13.319   4.558  -0.075  0.00  0.00    -0.297 N 
ATOM     12  C   UNL     1      11.318   5.931   1.409  0.00  0.00    +0.181 C 
ATOM     13  C   UNL     1       9.980   6.237   2.083  0.00  0.00    +0.140 C 
ATOM     14  C   UNL     1      11.262   3.971   2.958  0.00  0.00    +0.129 C 
ATOM     15  C   UNL     1      10.882   4.973   4.040  0.00  0.00    +0.127 C 
ATOM     17  C   UNL     1      12.789   3.881   1.019  0.00  0.00    +0.303 C 
ATOM     18  C   UNL     1       9.174   6.819   4.341  0.00  0.00    +0.247 C 
ATOM     38  H   UNL     1      13.126   5.543  -0.205  0.00  0.00    +0.150 HD
ENDROOT
BRANCH  18  21
ATOM      1  F   UNL     1       9.798   3.823   8.105  0.00  0.00    -0.205 F 
ATOM     21  C   UNL     1       9.167   6.557   5.789  0.00  0.00    +0.040 A 
ATOM     27  C   UNL     1       9.492   5.288   6.269  0.00  0.00    +0.051 A 
ATOM     28  C   UNL     1       8.835   7.578   6.680  0.00  0.00    +0.013 A 
ATOM     29  C   UNL     1       9.485   5.041   7.642  0.00  0.00    +0.124 A 
ATOM     30  C   UNL     1       8.829   7.330   8.053  0.00  0.00    +0.004 A 
ATOM     33  C   UNL     1       9.153   6.061   8.534  0.00  0.00    +0.038 A 
ENDBRANCH  18  21
BRANCH  12  16
ATOM      2  O   UNL     1      13.533   6.719   1.835  0.00  0.00    -0.274 OA
ATOM      9  N   UNL     1      11.746   8.185   2.099  0.00  0.00    -0.301 N 
ATOM     16  C   UNL     1      12.332   6.970   1.792  0.00  0.00    +0.236 C 
ATOM     37  H   UNL     1      10.747   8.301   1.953  0.00  0.00    +0.150 HD
BRANCH   9  19
ATOM     19  C   UNL     1      12.501   9.343   2.520  0.00  0.00    +0.186 C 
BRANCH  19  23
ATOM      6  O   UNL     1      11.140  10.735   1.088  0.00  0.00    -0.249 OA
ATOM     23  C   UNL     1      12.217  10.560   1.649  0.00  0.00    +0.328 C 
BRANCH  23   5
ATOM      5  O   UNL     1      13.292  11.393   1.563  0.00  0.00    -0.467 OA
ATOM     35  C   UNL     1      14.534  10.771   1.217  0.00  0.00    +0.280 C 
ENDBRANCH  23   5
ENDBRANCH  19  23
BRANCH  19  22
ATOM     22  C   UNL     1      12.299   9.646   4.013  0.00  0.00    +0.070 C 
BRANCH  22  24
ATOM     11  N   UNL     1      15.013   7.529   5.603  0.00  0.00    -0.263 NA
ATOM     24  C   UNL     1      12.992   8.684   4.951  0.00  0.00    -0.027 A 
ATOM     31  C   UNL     1      12.300   8.075   5.992  0.00  0.00    +0.006 A 
ATOM     32  C   UNL     1      14.335   8.380   4.800  0.00  0.00    +0.114 A 
ATOM     34  C   UNL     1      12.963   7.193   6.839  0.00  0.00    +0.020 A 
ATOM     36  C   UNL     1      14.307   6.956   6.604  0.00  0.00    +0.111 A 
ENDBRANCH  22  24
ENDBRANCH  19  22
ENDBRANCH   9  19
ENDBRANCH  12  16
BRANCH  10  20
ATOM     20  C   UNL     1      14.286   3.952  -0.962  0.00  0.00    +0.068 C 
ATOM     25  C   UNL     1      15.700   4.338  -0.548  0.00  0.00    +0.027 C 
ATOM     26  C   UNL     1      14.008   4.346  -2.407  0.00  0.00    +0.027 C 
ENDBRANCH  10  20
TORSDOF 8
ENDMDL
MODEL 5
REMARK VINA RESULT:      -5.8      2.494      4.582
REMARK  Name = 11867600
REMARK  11 active torsions:
REMARK  status: ('A' for Active; 'I' for Inactive)
REMARK    1  A    between atoms: O_5  and  C_23
REMARK    2  A    between atoms: O_5  and  C_35
REMARK    3  A    between atoms: N_9  and  C_19
REMARK    4  A    between atoms: N_10  and  C_20
REMARK    5  A    between atoms: C_12  and  C_16
REMARK    6  A    between atoms: C_18  and  C_21
REMARK    7  A    between atoms: C_19  and  C_22
REMARK    8  A    between atoms: C_19  and  C_23
REMARK    9  A    between atoms: C_20  and  C_25
REMARK   10  A    between atoms: C_20  and  C_26
REMARK   11  A    between atoms: C_22  and  C_24
REMARK                            x       y       z     vdW  Elec       q    Type
REMARK                         _______ _______ _______ _____ _____    ______ ____
ROOT
ATOM      3  O   UNL     1     -11.025  -8.508  14.557  0.00  0.00    -0.253 OA
ATOM      4  O   UNL     1      -5.765 -12.772  11.722  0.00  0.00    -0.270 OA
ATOM      7  N   UNL     1      -9.310 -10.023  14.148  0.00  0.00    -0.271 N 
ATOM      8  N   UNL     1      -7.238 -11.084  12.391  0.00  0.00    -0.294 N 
ATOM     10  N   UNL     1     -10.397  -9.935  16.246  0.00  0.00    -0.297 N 
ATOM     12  C   UNL     1      -8.537 -11.218  14.519  0.00  0.00    +0.181 C 
ATOM     13  C   UNL     1      -7.969 -11.960  13.308  0.00  0.00    +0.140 C 
ATOM     14  C   UNL     1      -9.142  -9.534  12.776  0.00  0.00    +0.129 C 
ATOM     15  C   UNL     1      -7.716  -9.701  12.271  0.00  0.00    +0.127 C 
ATOM     17  C   UNL     1     -10.298  -9.424  14.956  0.00  0.00    +0.303 C 
ATOM     18  C   UNL     1      -6.184 -11.617  11.640  0.00  0.00    +0.247 C 
ATOM     38  H   UNL     1      -9.711 -10.599  16.583  0.00  0.00    +0.150 HD
ENDROOT
BRANCH  18  21
ATOM      1  F   UNL     1      -2.447  -8.797  10.371  0.00  0.00    -0.205 F 
ATOM     21  C   UNL     1      -5.508 -10.740  10.672  0.00  0.00    +0.040 A 
ATOM     27  C   UNL     1      -4.273 -10.173  10.988  0.00  0.00    +0.051 A 
ATOM     28  C   UNL     1      -6.103 -10.474   9.439  0.00  0.00    +0.013 A 
ATOM     29  C   UNL     1      -3.633  -9.341  10.069  0.00  0.00    +0.124 A 
ATOM     30  C   UNL     1      -5.463  -9.642   8.520  0.00  0.00    +0.004 A 
ATOM     33  C   UNL     1      -4.228  -9.075   8.835  0.00  0.00    +0.038 A 
ENDBRANCH  18  21
BRANCH  12  16
ATOM      2  O   UNL     1      -7.294  -9.608  15.773  0.00  0.00    -0.274 OA
ATOM      9  N   UNL     1      -6.570 -11.820  15.750  0.00  0.00    -0.301 N 
ATOM     16  C   UNL     1      -7.416 -10.777  15.417  0.00  0.00    +0.236 C 
ATOM     37  H   UNL     1      -6.814 -12.763  15.462  0.00  0.00    +0.150 HD
BRANCH   9  19
ATOM     19  C   UNL     1      -5.402 -11.655  16.584  0.00  0.00    +0.186 C 
BRANCH  19  23
ATOM      6  O   UNL     1      -6.199 -13.118  18.334  0.00  0.00    -0.249 OA
ATOM     23  C   UNL     1      -5.668 -12.055  18.029  0.00  0.00    +0.328 C 
BRANCH  23   5
ATOM      5  O   UNL     1      -5.267 -11.096  18.910  0.00  0.00    -0.467 OA
ATOM     35  C   UNL     1      -6.311 -10.302  19.482  0.00  0.00    +0.280 C 
ENDBRANCH  23   5
ENDBRANCH  19  23
BRANCH  19  22
ATOM     22  C   UNL     1      -4.177 -12.378  16.003  0.00  0.00    +0.070 C 
BRANCH  22  24
ATOM     11  N   UNL     1      -1.153 -10.092  15.970  0.00  0.00    -0.263 NA
ATOM     24  C   UNL     1      -3.086 -11.464  15.495  0.00  0.00    -0.027 A 
ATOM     31  C   UNL     1      -2.989 -11.144  14.145  0.00  0.00    +0.006 A 
ATOM     32  C   UNL     1      -2.152 -10.915  16.359  0.00  0.00    +0.114 A 
ATOM     34  C   UNL     1      -1.976 -10.300  13.706  0.00  0.00    +0.020 A 
ATOM     36  C   UNL     1      -1.092  -9.804  14.650  0.00  0.00    +0.111 A 
ENDBRANCH  22  24
ENDBRANCH  19  22
ENDBRANCH   9  19
ENDBRANCH  12  16
BRANCH  10  20
ATOM     20  C   UNL     1     -11.355  -9.431  17.205  0.00  0.00    +0.068 C 
ATOM     25  C   UNL     1     -10.749  -9.417  18.602  0.00  0.00    +0.027 C 
ATOM     26  C   UNL     1     -12.635 -10.256  17.166  0.00  0.00    +0.027 C 
ENDBRANCH  10  20
TORSDOF 8
ENDMDL
MODEL 6
REMARK VINA RESULT:      -5.6     23.889     26.619
REMARK  Name = 11867600
REMARK  11 active torsions:
REMARK  status: ('A' for Active; 'I' for Inactive)
REMARK    1  A    between atoms: O_5  and  C_23
REMARK    2  A    between atoms: O_5  and  C_35
REMARK    3  A    between atoms: N_9  and  C_19
REMARK    4  A    between atoms: N_10  and  C_20
REMARK    5  A    between atoms: C_12  and  C_16
REMARK    6  A    between atoms: C_18  and  C_21
REMARK    7  A    between atoms: C_19  and  C_22
REMARK    8  A    between atoms: C_19  and  C_23
REMARK    9  A    between atoms: C_20  and  C_25
REMARK   10  A    between atoms: C_20  and  C_26
REMARK   11  A    between atoms: C_22  and  C_24
REMARK                            x       y       z     vdW  Elec       q    Type
REMARK                         _______ _______ _______ _____ _____    ______ ____
ROOT
ATOM      3  O   UNL     1       9.883   3.894   5.658  0.00  0.00    -0.253 OA
ATOM      4  O   UNL     1      12.992   6.206  -0.576  0.00  0.00    -0.270 OA
ATOM      7  N   UNL     1      10.747   5.096   3.867  0.00  0.00    -0.271 N 
ATOM      8  N   UNL     1      11.782   5.180   1.141  0.00  0.00    -0.294 N 
ATOM     10  N   UNL     1      10.013   6.183   5.834  0.00  0.00    -0.297 N 
ATOM     12  C   UNL     1      11.282   6.342   3.294  0.00  0.00    +0.181 C 
ATOM     13  C   UNL     1      12.286   6.095   2.166  0.00  0.00    +0.140 C 
ATOM     14  C   UNL     1      10.962   3.872   3.089  0.00  0.00    +0.129 C 
ATOM     15  C   UNL     1      10.876   4.115   1.589  0.00  0.00    +0.127 C 
ATOM     17  C   UNL     1      10.193   4.981   5.158  0.00  0.00    +0.303 C 
ATOM     18  C   UNL     1      12.233   5.323  -0.177  0.00  0.00    +0.247 C 
ATOM     38  H   UNL     1      10.163   7.062   5.355  0.00  0.00    +0.150 HD
ENDROOT
BRANCH  18  21
ATOM      1  F   UNL     1       9.057   3.914  -3.561  0.00  0.00    -0.205 F 
ATOM     21  C   UNL     1      11.771   4.349  -1.178  0.00  0.00    +0.040 A 
ATOM     27  C   UNL     1      10.609   4.599  -1.909  0.00  0.00    +0.051 A 
ATOM     28  C   UNL     1      12.494   3.176  -1.395  0.00  0.00    +0.013 A 
ATOM     29  C   UNL     1      10.171   3.675  -2.858  0.00  0.00    +0.124 A 
ATOM     30  C   UNL     1      12.057   2.253  -2.345  0.00  0.00    +0.004 A 
ATOM     33  C   UNL     1      10.895   2.502  -3.076  0.00  0.00    +0.038 A 
ENDBRANCH  18  21
BRANCH  12  16
ATOM      2  O   UNL     1       8.962   6.864   3.068  0.00  0.00    -0.274 OA
ATOM      9  N   UNL     1      10.525   8.174   1.947  0.00  0.00    -0.301 N 
ATOM     16  C   UNL     1      10.121   7.143   2.777  0.00  0.00    +0.236 C 
ATOM     37  H   UNL     1      11.518   8.360   1.840  0.00  0.00    +0.150 HD
BRANCH   9  19
ATOM     19  C   UNL     1       9.600   9.077   1.302  0.00  0.00    +0.186 C 
BRANCH  19  23
ATOM      6  O   UNL     1      10.347  11.353   1.622  0.00  0.00    -0.249 OA
ATOM     23  C   UNL     1       9.587  10.451   1.960  0.00  0.00    +0.328 C 
BRANCH  23   5
ATOM      5  O   UNL     1       8.660  10.535   2.955  0.00  0.00    -0.467 OA
ATOM     35  C   UNL     1       7.365  10.010   2.644  0.00  0.00    +0.280 C 
ENDBRANCH  23   5
ENDBRANCH  19  23
BRANCH  19  22
ATOM     22  C   UNL     1       9.850   9.168  -0.212  0.00  0.00    +0.070 C 
BRANCH  22  24
ATOM     11  N   UNL     1       6.412   8.948  -1.794  0.00  0.00    -0.263 NA
ATOM     24  C   UNL     1       8.703   8.685  -1.070  0.00  0.00    -0.027 A 
ATOM     31  C   UNL     1       8.846   7.580  -1.902  0.00  0.00    +0.006 A 
ATOM     32  C   UNL     1       7.476   9.328  -1.052  0.00  0.00    +0.114 A 
ATOM     34  C   UNL     1       7.774   7.159  -2.680  0.00  0.00    +0.020 A 
ATOM     36  C   UNL     1       6.589   7.870  -2.590  0.00  0.00    +0.111 A 
ENDBRANCH  22  24
ENDBRANCH  19  22
ENDBRANCH   9  19
ENDBRANCH  12  16
BRANCH  10  20
ATOM     20  C   UNL     1       9.453   6.244   7.165  0.00  0.00    +0.068 C 
ATOM     25  C   UNL     1       8.714   7.560   7.370  0.00  0.00    +0.027 C 
ATOM     26  C   UNL     1      10.542   6.052   8.214  0.00  0.00    +0.027 C 
ENDBRANCH  10  20
TORSDOF 8
ENDMDL
MODEL 7
REMARK VINA RESULT:      -5.6     26.003     29.402
REMARK  Name = 11867600
REMARK  11 active torsions:
REMARK  status: ('A' for Active; 'I' for Inactive)
REMARK    1  A    between atoms: O_5  and  C_23
REMARK    2  A    between atoms: O_5  and  C_35
REMARK    3  A    between atoms: N_9  and  C_19
REMARK    4  A    between atoms: N_10  and  C_20
REMARK    5  A    between atoms: C_12  and  C_16
REMARK    6  A    between atoms: C_18  and  C_21
REMARK    7  A    between atoms: C_19  and  C_22
REMARK    8  A    between atoms: C_19  and  C_23
REMARK    9  A    between atoms: C_20  and  C_25
REMARK   10  A    between atoms: C_20  and  C_26
REMARK   11  A    between atoms: C_22  and  C_24
REMARK                            x       y       z     vdW  Elec       q    Type
REMARK                         _______ _______ _______ _____ _____    ______ ____
ROOT
ATOM      3  O   UNL     1      12.110   6.583   6.905  0.00  0.00    -0.253 OA
ATOM      4  O   UNL     1      17.616  10.008   3.466  0.00  0.00    -0.270 OA
ATOM      7  N   UNL     1      13.572   7.569   5.392  0.00  0.00    -0.271 N 
ATOM      8  N   UNL     1      16.193   8.690   4.770  0.00  0.00    -0.294 N 
ATOM     10  N   UNL     1      11.424   6.841   4.726  0.00  0.00    -0.297 N 
ATOM     12  C   UNL     1      13.843   8.193   4.086  0.00  0.00    +0.181 C 
ATOM     13  C   UNL     1      14.981   9.214   4.139  0.00  0.00    +0.140 C 
ATOM     14  C   UNL     1      14.600   7.737   6.423  0.00  0.00    +0.129 C 
ATOM     15  C   UNL     1      16.009   7.710   5.848  0.00  0.00    +0.127 C 
ATOM     17  C   UNL     1      12.349   6.971   5.756  0.00  0.00    +0.303 C 
ATOM     18  C   UNL     1      17.437   9.188   4.366  0.00  0.00    +0.247 C 
ATOM     38  H   UNL     1      11.691   7.055   3.773  0.00  0.00    +0.150 HD
ENDROOT
BRANCH  18  21
ATOM      1  F   UNL     1      20.320   9.074   8.265  0.00  0.00    -0.205 F 
ATOM     21  C   UNL     1      18.638   8.700   5.061  0.00  0.00    +0.040 A 
ATOM     27  C   UNL     1      18.915   9.128   6.360  0.00  0.00    +0.051 A 
ATOM     28  C   UNL     1      19.501   7.810   4.421  0.00  0.00    +0.013 A 
ATOM     29  C   UNL     1      20.054   8.664   7.018  0.00  0.00    +0.124 A 
ATOM     30  C   UNL     1      20.639   7.346   5.080  0.00  0.00    +0.004 A 
ATOM     33  C   UNL     1      20.917   7.774   6.378  0.00  0.00    +0.038 A 
ENDBRANCH  18  21
BRANCH  12  16
ATOM      2  O   UNL     1      14.967   6.195   3.412  0.00  0.00    -0.274 OA
ATOM      9  N   UNL     1      13.548   7.253   1.901  0.00  0.00    -0.301 N 
ATOM     16  C   UNL     1      14.187   7.097   3.119  0.00  0.00    +0.236 C 
ATOM     37  H   UNL     1      12.862   7.996   1.797  0.00  0.00    +0.150 HD
BRANCH   9  19
ATOM     19  C   UNL     1      13.729   6.346   0.792  0.00  0.00    +0.186 C 
BRANCH  19  23
ATOM      6  O   UNL     1      15.770   7.285  -0.097  0.00  0.00    -0.249 OA
ATOM     23  C   UNL     1      15.177   6.297   0.321  0.00  0.00    +0.328 C 
BRANCH  23   5
ATOM      5  O   UNL     1      15.703   5.043   0.408  0.00  0.00    -0.467 OA
ATOM     35  C   UNL     1      16.403   4.581  -0.752  0.00  0.00    +0.280 C 
ENDBRANCH  23   5
ENDBRANCH  19  23
BRANCH  19  22
ATOM     22  C   UNL     1      13.177   4.946   1.100  0.00  0.00    +0.070 C 
BRANCH  22  24
ATOM     11  N   UNL     1      10.421   4.177  -1.387  0.00  0.00    -0.263 NA
ATOM     24  C   UNL     1      12.424   4.299  -0.040  0.00  0.00    -0.027 A 
ATOM     31  C   UNL     1      12.992   3.268  -0.780  0.00  0.00    +0.006 A 
ATOM     32  C   UNL     1      11.147   4.713  -0.380  0.00  0.00    +0.114 A 
ATOM     34  C   UNL     1      12.277   2.691  -1.822  0.00  0.00    +0.020 A 
ATOM     36  C   UNL     1      11.006   3.177  -2.083  0.00  0.00    +0.111 A 
ENDBRANCH  22  24
ENDBRANCH  19  22
ENDBRANCH   9  19
ENDBRANCH  12  16
BRANCH  10  20
ATOM     20  C   UNL     1      10.123   6.245   4.928  0.00  0.00    +0.068 C 
ATOM     25  C   UNL     1      10.142   4.777   4.520  0.00  0.00    +0.027 C 
ATOM     26  C   UNL     1       9.056   7.016   4.161  0.00  0.00    +0.027 C 
ENDBRANCH  10  20
TORSDOF 8
ENDMDL
MODEL 8
REMARK VINA RESULT:      -5.5     25.230     28.222
REMARK  Name = 11867600
REMARK  11 active torsions:
REMARK  status: ('A' for Active; 'I' for Inactive)
REMARK    1  A    between atoms: O_5  and  C_23
REMARK    2  A    between atoms: O_5  and  C_35
REMARK    3  A    between atoms: N_9  and  C_19
REMARK    4  A    between atoms: N_10  and  C_20
REMARK    5  A    between atoms: C_12  and  C_16
REMARK    6  A    between atoms: C_18  and  C_21
REMARK    7  A    between atoms: C_19  and  C_22
REMARK    8  A    between atoms: C_19  and  C_23
REMARK    9  A    between atoms: C_20  and  C_25
REMARK   10  A    between atoms: C_20  and  C_26
REMARK   11  A    between atoms: C_22  and  C_24
REMARK                            x       y       z     vdW  Elec       q    Type
REMARK                         _______ _______ _______ _____ _____    ______ ____
ROOT
ATOM      3  O   UNL     1      17.164   6.883   0.150  0.00  0.00    -0.253 OA
ATOM      4  O   UNL     1      11.335   3.138   2.574  0.00  0.00    -0.270 OA
ATOM      7  N   UNL     1      15.375   5.436   0.474  0.00  0.00    -0.271 N 
ATOM      8  N   UNL     1      12.949   4.696   1.914  0.00  0.00    -0.294 N 
ATOM     10  N   UNL     1      16.898   5.125  -1.307  0.00  0.00    -0.297 N 
ATOM     12  C   UNL     1      14.681   4.168   0.195  0.00  0.00    +0.181 C 
ATOM     13  C   UNL     1      13.847   3.672   1.378  0.00  0.00    +0.140 C 
ATOM     14  C   UNL     1      14.918   6.188   1.647  0.00  0.00    +0.129 C 
ATOM     15  C   UNL     1      13.413   6.087   1.850  0.00  0.00    +0.127 C 
ATOM     17  C   UNL     1      16.527   5.885  -0.203  0.00  0.00    +0.303 C 
ATOM     18  C   UNL     1      11.745   4.297   2.508  0.00  0.00    +0.247 C 
ATOM     38  H   UNL     1      16.292   4.388  -1.644  0.00  0.00    +0.150 HD
ENDROOT
BRANCH  18  21
ATOM      1  F   UNL     1       9.989   6.625   6.385  0.00  0.00    -0.205 F 
ATOM     21  C   UNL     1      10.889   5.334   3.105  0.00  0.00    +0.040 A 
ATOM     27  C   UNL     1      10.845   5.490   4.490  0.00  0.00    +0.051 A 
ATOM     28  C   UNL     1      10.122   6.162   2.284  0.00  0.00    +0.013 A 
ATOM     29  C   UNL     1      10.033   6.474   5.055  0.00  0.00    +0.124 A 
ATOM     30  C   UNL     1       9.311   7.146   2.849  0.00  0.00    +0.004 A 
ATOM     33  C   UNL     1       9.265   7.302   4.234  0.00  0.00    +0.038 A 
ENDBRANCH  18  21
BRANCH  12  16
ATOM      2  O   UNL     1      14.135   5.101  -1.936  0.00  0.00    -0.274 OA
ATOM      9  N   UNL     1      12.587   3.720  -0.881  0.00  0.00    -0.301 N 
ATOM     16  C   UNL     1      13.794   4.387  -0.997  0.00  0.00    +0.236 C 
ATOM     37  H   UNL     1      12.444   3.093  -0.094  0.00  0.00    +0.150 HD
BRANCH   9  19
ATOM     19  C   UNL     1      11.547   3.786  -1.882  0.00  0.00    +0.186 C 
BRANCH  19  23
ATOM      6  O   UNL     1      10.459   1.722  -2.509  0.00  0.00    -0.249 OA
ATOM     23  C   UNL     1      11.412   2.480  -2.655  0.00  0.00    +0.328 C 
BRANCH  23   5
ATOM      5  O   UNL     1      12.467   2.265  -3.490  0.00  0.00    -0.467 OA
ATOM     35  C   UNL     1      12.618   3.207  -4.557  0.00  0.00    +0.280 C 
ENDBRANCH  23   5
ENDBRANCH  19  23
BRANCH  19  22
ATOM     22  C   UNL     1      10.207   4.243  -1.288  0.00  0.00    +0.070 C 
BRANCH  22  24
ATOM     11  N   UNL     1       8.460   6.244  -3.993  0.00  0.00    -0.263 NA
ATOM     24  C   UNL     1       9.558   5.401  -2.011  0.00  0.00    -0.027 A 
ATOM     31  C   UNL     1       9.451   6.652  -1.413  0.00  0.00    +0.006 A 
ATOM     32  C   UNL     1       9.051   5.251  -3.292  0.00  0.00    +0.114 A 
ATOM     34  C   UNL     1       8.850   7.698  -2.102  0.00  0.00    +0.020 A 
ATOM     36  C   UNL     1       8.375   7.445  -3.379  0.00  0.00    +0.111 A 
ENDBRANCH  22  24
ENDBRANCH  19  22
ENDBRANCH   9  19
ENDBRANCH  12  16
BRANCH  10  20
ATOM     20  C   UNL     1      18.052   5.451  -2.115  0.00  0.00    +0.068 C 
ATOM     25  C   UNL     1      17.616   6.071  -3.436  0.00  0.00    +0.027 C 
ATOM     26  C   UNL     1      18.911   4.214  -2.344  0.00  0.00    +0.027 C 
ENDBRANCH  10  20
TORSDOF 8
ENDMDL
MODEL 9
REMARK VINA RESULT:      -5.5     23.671     26.976
REMARK  Name = 11867600
REMARK  11 active torsions:
REMARK  status: ('A' for Active; 'I' for Inactive)
REMARK    1  A    between atoms: O_5  and  C_23
REMARK    2  A    between atoms: O_5  and  C_35
REMARK    3  A    between atoms: N_9  and  C_19
REMARK    4  A    between atoms: N_10  and  C_20
REMARK    5  A    between atoms: C_12  and  C_16
REMARK    6  A    between atoms: C_18  and  C_21
REMARK    7  A    between atoms: C_19  and  C_22
REMARK    8  A    between atoms: C_19  and  C_23
REMARK    9  A    between atoms: C_20  and  C_25
REMARK   10  A    between atoms: C_20  and  C_26
REMARK   11  A    between atoms: C_22  and  C_24
REMARK                            x       y       z     vdW  Elec       q    Type
REMARK                         _______ _______ _______ _____ _____    ______ ____
ROOT
ATOM      3  O   UNL     1       8.287  10.267   1.237  0.00  0.00    -0.253 OA
ATOM      4  O   UNL     1      11.342   3.865   3.126  0.00  0.00    -0.270 OA
ATOM      7  N   UNL     1       9.051   8.346   2.300  0.00  0.00    -0.271 N 
ATOM      8  N   UNL     1      10.772   5.991   2.339  0.00  0.00    -0.294 N 
ATOM     10  N   UNL     1       7.526   9.810   3.358  0.00  0.00    -0.297 N 
ATOM     12  C   UNL     1       8.958   7.353   3.382  0.00  0.00    +0.181 C 
ATOM     13  C   UNL     1       9.448   5.966   2.962  0.00  0.00    +0.140 C 
ATOM     14  C   UNL     1       9.882   7.983   1.148  0.00  0.00    +0.129 C 
ATOM     15  C   UNL     1      11.112   7.181   1.550  0.00  0.00    +0.127 C 
ATOM     17  C   UNL     1       8.286   9.527   2.227  0.00  0.00    +0.303 C 
ATOM     18  C   UNL     1      11.604   4.873   2.470  0.00  0.00    +0.247 C 
ATOM     38  H   UNL     1       7.637   9.254   4.196  0.00  0.00    +0.150 HD
ENDROOT
BRANCH  18  21
ATOM      1  F   UNL     1      15.971   6.841   1.703  0.00  0.00    -0.205 F 
ATOM     21  C   UNL     1      12.902   4.889   1.778  0.00  0.00    +0.040 A 
ATOM     27  C   UNL     1      13.840   5.878   2.075  0.00  0.00    +0.051 A 
ATOM     28  C   UNL     1      13.194   3.914   0.823  0.00  0.00    +0.013 A 
ATOM     29  C   UNL     1      15.070   5.892   1.418  0.00  0.00    +0.124 A 
ATOM     30  C   UNL     1      14.425   3.929   0.166  0.00  0.00    +0.004 A 
ATOM     33  C   UNL     1      15.362   4.918   0.463  0.00  0.00    +0.038 A 
ENDBRANCH  18  21
BRANCH  12  16
ATOM      2  O   UNL     1      10.393   8.918   4.478  0.00  0.00    -0.274 OA
ATOM      9  N   UNL     1       9.764   6.984   5.609  0.00  0.00    -0.301 N 
ATOM     16  C   UNL     1       9.779   7.856   4.535  0.00  0.00    +0.236 C 
ATOM     37  H   UNL     1       9.156   6.170   5.574  0.00  0.00    +0.150 HD
BRANCH   9  19
ATOM     19  C   UNL     1      10.494   7.223   6.832  0.00  0.00    +0.186 C 
BRANCH  19  23
ATOM      6  O   UNL     1       8.678   7.359   8.422  0.00  0.00    -0.249 OA
ATOM     23  C   UNL     1       9.706   6.793   8.063  0.00  0.00    +0.328 C 
BRANCH  23   5
ATOM      5  O   UNL     1      10.287   5.739   8.702  0.00  0.00    -0.467 OA
ATOM     35  C   UNL     1       9.393   4.870   9.405  0.00  0.00    +0.280 C 
ENDBRANCH  23   5
ENDBRANCH  19  23
BRANCH  19  22
ATOM     22  C   UNL     1      11.894   6.593   6.797  0.00  0.00    +0.070 C 
BRANCH  22  24
ATOM     11  N   UNL     1      15.370   7.994   6.223  0.00  0.00    -0.263 NA
ATOM     24  C   UNL     1      13.028   7.583   6.659  0.00  0.00    -0.027 A 
ATOM     31  C   UNL     1      12.814   8.947   6.828  0.00  0.00    +0.006 A 
ATOM     32  C   UNL     1      14.314   7.162   6.360  0.00  0.00    +0.114 A 
ATOM     34  C   UNL     1      13.876   9.834   6.695  0.00  0.00    +0.020 A 
ATOM     36  C   UNL     1      15.123   9.312   6.395  0.00  0.00    +0.111 A 
ENDBRANCH  22  24
ENDBRANCH  19  22
ENDBRANCH   9  19
ENDBRANCH  12  16
BRANCH  10  20
ATOM     20  C   UNL     1       6.689  10.985   3.451  0.00  0.00    +0.068 C 
ATOM     25  C   UNL     1       7.135  11.864   4.612  0.00  0.00    +0.027 C 
ATOM     26  C   UNL     1       5.224  10.589   3.589  0.00  0.00    +0.027 C 
ENDBRANCH  10  20
TORSDOF 8
ENDMDL
MODEL 10
REMARK VINA RESULT:      -5.4      3.602      7.770
REMARK  Name = 11867600
REMARK  11 active torsions:
REMARK  status: ('A' for Active; 'I' for Inactive)
REMARK    1  A    between atoms: O_5  and  C_23
REMARK    2  A    between atoms: O_5  and  C_35
REMARK    3  A    between atoms: N_9  and  C_19
REMARK    4  A    between atoms: N_10  and  C_20
REMARK    5  A    between atoms: C_12  and  C_16
REMARK    6  A    between atoms: C_18  and  C_21
REMARK    7  A    between atoms: C_19  and  C_22
REMARK    8  A    between atoms: C_19  and  C_23
REMARK    9  A    between atoms: C_20  and  C_25
REMARK   10  A    between atoms: C_20  and  C_26
REMARK   11  A    between atoms: C_22  and  C_24
REMARK                            x       y       z     vdW  Elec       q    Type
REMARK                         _______ _______ _______ _____ _____    ______ ____
ROOT
ATOM      3  O   UNL     1     -11.130 -11.569  11.455  0.00  0.00    -0.253 OA
ATOM      4  O   UNL     1      -9.407  -8.012  17.641  0.00  0.00    -0.270 OA
ATOM      7  N   UNL     1     -10.106 -10.448  13.215  0.00  0.00    -0.271 N 
ATOM      8  N   UNL     1     -10.176  -9.427  15.946  0.00  0.00    -0.294 N 
ATOM     10  N   UNL     1      -8.944 -10.902  11.207  0.00  0.00    -0.297 N 
ATOM     12  C   UNL     1      -9.002  -9.635  13.752  0.00  0.00    +0.181 C 
ATOM     13  C   UNL     1      -9.440  -8.720  14.897  0.00  0.00    +0.140 C 
ATOM     14  C   UNL     1     -11.319 -10.528  14.034  0.00  0.00    +0.129 C 
ATOM     15  C   UNL     1     -11.012 -10.557  15.524  0.00  0.00    +0.127 C 
ATOM     17  C   UNL     1     -10.131 -11.012  11.923  0.00  0.00    +0.303 C 
ATOM     18  C   UNL     1     -10.099  -8.956  17.263  0.00  0.00    +0.247 C 
ATOM     38  H   UNL     1      -8.108 -10.551  11.658  0.00  0.00    +0.150 HD
ENDROOT
BRANCH  18  21
ATOM      1  F   UNL     1     -10.541 -12.242  20.804  0.00  0.00    -0.205 F 
ATOM     21  C   UNL     1     -10.902  -9.637  18.290  0.00  0.00    +0.040 A 
ATOM     27  C   UNL     1     -10.328 -10.637  19.075  0.00  0.00    +0.051 A 
ATOM     28  C   UNL     1     -12.238  -9.281  18.480  0.00  0.00    +0.013 A 
ATOM     29  C   UNL     1     -11.091 -11.282  20.050  0.00  0.00    +0.124 A 
ATOM     30  C   UNL     1     -13.000  -9.925  19.455  0.00  0.00    +0.004 A 
ATOM     33  C   UNL     1     -12.427 -10.926  20.239  0.00  0.00    +0.038 A 
ENDBRANCH  18  21
BRANCH  12  16
ATOM      2  O   UNL     1      -8.066 -11.795  14.164  0.00  0.00    -0.274 OA
ATOM      9  N   UNL     1      -6.844  -9.905  14.758  0.00  0.00    -0.301 N 
ATOM     16  C   UNL     1      -7.934 -10.576  14.232  0.00  0.00    +0.236 C 
ATOM     37  H   UNL     1      -6.810  -8.892  14.691  0.00  0.00    +0.150 HD
BRANCH   9  19
ATOM     19  C   UNL     1      -5.691 -10.580  15.309  0.00  0.00    +0.186 C 
BRANCH  19  23
ATOM      6  O   UNL     1      -4.566 -10.309  13.187  0.00  0.00    -0.249 OA
ATOM     23  C   UNL     1      -4.474 -10.469  14.400  0.00  0.00    +0.328 C 
BRANCH  23   5
ATOM      5  O   UNL     1      -3.305 -10.585  15.091  0.00  0.00    -0.467 OA
ATOM     35  C   UNL     1      -2.407 -11.599  14.626  0.00  0.00    +0.280 C 
ENDBRANCH  23   5
ENDBRANCH  19  23
BRANCH  19  22
ATOM     22  C   UNL     1      -5.384 -10.113  16.740  0.00  0.00    +0.070 C 
BRANCH  22  24
ATOM     11  N   UNL     1      -6.796 -11.070  20.126  0.00  0.00    -0.263 NA
ATOM     24  C   UNL     1      -6.075 -10.908  17.825  0.00  0.00    -0.027 A 
ATOM     31  C   UNL     1      -6.614 -12.163  17.561  0.00  0.00    +0.006 A 
ATOM     32  C   UNL     1      -6.191 -10.411  19.113  0.00  0.00    +0.114 A 
ATOM     34  C   UNL     1      -7.244 -12.872  18.578  0.00  0.00    +0.020 A 
ATOM     36  C   UNL     1      -7.307 -12.287  19.832  0.00  0.00    +0.111 A 
ENDBRANCH  22  24
ENDBRANCH  19  22
ENDBRANCH   9  19
ENDBRANCH  12  16
BRANCH  10  20
ATOM     20  C   UNL     1      -8.798 -11.431   9.869  0.00  0.00    +0.068 C 
ATOM     25  C   UNL     1      -7.506 -12.229   9.752  0.00  0.00    +0.027 C 
ATOM     26  C   UNL     1      -8.848 -10.307   8.841  0.00  0.00    +0.027 C 
ENDBRANCH  10  20
TORSDOF 8
ENDMDL
