MODEL 1
REMARK VINA RESULT:      -6.8      0.000      0.000
REMARK  Name = 23843914
REMARK  11 active torsions:
REMARK  status: ('A' for Active; 'I' for Inactive)
REMARK    1  A    between atoms: O_4  and  C_17
REMARK    2  A    between atoms: O_4  and  C_26
REMARK    3  A    between atoms: O_5  and  C_18
REMARK    4  A    between atoms: O_6  and  C_22
REMARK    5  A    between atoms: N_10  and  C_31
REMARK    6  A    between atoms: C_11  and  C_21
REMARK    7  A    between atoms: C_13  and  C_22
REMARK    8  A    between atoms: C_13  and  C_24
REMARK    9  A    between atoms: C_14  and  C_23
REMARK   10  A    between atoms: C_23  and  C_25
REMARK   11  A    between atoms: C_34  and  C_37
REMARK                            x       y       z     vdW  Elec       q    Type
REMARK                         _______ _______ _______ _____ _____    ______ ____
ROOT
ATOM     11  C   UNL     1      -4.794 -11.367  12.227  0.00  0.00    -0.023 C 
ATOM     12  C   UNL     1      -4.211 -10.152  11.399  0.00  0.00    +0.007 C 
ATOM     13  C   UNL     1      -4.967  -9.864  10.028  0.00  0.00    +0.031 C 
ATOM     14  C   UNL     1      -3.875 -11.705  13.473  0.00  0.00    +0.032 C 
ATOM     15  C   UNL     1      -4.890 -12.610  11.296  0.00  0.00    +0.011 C 
ATOM     16  C   UNL     1      -2.681 -10.325  11.147  0.00  0.00    +0.007 C 
ATOM     17  C   UNL     1      -5.092 -11.177   9.202  0.00  0.00    +0.186 C 
ATOM     18  C   UNL     1      -2.401 -11.902  13.077  0.00  0.00    +0.119 C 
ATOM     19  C   UNL     1      -5.651 -12.356   9.997  0.00  0.00    +0.046 C 
ATOM     20  C   UNL     1      -1.858 -10.670  12.378  0.00  0.00    +0.032 C 
ATOM     21  C   UNL     1      -6.212 -11.083  12.788  0.00  0.00    +0.012 C 
ATOM     24  C   UNL     1      -4.190  -8.815   9.182  0.00  0.00    +0.017 C 
ENDROOT
BRANCH  18   5
ATOM      5  O   UNL     1      -1.588 -12.170  14.217  0.00  0.00    -0.391 OA
ATOM     38  H   UNL     1      -0.716 -11.772  14.058  0.00  0.00    +0.210 HD
ENDBRANCH  18   5
BRANCH  17   4
ATOM      4  O   UNL     1      -5.930 -10.998   8.059  0.00  0.00    -0.446 OA
BRANCH   4  26
ATOM      8  O   UNL     1      -6.538 -12.712   6.673  0.00  0.00    -0.226 OA
ATOM     10  N   UNL     1      -4.488 -11.603   6.457  0.00  0.00    -0.251 N 
ATOM     26  C   UNL     1      -5.724 -11.862   7.015  0.00  0.00    +0.405 C 
ATOM     40  H   UNL     1      -3.951 -10.851   6.883  0.00  0.00    +0.158 HD
BRANCH  10  31
ATOM     31  C   UNL     1      -3.873 -12.253   5.363  0.00  0.00    +0.037 A 
ATOM     32  C   UNL     1      -2.701 -12.985   5.555  0.00  0.00    +0.035 A 
ATOM     33  C   UNL     1      -4.438 -12.162   4.091  0.00  0.00    +0.023 A 
ATOM     34  C   UNL     1      -2.094 -13.625   4.474  0.00  0.00    +0.057 A 
ATOM     35  C   UNL     1      -3.831 -12.804   3.010  0.00  0.00    +0.002 A 
ATOM     36  C   UNL     1      -2.659 -13.535   3.202  0.00  0.00    +0.012 A 
BRANCH  34  37
ATOM      1  F   UNL     1       0.005 -14.377   3.607  0.00  0.00    -0.166 F 
ATOM      2  F   UNL     1      -0.092 -13.976   5.737  0.00  0.00    -0.166 F 
ATOM      3  F   UNL     1      -1.081 -15.732   4.917  0.00  0.00    -0.166 F 
ATOM     37  C   UNL     1      -0.841 -14.408   4.680  0.00  0.00    +0.417 C 
ENDBRANCH  34  37
ENDBRANCH  10  31
ENDBRANCH   4  26
ENDBRANCH  17   4
BRANCH  13  22
ATOM     22  C   UNL     1      -6.355  -9.218  10.260  0.00  0.00    +0.166 C 
BRANCH  22   6
ATOM      6  O   UNL     1      -6.623  -8.376   9.163  0.00  0.00    -0.394 OA
ATOM     39  H   UNL     1      -6.785  -7.485   9.514  0.00  0.00    +0.209 HD
ENDBRANCH  22   6
ENDBRANCH  13  22
BRANCH  14  23
ATOM     23  C   UNL     1      -3.996 -10.672  14.619  0.00  0.00    +0.102 C 
BRANCH  23  25
ATOM      7  O   UNL     1      -3.877 -12.416  16.237  0.00  0.00    -0.276 OA
ATOM      9  N   UNL     1      -5.464 -10.772  16.573  0.00  0.00    -0.301 N 
ATOM     25  C   UNL     1      -4.429 -11.373  15.881  0.00  0.00    +0.216 C 
ATOM     27  C   UNL     1      -6.002 -11.328  17.806  0.00  0.00    +0.108 C 
ATOM     28  C   UNL     1      -6.157  -9.539  16.209  0.00  0.00    +0.108 C 
ATOM     29  C   UNL     1      -6.862 -10.214  18.383  0.00  0.00    +0.020 C 
ATOM     30  C   UNL     1      -7.363  -9.494  17.138  0.00  0.00    +0.020 C 
ENDBRANCH  23  25
ENDBRANCH  14  23
TORSDOF 9
ENDMDL
MODEL 2
REMARK VINA RESULT:      -6.7      4.843      8.330
REMARK  Name = 23843914
REMARK  11 active torsions:
REMARK  status: ('A' for Active; 'I' for Inactive)
REMARK    1  A    between atoms: O_4  and  C_17
REMARK    2  A    between atoms: O_4  and  C_26
REMARK    3  A    between atoms: O_5  and  C_18
REMARK    4  A    between atoms: O_6  and  C_22
REMARK    5  A    between atoms: N_10  and  C_31
REMARK    6  A    between atoms: C_11  and  C_21
REMARK    7  A    between atoms: C_13  and  C_22
REMARK    8  A    between atoms: C_13  and  C_24
REMARK    9  A    between atoms: C_14  and  C_23
REMARK   10  A    between atoms: C_23  and  C_25
REMARK   11  A    between atoms: C_34  and  C_37
REMARK                            x       y       z     vdW  Elec       q    Type
REMARK                         _______ _______ _______ _____ _____    ______ ____
ROOT
ATOM     11  C   UNL     1      -7.438 -11.061  18.395  0.00  0.00    -0.023 C 
ATOM     12  C   UNL     1      -6.644 -12.425  18.289  0.00  0.00    +0.007 C 
ATOM     13  C   UNL     1      -5.072 -12.261  18.102  0.00  0.00    +0.031 C 
ATOM     14  C   UNL     1      -9.004 -11.305  18.387  0.00  0.00    +0.032 C 
ATOM     15  C   UNL     1      -7.045 -10.155  17.193  0.00  0.00    +0.011 C 
ATOM     16  C   UNL     1      -7.232 -13.331  17.163  0.00  0.00    +0.007 C 
ATOM     17  C   UNL     1      -4.773 -11.276  16.936  0.00  0.00    +0.186 C 
ATOM     18  C   UNL     1      -9.454 -12.171  17.196  0.00  0.00    +0.119 C 
ATOM     19  C   UNL     1      -5.539  -9.957  17.031  0.00  0.00    +0.046 C 
ATOM     20  C   UNL     1      -8.741 -13.508  17.197  0.00  0.00    +0.032 C 
ATOM     21  C   UNL     1      -7.119 -10.283  19.700  0.00  0.00    +0.012 C 
ATOM     24  C   UNL     1      -4.411 -13.632  17.778  0.00  0.00    +0.017 C 
ENDROOT
BRANCH  18   5
ATOM      5  O   UNL     1     -10.860 -12.407  17.228  0.00  0.00    -0.391 OA
ATOM     38  H   UNL     1     -11.271 -11.834  16.560  0.00  0.00    +0.210 HD
ENDBRANCH  18   5
BRANCH  17   4
ATOM      4  O   UNL     1      -3.382 -10.957  16.865  0.00  0.00    -0.446 OA
BRANCH   4  26
ATOM      8  O   UNL     1      -1.595 -10.935  15.438  0.00  0.00    -0.226 OA
ATOM     10  N   UNL     1      -3.782 -11.312  14.691  0.00  0.00    -0.251 N 
ATOM     26  C   UNL     1      -2.800 -11.058  15.628  0.00  0.00    +0.405 C 
ATOM     40  H   UNL     1      -4.733 -11.381  15.044  0.00  0.00    +0.158 HD
BRANCH  10  31
ATOM     31  C   UNL     1      -3.630 -11.489  13.297  0.00  0.00    +0.037 A 
ATOM     32  C   UNL     1      -3.611 -10.381  12.451  0.00  0.00    +0.035 A 
ATOM     33  C   UNL     1      -3.500 -12.773  12.768  0.00  0.00    +0.023 A 
ATOM     34  C   UNL     1      -3.462 -10.556  11.075  0.00  0.00    +0.057 A 
ATOM     35  C   UNL     1      -3.350 -12.949  11.391  0.00  0.00    +0.002 A 
ATOM     36  C   UNL     1      -3.332 -11.840  10.545  0.00  0.00    +0.012 A 
BRANCH  34  37
ATOM      1  F   UNL     1      -2.207  -8.797  10.050  0.00  0.00    -0.166 F 
ATOM      2  F   UNL     1      -3.829  -9.652   8.890  0.00  0.00    -0.166 F 
ATOM      3  F   UNL     1      -4.270  -8.372  10.592  0.00  0.00    -0.166 F 
ATOM     37  C   UNL     1      -3.441  -9.371  10.170  0.00  0.00    +0.417 C 
ENDBRANCH  34  37
ENDBRANCH  10  31
ENDBRANCH   4  26
ENDBRANCH  17   4
BRANCH  13  22
ATOM     22  C   UNL     1      -4.381 -11.803  19.411  0.00  0.00    +0.166 C 
BRANCH  22   6
ATOM      6  O   UNL     1      -3.024 -12.172  19.328  0.00  0.00    -0.394 OA
ATOM     39  H   UNL     1      -2.683 -11.833  18.483  0.00  0.00    +0.209 HD
ENDBRANCH  22   6
ENDBRANCH  13  22
BRANCH  14  23
ATOM     23  C   UNL     1      -9.536 -11.892  19.717  0.00  0.00    +0.102 C 
BRANCH  23  25
ATOM      7  O   UNL     1     -10.845  -9.922  19.997  0.00  0.00    -0.276 OA
ATOM      9  N   UNL     1     -11.792 -11.921  20.660  0.00  0.00    -0.301 N 
ATOM     25  C   UNL     1     -10.778 -11.145  20.131  0.00  0.00    +0.216 C 
ATOM     27  C   UNL     1     -13.052 -11.350  21.114  0.00  0.00    +0.108 C 
ATOM     28  C   UNL     1     -11.778 -13.369  20.843  0.00  0.00    +0.108 C 
ATOM     29  C   UNL     1     -13.968 -12.549  21.302  0.00  0.00    +0.020 C 
ATOM     30  C   UNL     1     -13.001 -13.655  21.705  0.00  0.00    +0.020 C 
ENDBRANCH  23  25
ENDBRANCH  14  23
TORSDOF 9
ENDMDL
MODEL 3
REMARK VINA RESULT:      -6.6      4.953     10.824
REMARK  Name = 23843914
REMARK  11 active torsions:
REMARK  status: ('A' for Active; 'I' for Inactive)
REMARK    1  A    between atoms: O_4  and  C_17
REMARK    2  A    between atoms: O_4  and  C_26
REMARK    3  A    between atoms: O_5  and  C_18
REMARK    4  A    between atoms: O_6  and  C_22
REMARK    5  A    between atoms: N_10  and  C_31
REMARK    6  A    between atoms: C_11  and  C_21
REMARK    7  A    between atoms: C_13  and  C_22
REMARK    8  A    between atoms: C_13  and  C_24
REMARK    9  A    between atoms: C_14  and  C_23
REMARK   10  A    between atoms: C_23  and  C_25
REMARK   11  A    between atoms: C_34  and  C_37
REMARK                            x       y       z     vdW  Elec       q    Type
REMARK                         _______ _______ _______ _____ _____    ______ ____
ROOT
ATOM     11  C   UNL     1      -4.879 -11.700  10.084  0.00  0.00    -0.023 C 
ATOM     12  C   UNL     1      -3.507 -11.115  10.613  0.00  0.00    +0.007 C 
ATOM     13  C   UNL     1      -3.069 -11.654  12.045  0.00  0.00    +0.031 C 
ATOM     14  C   UNL     1      -5.335 -10.976   8.751  0.00  0.00    +0.032 C 
ATOM     15  C   UNL     1      -5.965 -11.508  11.182  0.00  0.00    +0.011 C 
ATOM     16  C   UNL     1      -3.520  -9.555  10.602  0.00  0.00    +0.007 C 
ATOM     17  C   UNL     1      -4.242 -11.500  13.056  0.00  0.00    +0.186 C 
ATOM     18  C   UNL     1      -5.352  -9.444   8.894  0.00  0.00    +0.119 C 
ATOM     19  C   UNL     1      -5.570 -12.060  12.550  0.00  0.00    +0.046 C 
ATOM     20  C   UNL     1      -3.989  -8.922   9.303  0.00  0.00    +0.032 C 
ATOM     21  C   UNL     1      -4.796 -13.215   9.758  0.00  0.00    +0.012 C 
ATOM     24  C   UNL     1      -1.843 -10.858  12.580  0.00  0.00    +0.017 C 
ENDROOT
BRANCH  18   5
ATOM      5  O   UNL     1      -5.732  -8.812   7.674  0.00  0.00    -0.391 OA
ATOM     38  H   UNL     1      -6.158  -9.483   7.114  0.00  0.00    +0.210 HD
ENDBRANCH  18   5
BRANCH  17   4
ATOM      4  O   UNL     1      -3.952 -12.146  14.296  0.00  0.00    -0.446 OA
BRANCH   4  26
ATOM      8  O   UNL     1      -3.727 -10.363  15.712  0.00  0.00    -0.226 OA
ATOM     10  N   UNL     1      -5.191 -12.134  16.161  0.00  0.00    -0.251 N 
ATOM     26  C   UNL     1      -4.247 -11.437  15.433  0.00  0.00    +0.405 C 
ATOM     40  H   UNL     1      -5.505 -13.015  15.763  0.00  0.00    +0.158 HD
BRANCH  10  31
ATOM     31  C   UNL     1      -5.780 -11.772  17.394  0.00  0.00    +0.037 A 
ATOM     32  C   UNL     1      -7.130 -11.428  17.449  0.00  0.00    +0.035 A 
ATOM     33  C   UNL     1      -5.009 -11.760  18.557  0.00  0.00    +0.023 A 
ATOM     34  C   UNL     1      -7.710 -11.071  18.667  0.00  0.00    +0.057 A 
ATOM     35  C   UNL     1      -5.589 -11.403  19.775  0.00  0.00    +0.002 A 
ATOM     36  C   UNL     1      -6.939 -11.058  19.829  0.00  0.00    +0.012 A 
BRANCH  34  37
ATOM      1  F   UNL     1      -9.974 -11.607  18.111  0.00  0.00    -0.166 F 
ATOM      2  F   UNL     1      -9.639 -10.590  19.997  0.00  0.00    -0.166 F 
ATOM      3  F   UNL     1      -9.417  -9.505  18.126  0.00  0.00    -0.166 F 
ATOM     37  C   UNL     1      -9.154 -10.703  18.726  0.00  0.00    +0.417 C 
ENDBRANCH  34  37
ENDBRANCH  10  31
ENDBRANCH   4  26
ENDBRANCH  17   4
BRANCH  13  22
ATOM     22  C   UNL     1      -2.576 -13.121  11.984  0.00  0.00    +0.166 C 
BRANCH  22   6
ATOM      6  O   UNL     1      -1.529 -13.259  12.915  0.00  0.00    -0.394 OA
ATOM     39  H   UNL     1      -1.599 -12.519  13.542  0.00  0.00    +0.209 HD
ENDBRANCH  22   6
ENDBRANCH  13  22
BRANCH  14  23
ATOM     23  C   UNL     1      -4.506 -11.397   7.514  0.00  0.00    +0.102 C 
BRANCH  23  25
ATOM      7  O   UNL     1      -6.656 -11.615   6.514  0.00  0.00    -0.276 OA
ATOM      9  N   UNL     1      -4.830 -12.192   5.224  0.00  0.00    -0.301 N 
ATOM     25  C   UNL     1      -5.438 -11.738   6.380  0.00  0.00    +0.216 C 
ATOM     27  C   UNL     1      -5.590 -12.570   4.042  0.00  0.00    +0.108 C 
ATOM     28  C   UNL     1      -3.397 -12.358   4.999  0.00  0.00    +0.108 C 
ATOM     29  C   UNL     1      -4.550 -12.684   2.939  0.00  0.00    +0.020 C 
ATOM     30  C   UNL     1      -3.305 -13.135   3.692  0.00  0.00    +0.020 C 
ENDBRANCH  23  25
ENDBRANCH  14  23
TORSDOF 9
ENDMDL
MODEL 4
REMARK VINA RESULT:      -6.4      6.219     10.738
REMARK  Name = 23843914
REMARK  11 active torsions:
REMARK  status: ('A' for Active; 'I' for Inactive)
REMARK    1  A    between atoms: O_4  and  C_17
REMARK    2  A    between atoms: O_4  and  C_26
REMARK    3  A    between atoms: O_5  and  C_18
REMARK    4  A    between atoms: O_6  and  C_22
REMARK    5  A    between atoms: N_10  and  C_31
REMARK    6  A    between atoms: C_11  and  C_21
REMARK    7  A    between atoms: C_13  and  C_22
REMARK    8  A    between atoms: C_13  and  C_24
REMARK    9  A    between atoms: C_14  and  C_23
REMARK   10  A    between atoms: C_23  and  C_25
REMARK   11  A    between atoms: C_34  and  C_37
REMARK                            x       y       z     vdW  Elec       q    Type
REMARK                         _______ _______ _______ _____ _____    ______ ____
ROOT
ATOM     11  C   UNL     1      -4.411 -11.615  15.006  0.00  0.00    -0.023 C 
ATOM     12  C   UNL     1      -3.641 -11.810  16.374  0.00  0.00    +0.007 C 
ATOM     13  C   UNL     1      -4.578 -11.833  17.661  0.00  0.00    +0.031 C 
ATOM     14  C   UNL     1      -3.401 -11.412  13.802  0.00  0.00    +0.032 C 
ATOM     15  C   UNL     1      -5.339 -10.371  15.124  0.00  0.00    +0.011 C 
ATOM     16  C   UNL     1      -2.516 -10.743  16.543  0.00  0.00    +0.007 C 
ATOM     17  C   UNL     1      -5.527 -10.601  17.653  0.00  0.00    +0.186 C 
ATOM     18  C   UNL     1      -2.377 -10.297  14.080  0.00  0.00    +0.119 C 
ATOM     19  C   UNL     1      -6.272 -10.405  16.333  0.00  0.00    +0.046 C 
ATOM     20  C   UNL     1      -1.593 -10.582  15.346  0.00  0.00    +0.032 C 
ATOM     21  C   UNL     1      -5.297 -12.835  14.639  0.00  0.00    +0.012 C 
ATOM     24  C   UNL     1      -3.726 -11.797  18.962  0.00  0.00    +0.017 C 
ENDROOT
BRANCH  18   5
ATOM      5  O   UNL     1      -1.457 -10.156  13.000  0.00  0.00    -0.391 OA
ATOM     38  H   UNL     1      -1.967 -10.175  12.173  0.00  0.00    +0.210 HD
ENDBRANCH  18   5
BRANCH  17   4
ATOM      4  O   UNL     1      -6.509 -10.690  18.686  0.00  0.00    -0.446 OA
BRANCH   4  26
ATOM      8  O   UNL     1      -8.412 -11.775  18.026  0.00  0.00    -0.226 OA
ATOM     10  N   UNL     1      -8.306  -9.443  18.206  0.00  0.00    -0.251 N 
ATOM     26  C   UNL     1      -7.817 -10.733  18.277  0.00  0.00    +0.405 C 
ATOM     40  H   UNL     1      -7.656  -8.703  18.455  0.00  0.00    +0.158 HD
BRANCH  10  31
ATOM     31  C   UNL     1      -9.602  -9.023  17.829  0.00  0.00    +0.037 A 
ATOM     32  C   UNL     1      -9.760  -8.017  16.877  0.00  0.00    +0.035 A 
ATOM     33  C   UNL     1     -10.723  -9.615  18.412  0.00  0.00    +0.023 A 
ATOM     34  C   UNL     1     -11.039  -7.602  16.506  0.00  0.00    +0.057 A 
ATOM     35  C   UNL     1     -12.003  -9.200  18.041  0.00  0.00    +0.002 A 
ATOM     36  C   UNL     1     -12.160  -8.193  17.088  0.00  0.00    +0.012 A 
BRANCH  34  37
ATOM      1  F   UNL     1     -10.074  -5.797  15.269  0.00  0.00    -0.166 F 
ATOM      2  F   UNL     1     -11.575  -6.991  14.256  0.00  0.00    -0.166 F 
ATOM      3  F   UNL     1     -12.166  -5.617  15.836  0.00  0.00    -0.166 F 
ATOM     37  C   UNL     1     -11.208  -6.526  15.487  0.00  0.00    +0.417 C 
ENDBRANCH  34  37
ENDBRANCH  10  31
ENDBRANCH   4  26
ENDBRANCH  17   4
BRANCH  13  22
ATOM     22  C   UNL     1      -5.380 -13.154  17.766  0.00  0.00    +0.166 C 
BRANCH  22   6
ATOM      6  O   UNL     1      -4.454 -14.208  17.886  0.00  0.00    -0.394 OA
ATOM     39  H   UNL     1      -4.714 -14.897  17.252  0.00  0.00    +0.209 HD
ENDBRANCH  22   6
ENDBRANCH  13  22
BRANCH  14  23
ATOM     23  C   UNL     1      -2.681 -12.717  13.384  0.00  0.00    +0.102 C 
BRANCH  23  25
ATOM      7  O   UNL     1      -2.958 -12.143  11.089  0.00  0.00    -0.276 OA
ATOM      9  N   UNL     1      -3.357 -14.339  11.683  0.00  0.00    -0.301 N 
ATOM     25  C   UNL     1      -3.006 -13.028  11.946  0.00  0.00    +0.216 C 
ATOM     27  C   UNL     1      -3.706 -14.798  10.346  0.00  0.00    +0.108 C 
ATOM     28  C   UNL     1      -3.431 -15.433  12.647  0.00  0.00    +0.108 C 
ATOM     29  C   UNL     1      -3.697 -16.315  10.449  0.00  0.00    +0.020 C 
ATOM     30  C   UNL     1      -4.123 -16.559  11.891  0.00  0.00    +0.020 C 
ENDBRANCH  23  25
ENDBRANCH  14  23
TORSDOF 9
ENDMDL
MODEL 5
REMARK VINA RESULT:      -6.3      4.995      8.068
REMARK  Name = 23843914
REMARK  11 active torsions:
REMARK  status: ('A' for Active; 'I' for Inactive)
REMARK    1  A    between atoms: O_4  and  C_17
REMARK    2  A    between atoms: O_4  and  C_26
REMARK    3  A    between atoms: O_5  and  C_18
REMARK    4  A    between atoms: O_6  and  C_22
REMARK    5  A    between atoms: N_10  and  C_31
REMARK    6  A    between atoms: C_11  and  C_21
REMARK    7  A    between atoms: C_13  and  C_22
REMARK    8  A    between atoms: C_13  and  C_24
REMARK    9  A    between atoms: C_14  and  C_23
REMARK   10  A    between atoms: C_23  and  C_25
REMARK   11  A    between atoms: C_34  and  C_37
REMARK                            x       y       z     vdW  Elec       q    Type
REMARK                         _______ _______ _______ _____ _____    ______ ____
ROOT
ATOM     11  C   UNL     1      -7.592 -11.018  17.909  0.00  0.00    -0.023 C 
ATOM     12  C   UNL     1      -7.498 -12.102  16.760  0.00  0.00    +0.007 C 
ATOM     13  C   UNL     1      -6.021 -12.605  16.447  0.00  0.00    +0.031 C 
ATOM     14  C   UNL     1      -9.060 -10.434  18.028  0.00  0.00    +0.032 C 
ATOM     15  C   UNL     1      -6.595  -9.866  17.596  0.00  0.00    +0.011 C 
ATOM     16  C   UNL     1      -8.186 -11.598  15.454  0.00  0.00    +0.007 C 
ATOM     17  C   UNL     1      -5.076 -11.387  16.231  0.00  0.00    +0.186 C 
ATOM     18  C   UNL     1      -9.598  -9.926  16.678  0.00  0.00    +0.119 C 
ATOM     19  C   UNL     1      -5.165 -10.335  17.337  0.00  0.00    +0.046 C 
ATOM     20  C   UNL     1      -9.584 -11.029  15.638  0.00  0.00    +0.032 C 
ATOM     21  C   UNL     1      -7.232 -11.594  19.304  0.00  0.00    +0.012 C 
ATOM     24  C   UNL     1      -6.000 -13.484  15.163  0.00  0.00    +0.017 C 
ENDROOT
BRANCH  18   5
ATOM      5  O   UNL     1     -10.932  -9.437  16.801  0.00  0.00    -0.391 OA
ATOM     38  H   UNL     1     -11.102  -9.277  17.745  0.00  0.00    +0.210 HD
ENDBRANCH  18   5
BRANCH  17   4
ATOM      4  O   UNL     1      -3.710 -11.795  16.140  0.00  0.00    -0.446 OA
BRANCH   4  26
ATOM      8  O   UNL     1      -1.834 -10.645  15.516  0.00  0.00    -0.226 OA
ATOM     10  N   UNL     1      -3.596 -11.054  14.029  0.00  0.00    -0.251 N 
ATOM     26  C   UNL     1      -2.933 -11.111  15.240  0.00  0.00    +0.405 C 
ATOM     40  H   UNL     1      -4.508 -11.504  13.995  0.00  0.00    +0.158 HD
BRANCH  10  31
ATOM     31  C   UNL     1      -3.164 -10.447  12.828  0.00  0.00    +0.037 A 
ATOM     32  C   UNL     1      -4.100 -10.029  11.882  0.00  0.00    +0.035 A 
ATOM     33  C   UNL     1      -1.802 -10.267  12.589  0.00  0.00    +0.023 A 
ATOM     34  C   UNL     1      -3.673  -9.431  10.696  0.00  0.00    +0.057 A 
ATOM     35  C   UNL     1      -1.375  -9.668  11.403  0.00  0.00    +0.002 A 
ATOM     36  C   UNL     1      -2.311  -9.251  10.457  0.00  0.00    +0.012 A 
BRANCH  34  37
ATOM      1  F   UNL     1      -4.155  -8.843   8.428  0.00  0.00    -0.166 F 
ATOM      2  F   UNL     1      -5.728  -9.840   9.541  0.00  0.00    -0.166 F 
ATOM      3  F   UNL     1      -5.224  -7.772   9.990  0.00  0.00    -0.166 F 
ATOM     37  C   UNL     1      -4.673  -8.984   9.685  0.00  0.00    +0.417 C 
ENDBRANCH  34  37
ENDBRANCH  10  31
ENDBRANCH   4  26
ENDBRANCH  17   4
BRANCH  13  22
ATOM     22  C   UNL     1      -5.482 -13.538  17.559  0.00  0.00    +0.166 C 
BRANCH  22   6
ATOM      6  O   UNL     1      -6.172 -14.762  17.461  0.00  0.00    -0.394 OA
ATOM     39  H   UNL     1      -6.470 -15.000  18.355  0.00  0.00    +0.209 HD
ENDBRANCH  22   6
ENDBRANCH  13  22
BRANCH  14  23
ATOM     23  C   UNL     1     -10.060 -11.424  18.672  0.00  0.00    +0.102 C 
BRANCH  23  25
ATOM      7  O   UNL     1     -10.093 -10.224  20.730  0.00  0.00    -0.276 OA
ATOM      9  N   UNL     1     -12.133 -10.785  19.803  0.00  0.00    -0.301 N 
ATOM     25  C   UNL     1     -10.751 -10.752  19.832  0.00  0.00    +0.216 C 
ATOM     27  C   UNL     1     -12.947 -10.188  20.852  0.00  0.00    +0.108 C 
ATOM     28  C   UNL     1     -12.970 -11.388  18.771  0.00  0.00    +0.108 C 
ATOM     29  C   UNL     1     -14.354 -10.161  20.274  0.00  0.00    +0.020 C 
ATOM     30  C   UNL     1     -14.371 -11.386  19.369  0.00  0.00    +0.020 C 
ENDBRANCH  23  25
ENDBRANCH  14  23
TORSDOF 9
ENDMDL
MODEL 6
REMARK VINA RESULT:      -6.3     24.618     27.804
REMARK  Name = 23843914
REMARK  11 active torsions:
REMARK  status: ('A' for Active; 'I' for Inactive)
REMARK    1  A    between atoms: O_4  and  C_17
REMARK    2  A    between atoms: O_4  and  C_26
REMARK    3  A    between atoms: O_5  and  C_18
REMARK    4  A    between atoms: O_6  and  C_22
REMARK    5  A    between atoms: N_10  and  C_31
REMARK    6  A    between atoms: C_11  and  C_21
REMARK    7  A    between atoms: C_13  and  C_22
REMARK    8  A    between atoms: C_13  and  C_24
REMARK    9  A    between atoms: C_14  and  C_23
REMARK   10  A    between atoms: C_23  and  C_25
REMARK   11  A    between atoms: C_34  and  C_37
REMARK                            x       y       z     vdW  Elec       q    Type
REMARK                         _______ _______ _______ _____ _____    ______ ____
ROOT
ATOM     11  C   UNL     1      14.006   5.848  -0.795  0.00  0.00    -0.023 C 
ATOM     12  C   UNL     1      13.752   4.442  -0.117  0.00  0.00    +0.007 C 
ATOM     13  C   UNL     1      12.450   4.374   0.795  0.00  0.00    +0.031 C 
ATOM     14  C   UNL     1      15.412   5.888  -1.525  0.00  0.00    +0.032 C 
ATOM     15  C   UNL     1      13.955   6.952   0.301  0.00  0.00    +0.011 C 
ATOM     16  C   UNL     1      15.003   3.973   0.690  0.00  0.00    +0.007 C 
ATOM     17  C   UNL     1      12.441   5.560   1.802  0.00  0.00    +0.186 C 
ATOM     18  C   UNL     1      16.563   5.451  -0.601  0.00  0.00    +0.119 C 
ATOM     19  C   UNL     1      12.689   6.922   1.153  0.00  0.00    +0.046 C 
ATOM     20  C   UNL     1      16.323   4.056  -0.058  0.00  0.00    +0.032 C 
ATOM     21  C   UNL     1      12.941   6.195  -1.869  0.00  0.00    +0.012 C 
ATOM     24  C   UNL     1      12.408   3.041   1.596  0.00  0.00    +0.017 C 
ENDROOT
BRANCH  18   5
ATOM      5  O   UNL     1      17.813   5.461  -1.288  0.00  0.00    -0.391 OA
ATOM     38  H   UNL     1      18.200   4.573  -1.211  0.00  0.00    +0.210 HD
ENDBRANCH  18   5
BRANCH  17   4
ATOM      4  O   UNL     1      11.199   5.642   2.503  0.00  0.00    -0.446 OA
BRANCH   4  26
ATOM      8  O   UNL     1      12.281   6.576   4.288  0.00  0.00    -0.226 OA
ATOM     10  N   UNL     1       9.997   6.063   4.345  0.00  0.00    -0.251 N 
ATOM     26  C   UNL     1      11.255   6.142   3.778  0.00  0.00    +0.405 C 
ATOM     40  H   UNL     1       9.265   5.669   3.760  0.00  0.00    +0.158 HD
BRANCH  10  31
ATOM     31  C   UNL     1       9.600   6.464   5.641  0.00  0.00    +0.037 A 
ATOM     32  C   UNL     1       9.730   5.583   6.714  0.00  0.00    +0.035 A 
ATOM     33  C   UNL     1       9.076   7.741   5.845  0.00  0.00    +0.023 A 
ATOM     34  C   UNL     1       9.336   5.980   7.993  0.00  0.00    +0.057 A 
ATOM     35  C   UNL     1       8.683   8.138   7.124  0.00  0.00    +0.002 A 
ATOM     36  C   UNL     1       8.813   7.256   8.197  0.00  0.00    +0.012 A 
BRANCH  34  37
ATOM      1  F   UNL     1       8.423   5.076  10.010  0.00  0.00    -0.166 F 
ATOM      2  F   UNL     1       9.582   3.729   8.766  0.00  0.00    -0.166 F 
ATOM      3  F   UNL     1      10.584   5.293   9.898  0.00  0.00    -0.166 F 
ATOM     37  C   UNL     1       9.476   5.038   9.141  0.00  0.00    +0.417 C 
ENDBRANCH  34  37
ENDBRANCH  10  31
ENDBRANCH   4  26
ENDBRANCH  17   4
BRANCH  13  22
ATOM     22  C   UNL     1      11.153   4.353  -0.052  0.00  0.00    +0.166 C 
BRANCH  22   6
ATOM      6  O   UNL     1      10.113   3.879   0.771  0.00  0.00    -0.394 OA
ATOM     39  H   UNL     1       9.453   3.463   0.192  0.00  0.00    +0.209 HD
ENDBRANCH  22   6
ENDBRANCH  13  22
BRANCH  14  23
ATOM     23  C   UNL     1      15.437   5.079  -2.844  0.00  0.00    +0.102 C 
BRANCH  23  25
ATOM      7  O   UNL     1      15.198   7.008  -4.221  0.00  0.00    -0.276 OA
ATOM      9  N   UNL     1      16.949   5.581  -4.700  0.00  0.00    -0.301 N 
ATOM     25  C   UNL     1      15.841   5.985  -3.979  0.00  0.00    +0.216 C 
ATOM     27  C   UNL     1      17.462   6.342  -5.830  0.00  0.00    +0.108 C 
ATOM     28  C   UNL     1      17.756   4.386  -4.465  0.00  0.00    +0.108 C 
ATOM     29  C   UNL     1      18.831   5.739  -6.106  0.00  0.00    +0.020 C 
ATOM     30  C   UNL     1      18.650   4.284  -5.693  0.00  0.00    +0.020 C 
ENDBRANCH  23  25
ENDBRANCH  14  23
TORSDOF 9
ENDMDL
MODEL 7
REMARK VINA RESULT:      -6.2     23.764     27.175
REMARK  Name = 23843914
REMARK  11 active torsions:
REMARK  status: ('A' for Active; 'I' for Inactive)
REMARK    1  A    between atoms: O_4  and  C_17
REMARK    2  A    between atoms: O_4  and  C_26
REMARK    3  A    between atoms: O_5  and  C_18
REMARK    4  A    between atoms: O_6  and  C_22
REMARK    5  A    between atoms: N_10  and  C_31
REMARK    6  A    between atoms: C_11  and  C_21
REMARK    7  A    between atoms: C_13  and  C_22
REMARK    8  A    between atoms: C_13  and  C_24
REMARK    9  A    between atoms: C_14  and  C_23
REMARK   10  A    between atoms: C_23  and  C_25
REMARK   11  A    between atoms: C_34  and  C_37
REMARK                            x       y       z     vdW  Elec       q    Type
REMARK                         _______ _______ _______ _____ _____    ______ ____
ROOT
ATOM     11  C   UNL     1      12.567   3.940  -2.414  0.00  0.00    -0.023 C 
ATOM     12  C   UNL     1      11.671   5.167  -1.971  0.00  0.00    +0.007 C 
ATOM     13  C   UNL     1      11.947   5.685  -0.492  0.00  0.00    +0.031 C 
ATOM     14  C   UNL     1      12.103   3.367  -3.816  0.00  0.00    +0.032 C 
ATOM     15  C   UNL     1      12.463   2.825  -1.333  0.00  0.00    +0.011 C 
ATOM     16  C   UNL     1      10.155   4.853  -2.160  0.00  0.00    +0.007 C 
ATOM     17  C   UNL     1      11.907   4.494   0.508  0.00  0.00    +0.186 C 
ATOM     18  C   UNL     1      10.596   3.053  -3.849  0.00  0.00    +0.119 C 
ATOM     19  C   UNL     1      12.769   3.304   0.085  0.00  0.00    +0.046 C 
ATOM     20  C   UNL     1       9.777   4.285  -3.519  0.00  0.00    +0.032 C 
ATOM     21  C   UNL     1      14.065   4.317  -2.565  0.00  0.00    +0.012 C 
ATOM     24  C   UNL     1      10.874   6.728  -0.066  0.00  0.00    +0.017 C 
ENDROOT
BRANCH  18   5
ATOM      5  O   UNL     1      10.194   2.571  -5.130  0.00  0.00    -0.391 OA
ATOM     38  H   UNL     1      10.920   2.745  -5.752  0.00  0.00    +0.210 HD
ENDBRANCH  18   5
BRANCH  17   4
ATOM      4  O   UNL     1      12.339   4.890   1.811  0.00  0.00    -0.446 OA
BRANCH   4  26
ATOM      8  O   UNL     1      11.065   3.577   3.184  0.00  0.00    -0.226 OA
ATOM     10  N   UNL     1      11.083   5.912   3.358  0.00  0.00    -0.251 N 
ATOM     26  C   UNL     1      11.447   4.687   2.832  0.00  0.00    +0.405 C 
ATOM     40  H   UNL     1      11.510   6.729   2.929  0.00  0.00    +0.158 HD
BRANCH  10  31
ATOM     31  C   UNL     1      10.189   6.172   4.420  0.00  0.00    +0.037 A 
ATOM     32  C   UNL     1      10.454   5.671   5.694  0.00  0.00    +0.035 A 
ATOM     33  C   UNL     1       9.040   6.931   4.194  0.00  0.00    +0.023 A 
ATOM     34  C   UNL     1       9.570   5.928   6.743  0.00  0.00    +0.057 A 
ATOM     35  C   UNL     1       8.156   7.188   5.243  0.00  0.00    +0.002 A 
ATOM     36  C   UNL     1       8.421   6.686   6.517  0.00  0.00    +0.012 A 
BRANCH  34  37
ATOM      1  F   UNL     1      11.059   5.793   8.610  0.00  0.00    -0.166 F 
ATOM      2  F   UNL     1       8.934   5.765   9.043  0.00  0.00    -0.166 F 
ATOM      3  F   UNL     1       9.879   4.027   8.140  0.00  0.00    -0.166 F 
ATOM     37  C   UNL     1       9.854   5.392   8.106  0.00  0.00    +0.417 C 
ENDBRANCH  34  37
ENDBRANCH  10  31
ENDBRANCH   4  26
ENDBRANCH  17   4
BRANCH  13  22
ATOM     22  C   UNL     1      13.289   6.453  -0.391  0.00  0.00    +0.166 C 
BRANCH  22   6
ATOM      6  O   UNL     1      13.230   7.535  -1.290  0.00  0.00    -0.394 OA
ATOM     39  H   UNL     1      12.948   8.317  -0.786  0.00  0.00    +0.209 HD
ENDBRANCH  22   6
ENDBRANCH  13  22
BRANCH  14  23
ATOM     23  C   UNL     1      12.494   4.275  -5.006  0.00  0.00    +0.102 C 
BRANCH  23  25
ATOM      7  O   UNL     1      12.961   2.383  -6.376  0.00  0.00    -0.276 OA
ATOM      9  N   UNL     1      14.517   4.090  -6.367  0.00  0.00    -0.301 N 
ATOM     25  C   UNL     1      13.334   3.489  -5.980  0.00  0.00    +0.216 C 
ATOM     27  C   UNL     1      15.443   3.458  -7.296  0.00  0.00    +0.108 C 
ATOM     28  C   UNL     1      15.015   5.394  -5.939  0.00  0.00    +0.108 C 
ATOM     29  C   UNL     1      16.408   4.567  -7.687  0.00  0.00    +0.020 C 
ATOM     30  C   UNL     1      16.455   5.432  -6.435  0.00  0.00    +0.020 C 
ENDBRANCH  23  25
ENDBRANCH  14  23
TORSDOF 9
ENDMDL
MODEL 8
REMARK VINA RESULT:      -6.1      2.229      2.645
REMARK  Name = 23843914
REMARK  11 active torsions:
REMARK  status: ('A' for Active; 'I' for Inactive)
REMARK    1  A    between atoms: O_4  and  C_17
REMARK    2  A    between atoms: O_4  and  C_26
REMARK    3  A    between atoms: O_5  and  C_18
REMARK    4  A    between atoms: O_6  and  C_22
REMARK    5  A    between atoms: N_10  and  C_31
REMARK    6  A    between atoms: C_11  and  C_21
REMARK    7  A    between atoms: C_13  and  C_22
REMARK    8  A    between atoms: C_13  and  C_24
REMARK    9  A    between atoms: C_14  and  C_23
REMARK   10  A    between atoms: C_23  and  C_25
REMARK   11  A    between atoms: C_34  and  C_37
REMARK                            x       y       z     vdW  Elec       q    Type
REMARK                         _______ _______ _______ _____ _____    ______ ____
ROOT
ATOM     11  C   UNL     1      -4.582 -11.505  12.652  0.00  0.00    -0.023 C 
ATOM     12  C   UNL     1      -3.951 -10.290  11.860  0.00  0.00    +0.007 C 
ATOM     13  C   UNL     1      -4.495 -10.117  10.374  0.00  0.00    +0.031 C 
ATOM     14  C   UNL     1      -3.854 -11.723  14.043  0.00  0.00    +0.032 C 
ATOM     15  C   UNL     1      -4.452 -12.792  11.788  0.00  0.00    +0.011 C 
ATOM     16  C   UNL     1      -2.392 -10.368  11.859  0.00  0.00    +0.007 C 
ATOM     17  C   UNL     1      -4.406 -11.471   9.612  0.00  0.00    +0.186 C 
ATOM     18  C   UNL     1      -2.326 -11.834  13.892  0.00  0.00    +0.119 C 
ATOM     19  C   UNL     1      -5.011 -12.649  10.374  0.00  0.00    +0.046 C 
ATOM     20  C   UNL     1      -1.756 -10.600  13.220  0.00  0.00    +0.032 C 
ATOM     21  C   UNL     1      -6.086 -11.295  12.969  0.00  0.00    +0.012 C 
ATOM     24  C   UNL     1      -3.660  -9.055   9.603  0.00  0.00    +0.017 C 
ENDROOT
BRANCH  18   5
ATOM      5  O   UNL     1      -1.690 -11.994  15.158  0.00  0.00    -0.391 OA
ATOM     38  H   UNL     1      -2.079 -12.775  15.587  0.00  0.00    +0.210 HD
ENDBRANCH  18   5
BRANCH  17   4
ATOM      4  O   UNL     1      -5.061 -11.401   8.344  0.00  0.00    -0.446 OA
BRANCH   4  26
ATOM      8  O   UNL     1      -3.837 -13.157   7.537  0.00  0.00    -0.226 OA
ATOM     10  N   UNL     1      -4.860 -11.597   6.123  0.00  0.00    -0.251 N 
ATOM     26  C   UNL     1      -4.515 -12.156   7.338  0.00  0.00    +0.405 C 
ATOM     40  H   UNL     1      -5.434 -10.758   6.161  0.00  0.00    +0.158 HD
BRANCH  10  31
ATOM     31  C   UNL     1      -4.514 -12.046   4.828  0.00  0.00    +0.037 A 
ATOM     32  C   UNL     1      -5.512 -12.428   3.932  0.00  0.00    +0.035 A 
ATOM     33  C   UNL     1      -3.173 -12.108   4.448  0.00  0.00    +0.023 A 
ATOM     34  C   UNL     1      -5.169 -12.872   2.655  0.00  0.00    +0.057 A 
ATOM     35  C   UNL     1      -2.830 -12.552   3.169  0.00  0.00    +0.002 A 
ATOM     36  C   UNL     1      -3.829 -12.935   2.274  0.00  0.00    +0.012 A 
BRANCH  34  37
ATOM      1  F   UNL     1      -7.094 -14.217   2.198  0.00  0.00    -0.166 F 
ATOM      2  F   UNL     1      -7.034 -12.247   1.292  0.00  0.00    -0.166 F 
ATOM      3  F   UNL     1      -5.733 -13.823   0.548  0.00  0.00    -0.166 F 
ATOM     37  C   UNL     1      -6.236 -13.280   1.696  0.00  0.00    +0.417 C 
ENDBRANCH  34  37
ENDBRANCH  10  31
ENDBRANCH   4  26
ENDBRANCH  17   4
BRANCH  13  22
ATOM     22  C   UNL     1      -5.940  -9.559  10.351  0.00  0.00    +0.166 C 
BRANCH  22   6
ATOM      6  O   UNL     1      -5.973  -8.500   9.423  0.00  0.00    -0.394 OA
ATOM     39  H   UNL     1      -6.896  -8.200   9.359  0.00  0.00    +0.209 HD
ENDBRANCH  22   6
ENDBRANCH  13  22
BRANCH  14  23
ATOM     23  C   UNL     1      -4.220 -10.650  15.097  0.00  0.00    +0.102 C 
BRANCH  23  25
ATOM      7  O   UNL     1      -4.337 -12.352  16.760  0.00  0.00    -0.276 OA
ATOM      9  N   UNL     1      -5.955 -10.705  16.819  0.00  0.00    -0.301 N 
ATOM     25  C   UNL     1      -4.831 -11.320  16.301  0.00  0.00    +0.216 C 
ATOM     27  C   UNL     1      -6.667 -11.231  17.975  0.00  0.00    +0.108 C 
ATOM     28  C   UNL     1      -6.588  -9.484  16.327  0.00  0.00    +0.108 C 
ATOM     29  C   UNL     1      -7.601 -10.106  18.392  0.00  0.00    +0.020 C 
ATOM     30  C   UNL     1      -7.915  -9.418  17.070  0.00  0.00    +0.020 C 
ENDBRANCH  23  25
ENDBRANCH  14  23
TORSDOF 9
ENDMDL
MODEL 9
REMARK VINA RESULT:      -6.1     23.733     25.559
REMARK  Name = 23843914
REMARK  11 active torsions:
REMARK  status: ('A' for Active; 'I' for Inactive)
REMARK    1  A    between atoms: O_4  and  C_17
REMARK    2  A    between atoms: O_4  and  C_26
REMARK    3  A    between atoms: O_5  and  C_18
REMARK    4  A    between atoms: O_6  and  C_22
REMARK    5  A    between atoms: N_10  and  C_31
REMARK    6  A    between atoms: C_11  and  C_21
REMARK    7  A    between atoms: C_13  and  C_22
REMARK    8  A    between atoms: C_13  and  C_24
REMARK    9  A    between atoms: C_14  and  C_23
REMARK   10  A    between atoms: C_23  and  C_25
REMARK   11  A    between atoms: C_34  and  C_37
REMARK                            x       y       z     vdW  Elec       q    Type
REMARK                         _______ _______ _______ _____ _____    ______ ____
ROOT
ATOM     11  C   UNL     1      10.120  10.246   6.986  0.00  0.00    -0.023 C 
ATOM     12  C   UNL     1       8.943   9.285   6.545  0.00  0.00    +0.007 C 
ATOM     13  C   UNL     1       9.340   7.746   6.472  0.00  0.00    +0.031 C 
ATOM     14  C   UNL     1       9.699  11.768   6.851  0.00  0.00    +0.032 C 
ATOM     15  C   UNL     1      11.361   9.965   6.091  0.00  0.00    +0.011 C 
ATOM     16  C   UNL     1       8.316   9.748   5.193  0.00  0.00    +0.007 C 
ATOM     17  C   UNL     1      10.637   7.568   5.629  0.00  0.00    +0.186 C 
ATOM     18  C   UNL     1       9.146  12.099   5.453  0.00  0.00    +0.119 C 
ATOM     19  C   UNL     1      11.776   8.496   6.049  0.00  0.00    +0.046 C 
ATOM     20  C   UNL     1       7.955  11.222   5.119  0.00  0.00    +0.032 C 
ATOM     21  C   UNL     1      10.542  10.035   8.465  0.00  0.00    +0.012 C 
ATOM     24  C   UNL     1       8.202   6.915   5.814  0.00  0.00    +0.017 C 
ENDROOT
BRANCH  18   5
ATOM      5  O   UNL     1       8.742  13.464   5.365  0.00  0.00    -0.391 OA
ATOM     38  H   UNL     1       7.838  13.482   5.008  0.00  0.00    +0.210 HD
ENDBRANCH  18   5
BRANCH  17   4
ATOM      4  O   UNL     1      11.129   6.230   5.702  0.00  0.00    -0.446 OA
BRANCH   4  26
ATOM      8  O   UNL     1      10.323   4.323   4.728  0.00  0.00    -0.226 OA
ATOM     10  N   UNL     1      11.269   6.059   3.474  0.00  0.00    -0.251 N 
ATOM     26  C   UNL     1      10.853   5.424   4.628  0.00  0.00    +0.405 C 
ATOM     40  H   UNL     1      11.691   6.977   3.594  0.00  0.00    +0.158 HD
BRANCH  10  31
ATOM     31  C   UNL     1      11.180   5.593   2.143  0.00  0.00    +0.037 A 
ATOM     32  C   UNL     1      12.201   4.808   1.609  0.00  0.00    +0.035 A 
ATOM     33  C   UNL     1      10.071   5.920   1.363  0.00  0.00    +0.023 A 
ATOM     34  C   UNL     1      12.113   4.349   0.294  0.00  0.00    +0.057 A 
ATOM     35  C   UNL     1       9.982   5.460   0.048  0.00  0.00    +0.002 A 
ATOM     36  C   UNL     1      11.004   4.675  -0.486  0.00  0.00    +0.012 A 
BRANCH  34  37
ATOM      1  F   UNL     1      12.760   2.356  -0.860  0.00  0.00    -0.166 F 
ATOM      2  F   UNL     1      13.933   4.139  -1.245  0.00  0.00    -0.166 F 
ATOM      3  F   UNL     1      14.113   3.115   0.665  0.00  0.00    -0.166 F 
ATOM     37  C   UNL     1      13.205   3.508  -0.277  0.00  0.00    +0.417 C 
ENDBRANCH  34  37
ENDBRANCH  10  31
ENDBRANCH   4  26
ENDBRANCH  17   4
BRANCH  13  22
ATOM     22  C   UNL     1       9.503   7.124   7.881  0.00  0.00    +0.166 C 
BRANCH  22   6
ATOM      6  O   UNL     1       9.261   5.741   7.768  0.00  0.00    -0.394 OA
ATOM     39  H   UNL     1       8.951   5.574   6.862  0.00  0.00    +0.209 HD
ENDBRANCH  22   6
ENDBRANCH  13  22
BRANCH  14  23
ATOM     23  C   UNL     1       8.711  12.227   7.949  0.00  0.00    +0.102 C 
BRANCH  23  25
ATOM      7  O   UNL     1       9.844  14.314   8.135  0.00  0.00    -0.276 OA
ATOM      9  N   UNL     1       9.249  13.258  10.101  0.00  0.00    -0.301 N 
ATOM     25  C   UNL     1       9.320  13.367   8.725  0.00  0.00    +0.216 C 
ATOM     27  C   UNL     1       9.798  14.271  10.992  0.00  0.00    +0.108 C 
ATOM     28  C   UNL     1       8.643  12.168  10.860  0.00  0.00    +0.108 C 
ATOM     29  C   UNL     1       9.226  13.927  12.358  0.00  0.00    +0.020 C 
ATOM     30  C   UNL     1       9.088  12.411  12.296  0.00  0.00    +0.020 C 
ENDBRANCH  23  25
ENDBRANCH  14  23
TORSDOF 9
ENDMDL
MODEL 10
REMARK VINA RESULT:      -6.0     22.938     24.884
REMARK  Name = 23843914
REMARK  11 active torsions:
REMARK  status: ('A' for Active; 'I' for Inactive)
REMARK    1  A    between atoms: O_4  and  C_17
REMARK    2  A    between atoms: O_4  and  C_26
REMARK    3  A    between atoms: O_5  and  C_18
REMARK    4  A    between atoms: O_6  and  C_22
REMARK    5  A    between atoms: N_10  and  C_31
REMARK    6  A    between atoms: C_11  and  C_21
REMARK    7  A    between atoms: C_13  and  C_22
REMARK    8  A    between atoms: C_13  and  C_24
REMARK    9  A    between atoms: C_14  and  C_23
REMARK   10  A    between atoms: C_23  and  C_25
REMARK   11  A    between atoms: C_34  and  C_37
REMARK                            x       y       z     vdW  Elec       q    Type
REMARK                         _______ _______ _______ _____ _____    ______ ____
ROOT
ATOM     11  C   UNL     1       7.908 -10.207  32.786  0.00  0.00    -0.023 C 
ATOM     12  C   UNL     1       7.099 -10.746  31.537  0.00  0.00    +0.007 C 
ATOM     13  C   UNL     1       7.792 -11.958  30.775  0.00  0.00    +0.031 C 
ATOM     14  C   UNL     1       7.251  -8.889  33.370  0.00  0.00    +0.032 C 
ATOM     15  C   UNL     1       9.371  -9.913  32.348  0.00  0.00    +0.011 C 
ATOM     16  C   UNL     1       6.775  -9.592  30.538  0.00  0.00    +0.007 C 
ATOM     17  C   UNL     1       9.274 -11.609  30.452  0.00  0.00    +0.186 C 
ATOM     18  C   UNL     1       7.034  -7.816  32.288  0.00  0.00    +0.119 C 
ATOM     19  C   UNL     1      10.060 -11.086  31.654  0.00  0.00    +0.046 C 
ATOM     20  C   UNL     1       6.167  -8.347  31.163  0.00  0.00    +0.032 C 
ATOM     21  C   UNL     1       7.957 -11.230  33.952  0.00  0.00    +0.012 C 
ATOM     24  C   UNL     1       7.052 -12.265  29.441  0.00  0.00    +0.017 C 
ENDROOT
BRANCH  18   5
ATOM      5  O   UNL     1       6.411  -6.652  32.828  0.00  0.00    -0.391 OA
ATOM     38  H   UNL     1       5.466  -6.849  32.942  0.00  0.00    +0.210 HD
ENDBRANCH  18   5
BRANCH  17   4
ATOM      4  O   UNL     1       9.979 -12.742  29.943  0.00  0.00    -0.446 OA
BRANCH   4  26
ATOM      8  O   UNL     1       9.824 -12.220  27.721  0.00  0.00    -0.226 OA
ATOM     10  N   UNL     1      11.806 -13.019  28.677  0.00  0.00    -0.251 N 
ATOM     26  C   UNL     1      10.483 -12.621  28.673  0.00  0.00    +0.405 C 
ATOM     40  H   UNL     1      12.180 -13.323  29.572  0.00  0.00    +0.158 HD
BRANCH  10  31
ATOM     31  C   UNL     1      12.707 -13.057  27.589  0.00  0.00    +0.037 A 
ATOM     32  C   UNL     1      13.028 -11.883  26.909  0.00  0.00    +0.035 A 
ATOM     33  C   UNL     1      13.275 -14.269  27.196  0.00  0.00    +0.023 A 
ATOM     34  C   UNL     1      13.918 -11.921  25.834  0.00  0.00    +0.057 A 
ATOM     35  C   UNL     1      14.165 -14.307  26.122  0.00  0.00    +0.002 A 
ATOM     36  C   UNL     1      14.486 -13.132  25.441  0.00  0.00    +0.012 A 
BRANCH  34  37
ATOM      1  F   UNL     1      13.199 -10.099  24.460  0.00  0.00    -0.166 F 
ATOM      2  F   UNL     1      14.752  -9.680  25.916  0.00  0.00    -0.166 F 
ATOM      3  F   UNL     1      15.213 -10.857  24.146  0.00  0.00    -0.166 F 
ATOM     37  C   UNL     1      14.262 -10.665  25.107  0.00  0.00    +0.417 C 
ENDBRANCH  34  37
ENDBRANCH  10  31
ENDBRANCH   4  26
ENDBRANCH  17   4
BRANCH  13  22
ATOM     22  C   UNL     1       7.694 -13.278  31.580  0.00  0.00    +0.166 C 
BRANCH  22   6
ATOM      6  O   UNL     1       7.672 -14.341  30.656  0.00  0.00    -0.394 OA
ATOM     39  H   UNL     1       7.442 -15.147  31.148  0.00  0.00    +0.209 HD
ENDBRANCH  22   6
ENDBRANCH  13  22
BRANCH  14  23
ATOM     23  C   UNL     1       5.938  -9.153  34.144  0.00  0.00    +0.102 C 
BRANCH  23  25
ATOM      7  O   UNL     1       6.974  -7.775  35.788  0.00  0.00    -0.276 OA
ATOM      9  N   UNL     1       4.945  -8.732  36.340  0.00  0.00    -0.301 N 
ATOM     25  C   UNL     1       6.010  -8.484  35.493  0.00  0.00    +0.216 C 
ATOM     27  C   UNL     1       4.869  -8.166  37.679  0.00  0.00    +0.108 C 
ATOM     28  C   UNL     1       3.775  -9.556  36.053  0.00  0.00    +0.108 C 
ATOM     29  C   UNL     1       3.433  -8.413  38.116  0.00  0.00    +0.020 C 
ATOM     30  C   UNL     1       3.080  -9.710  37.398  0.00  0.00    +0.020 C 
ENDBRANCH  23  25
ENDBRANCH  14  23
TORSDOF 9
ENDMDL
