MODEL 1
REMARK VINA RESULT:      -6.9      0.000      0.000
REMARK  Name = 75536900
REMARK  4 active torsions:
REMARK  status: ('A' for Active; 'I' for Inactive)
REMARK    1  A    between atoms: S_1  and  N_7
REMARK    2  A    between atoms: S_1  and  C_15
REMARK    3  A    between atoms: O_4  and  C_11
REMARK    4  A    between atoms: O_4  and  C_18
REMARK                            x       y       z     vdW  Elec       q    Type
REMARK                         _______ _______ _______ _____ _____    ______ ____
ROOT
ATOM      3  O   UNL     1      12.337   8.600  22.426  0.00  0.00    -0.375 OA
ATOM      7  N   UNL     1      12.076   8.244  19.529  0.00  0.00    -0.171 NA
ATOM     10  C   UNL     1      12.962   7.141  20.016  0.00  0.00    +0.156 C 
ATOM     11  C   UNL     1      14.060   7.691  20.924  0.00  0.00    +0.216 C 
ATOM     12  C   UNL     1      10.909   8.468  20.437  0.00  0.00    +0.137 C 
ATOM     13  C   UNL     1      13.645   8.792  21.897  0.00  0.00    +0.205 C 
ATOM     14  C   UNL     1      11.331   9.265  21.662  0.00  0.00    +0.177 C 
ENDROOT
BRANCH   7   1
ATOM      1  S   UNL     1      11.718   8.226  17.853  0.00  0.00    +0.061 S 
ATOM      5  O   UNL     1      10.337   8.610  17.666  0.00  0.00    -0.153 OA
ATOM      6  O   UNL     1      12.242   7.007  17.279  0.00  0.00    -0.153 OA
BRANCH   1  15
ATOM      2  F   UNL     1      15.108  12.697  16.049  0.00  0.00    -0.205 F 
ATOM     15  C   UNL     1      12.733   9.564  17.312  0.00  0.00    +0.106 A 
ATOM     16  C   UNL     1      13.060   9.690  15.962  0.00  0.00    +0.031 A 
ATOM     17  C   UNL     1      13.206  10.497  18.235  0.00  0.00    +0.031 A 
ATOM     19  C   UNL     1      13.862  10.748  15.535  0.00  0.00    +0.040 A 
ATOM     20  C   UNL     1      14.009  11.555  17.808  0.00  0.00    +0.040 A 
ATOM     21  C   UNL     1      14.336  11.681  16.458  0.00  0.00    +0.124 A 
ENDBRANCH   1  15
ENDBRANCH   7   1
BRANCH  11   4
ATOM      4  O   UNL     1      15.137   8.195  20.133  0.00  0.00    -0.468 OA
BRANCH   4  18
ATOM      8  N   UNL     1      16.372   6.491  19.145  0.00  0.00    -0.219 NA
ATOM      9  N   UNL     1      18.418   6.932  21.012  0.00  0.00    -0.256 NA
ATOM     18  C   UNL     1      16.276   7.440  20.097  0.00  0.00    +0.234 A 
ATOM     22  C   UNL     1      17.281   7.656  21.015  0.00  0.00    +0.177 A 
ATOM     23  C   UNL     1      17.508   5.766  19.142  0.00  0.00    +0.134 A 
ATOM     24  C   UNL     1      18.514   5.983  20.058  0.00  0.00    +0.130 A 
ENDBRANCH   4  18
ENDBRANCH  11   4
TORSDOF 4
ENDMDL
MODEL 2
REMARK VINA RESULT:      -6.5      2.991      5.259
REMARK  Name = 75536900
REMARK  4 active torsions:
REMARK  status: ('A' for Active; 'I' for Inactive)
REMARK    1  A    between atoms: S_1  and  N_7
REMARK    2  A    between atoms: S_1  and  C_15
REMARK    3  A    between atoms: O_4  and  C_11
REMARK    4  A    between atoms: O_4  and  C_18
REMARK                            x       y       z     vdW  Elec       q    Type
REMARK                         _______ _______ _______ _____ _____    ______ ____
ROOT
ATOM      3  O   UNL     1      15.676   7.507  20.325  0.00  0.00    -0.375 OA
ATOM      7  N   UNL     1      12.780   7.942  20.421  0.00  0.00    -0.171 NA
ATOM     10  C   UNL     1      13.101   7.511  19.025  0.00  0.00    +0.156 C 
ATOM     11  C   UNL     1      14.277   8.309  18.468  0.00  0.00    +0.216 C 
ATOM     12  C   UNL     1      13.524   7.140  21.440  0.00  0.00    +0.137 C 
ATOM     13  C   UNL     1      15.422   8.591  19.437  0.00  0.00    +0.205 C 
ATOM     14  C   UNL     1      14.962   7.624  21.555  0.00  0.00    +0.177 C 
ENDROOT
BRANCH   7   1
ATOM      1  S   UNL     1      11.121   8.210  20.755  0.00  0.00    +0.061 S 
ATOM      5  O   UNL     1      10.655   7.184  21.661  0.00  0.00    -0.153 OA
ATOM      6  O   UNL     1      10.434   8.481  19.512  0.00  0.00    -0.153 OA
BRANCH   1  15
ATOM      2  F   UNL     1      11.495  13.259  23.771  0.00  0.00    -0.205 F 
ATOM     15  C   UNL     1      11.233   9.722  21.657  0.00  0.00    +0.106 A 
ATOM     16  C   UNL     1      11.816  10.845  21.069  0.00  0.00    +0.031 A 
ATOM     17  C   UNL     1      10.737   9.795  22.959  0.00  0.00    +0.031 A 
ATOM     19  C   UNL     1      11.904  12.039  21.783  0.00  0.00    +0.040 A 
ATOM     20  C   UNL     1      10.826  10.990  23.673  0.00  0.00    +0.040 A 
ATOM     21  C   UNL     1      11.409  12.112  23.085  0.00  0.00    +0.124 A 
ENDBRANCH   1  15
ENDBRANCH   7   1
BRANCH  11   4
ATOM      4  O   UNL     1      13.817   9.564  17.965  0.00  0.00    -0.468 OA
BRANCH   4  18
ATOM      8  N   UNL     1      15.077  11.204  16.901  0.00  0.00    -0.219 NA
ATOM      9  N   UNL     1      14.937   9.726  14.523  0.00  0.00    -0.256 NA
ATOM     18  C   UNL     1      14.422  10.028  16.830  0.00  0.00    +0.234 A 
ATOM     22  C   UNL     1      14.354   9.302  15.661  0.00  0.00    +0.177 A 
ATOM     23  C   UNL     1      15.659  11.629  15.763  0.00  0.00    +0.134 A 
ATOM     24  C   UNL     1      15.592  10.903  14.594  0.00  0.00    +0.130 A 
ENDBRANCH   4  18
ENDBRANCH  11   4
TORSDOF 4
ENDMDL
MODEL 3
REMARK VINA RESULT:      -6.0      2.896      4.326
REMARK  Name = 75536900
REMARK  4 active torsions:
REMARK  status: ('A' for Active; 'I' for Inactive)
REMARK    1  A    between atoms: S_1  and  N_7
REMARK    2  A    between atoms: S_1  and  C_15
REMARK    3  A    between atoms: O_4  and  C_11
REMARK    4  A    between atoms: O_4  and  C_18
REMARK                            x       y       z     vdW  Elec       q    Type
REMARK                         _______ _______ _______ _____ _____    ______ ____
ROOT
ATOM      3  O   UNL     1      12.205   7.234  17.488  0.00  0.00    -0.375 OA
ATOM      7  N   UNL     1      13.438   9.700  18.478  0.00  0.00    -0.171 NA
ATOM     10  C   UNL     1      14.558   8.761  18.160  0.00  0.00    +0.156 C 
ATOM     11  C   UNL     1      14.299   7.384  18.769  0.00  0.00    +0.216 C 
ATOM     12  C   UNL     1      12.374   9.679  17.428  0.00  0.00    +0.137 C 
ATOM     13  C   UNL     1      12.862   6.874  18.699  0.00  0.00    +0.205 C 
ATOM     14  C   UNL     1      11.480   8.459  17.597  0.00  0.00    +0.177 C 
ENDROOT
BRANCH   7   1
ATOM      1  S   UNL     1      13.903  11.255  19.029  0.00  0.00    +0.061 S 
ATOM      5  O   UNL     1      13.495  12.239  18.052  0.00  0.00    -0.153 OA
ATOM      6  O   UNL     1      15.267  11.190  19.505  0.00  0.00    -0.153 OA
BRANCH   1  15
ATOM      2  F   UNL     1      10.364  11.766  23.714  0.00  0.00    -0.205 F 
ATOM     15  C   UNL     1      12.843  11.409  20.432  0.00  0.00    +0.106 A 
ATOM     16  C   UNL     1      12.442  12.672  20.869  0.00  0.00    +0.031 A 
ATOM     17  C   UNL     1      12.406  10.267  21.103  0.00  0.00    +0.031 A 
ATOM     19  C   UNL     1      11.604  12.792  21.977  0.00  0.00    +0.040 A 
ATOM     20  C   UNL     1      11.569  10.388  22.212  0.00  0.00    +0.040 A 
ATOM     21  C   UNL     1      11.168  11.651  22.649  0.00  0.00    +0.124 A 
ENDBRANCH   1  15
ENDBRANCH   7   1
BRANCH  11   4
ATOM      4  O   UNL     1      14.694   7.379  20.141  0.00  0.00    -0.468 OA
BRANCH   4  18
ATOM      8  N   UNL     1      16.568   8.161  21.276  0.00  0.00    -0.219 NA
ATOM      9  N   UNL     1      18.128   6.233  19.967  0.00  0.00    -0.256 NA
ATOM     18  C   UNL     1      16.036   7.294  20.391  0.00  0.00    +0.234 A 
ATOM     22  C   UNL     1      16.803   6.347  19.748  0.00  0.00    +0.177 A 
ATOM     23  C   UNL     1      17.892   8.048  21.495  0.00  0.00    +0.134 A 
ATOM     24  C   UNL     1      18.660   7.100  20.853  0.00  0.00    +0.130 A 
ENDBRANCH   4  18
ENDBRANCH  11   4
TORSDOF 4
ENDMDL
MODEL 4
REMARK VINA RESULT:      -5.6      3.670      5.912
REMARK  Name = 75536900
REMARK  4 active torsions:
REMARK  status: ('A' for Active; 'I' for Inactive)
REMARK    1  A    between atoms: S_1  and  N_7
REMARK    2  A    between atoms: S_1  and  C_15
REMARK    3  A    between atoms: O_4  and  C_11
REMARK    4  A    between atoms: O_4  and  C_18
REMARK                            x       y       z     vdW  Elec       q    Type
REMARK                         _______ _______ _______ _____ _____    ______ ____
ROOT
ATOM      3  O   UNL     1      13.607   9.731  16.095  0.00  0.00    -0.375 OA
ATOM      7  N   UNL     1      14.449  11.168  18.505  0.00  0.00    -0.171 NA
ATOM     10  C   UNL     1      14.397   9.719  18.869  0.00  0.00    +0.156 C 
ATOM     11  C   UNL     1      13.082   9.092  18.411  0.00  0.00    +0.216 C 
ATOM     12  C   UNL     1      15.066  11.387  17.161  0.00  0.00    +0.137 C 
ATOM     13  C   UNL     1      12.565   9.531  17.044  0.00  0.00    +0.205 C 
ATOM     14  C   UNL     1      14.065  11.082  16.056  0.00  0.00    +0.177 C 
ENDROOT
BRANCH   7   1
ATOM      1  S   UNL     1      14.975  12.229  19.744  0.00  0.00    +0.061 S 
ATOM      5  O   UNL     1      14.938  13.586  19.245  0.00  0.00    -0.153 OA
ATOM      6  O   UNL     1      16.172  11.684  20.344  0.00  0.00    -0.153 OA
BRANCH   1  15
ATOM      2  F   UNL     1      10.553  11.579  23.585  0.00  0.00    -0.205 F 
ATOM     15  C   UNL     1      13.650  12.035  20.893  0.00  0.00    +0.106 A 
ATOM     16  C   UNL     1      12.405  12.605  20.626  0.00  0.00    +0.031 A 
ATOM     17  C   UNL     1      13.849  11.310  22.068  0.00  0.00    +0.031 A 
ATOM     19  C   UNL     1      11.359  12.450  21.535  0.00  0.00    +0.040 A 
ATOM     20  C   UNL     1      12.802  11.157  22.978  0.00  0.00    +0.040 A 
ATOM     21  C   UNL     1      11.557  11.726  22.711  0.00  0.00    +0.124 A 
ENDBRANCH   1  15
ENDBRANCH   7   1
BRANCH  11   4
ATOM      4  O   UNL     1      12.057   9.361  19.368  0.00  0.00    -0.468 OA
BRANCH   4  18
ATOM      8  N   UNL     1      10.913   8.592  21.242  0.00  0.00    -0.219 NA
ATOM      9  N   UNL     1      11.711   5.977  20.619  0.00  0.00    -0.256 NA
ATOM     18  C   UNL     1      11.675   8.316  20.165  0.00  0.00    +0.234 A 
ATOM     22  C   UNL     1      12.067   7.031  19.859  0.00  0.00    +0.177 A 
ATOM     23  C   UNL     1      10.558   7.538  22.003  0.00  0.00    +0.134 A 
ATOM     24  C   UNL     1      10.949   6.253  21.697  0.00  0.00    +0.130 A 
ENDBRANCH   4  18
ENDBRANCH  11   4
TORSDOF 4
ENDMDL
MODEL 5
REMARK VINA RESULT:      -5.4     12.994     15.344
REMARK  Name = 75536900
REMARK  4 active torsions:
REMARK  status: ('A' for Active; 'I' for Inactive)
REMARK    1  A    between atoms: S_1  and  N_7
REMARK    2  A    between atoms: S_1  and  C_15
REMARK    3  A    between atoms: O_4  and  C_11
REMARK    4  A    between atoms: O_4  and  C_18
REMARK                            x       y       z     vdW  Elec       q    Type
REMARK                         _______ _______ _______ _____ _____    ______ ____
ROOT
ATOM      3  O   UNL     1      13.681   9.311   5.356  0.00  0.00    -0.375 OA
ATOM      7  N   UNL     1      11.069   7.993   5.216  0.00  0.00    -0.171 NA
ATOM     10  C   UNL     1      12.097   6.914   5.101  0.00  0.00    +0.156 C 
ATOM     11  C   UNL     1      13.158   7.284   4.065  0.00  0.00    +0.216 C 
ATOM     12  C   UNL     1      11.425   8.998   6.263  0.00  0.00    +0.137 C 
ATOM     13  C   UNL     1      13.609   8.742   4.053  0.00  0.00    +0.205 C 
ATOM     14  C   UNL     1      12.473   9.969   5.738  0.00  0.00    +0.177 C 
ENDROOT
BRANCH   7   1
ATOM      1  S   UNL     1       9.436   7.469   5.217  0.00  0.00    +0.061 S 
ATOM      5  O   UNL     1       9.221   6.608   4.076  0.00  0.00    -0.153 OA
ATOM      6  O   UNL     1       8.583   8.609   5.468  0.00  0.00    -0.153 OA
BRANCH   1  15
ATOM      2  F   UNL     1       9.453   4.108  10.058  0.00  0.00    -0.205 F 
ATOM     15  C   UNL     1       9.442   6.462   6.666  0.00  0.00    +0.106 A 
ATOM     16  C   UNL     1       9.830   5.125   6.585  0.00  0.00    +0.031 A 
ATOM     17  C   UNL     1       9.059   7.005   7.893  0.00  0.00    +0.031 A 
ATOM     19  C   UNL     1       9.834   4.329   7.731  0.00  0.00    +0.040 A 
ATOM     20  C   UNL     1       9.062   6.209   9.038  0.00  0.00    +0.040 A 
ATOM     21  C   UNL     1       9.450   4.871   8.957  0.00  0.00    +0.124 A 
ENDBRANCH   1  15
ENDBRANCH   7   1
BRANCH  11   4
ATOM      4  O   UNL     1      12.688   6.965   2.755  0.00  0.00    -0.468 OA
BRANCH   4  18
ATOM      8  N   UNL     1      14.110   5.340   1.890  0.00  0.00    -0.219 NA
ATOM      9  N   UNL     1      11.996   3.498   1.956  0.00  0.00    -0.256 NA
ATOM     18  C   UNL     1      12.882   5.679   2.332  0.00  0.00    +0.234 A 
ATOM     22  C   UNL     1      11.844   4.774   2.365  0.00  0.00    +0.177 A 
ATOM     23  C   UNL     1      14.262   4.066   1.481  0.00  0.00    +0.134 A 
ATOM     24  C   UNL     1      13.225   3.160   1.514  0.00  0.00    +0.130 A 
ENDBRANCH   4  18
ENDBRANCH  11   4
TORSDOF 4
ENDMDL
MODEL 6
REMARK VINA RESULT:      -5.4     11.398     13.556
REMARK  Name = 75536900
REMARK  4 active torsions:
REMARK  status: ('A' for Active; 'I' for Inactive)
REMARK    1  A    between atoms: S_1  and  N_7
REMARK    2  A    between atoms: S_1  and  C_15
REMARK    3  A    between atoms: O_4  and  C_11
REMARK    4  A    between atoms: O_4  and  C_18
REMARK                            x       y       z     vdW  Elec       q    Type
REMARK                         _______ _______ _______ _____ _____    ______ ____
ROOT
ATOM      3  O   UNL     1      13.713   8.941   5.525  0.00  0.00    -0.375 OA
ATOM      7  N   UNL     1      11.027   7.782   5.356  0.00  0.00    -0.171 NA
ATOM     10  C   UNL     1      10.846   9.244   5.618  0.00  0.00    +0.156 C 
ATOM     11  C   UNL     1      11.734   9.702   6.772  0.00  0.00    +0.216 C 
ATOM     12  C   UNL     1      12.098   7.522   4.347  0.00  0.00    +0.137 C 
ATOM     13  C   UNL     1      13.141   9.110   6.818  0.00  0.00    +0.205 C 
ATOM     14  C   UNL     1      13.474   7.641   4.984  0.00  0.00    +0.177 C 
ENDROOT
BRANCH   7   1
ATOM      1  S   UNL     1       9.586   6.876   5.158  0.00  0.00    +0.061 S 
ATOM      5  O   UNL     1       9.811   5.851   4.164  0.00  0.00    -0.153 OA
ATOM      6  O   UNL     1       8.472   7.792   5.053  0.00  0.00    -0.153 OA
BRANCH   1  15
ATOM      2  F   UNL     1       9.297   4.264  10.433  0.00  0.00    -0.205 F 
ATOM     15  C   UNL     1       9.500   6.093   6.738  0.00  0.00    +0.106 A 
ATOM     16  C   UNL     1       9.908   4.767   6.882  0.00  0.00    +0.031 A 
ATOM     17  C   UNL     1       9.024   6.802   7.841  0.00  0.00    +0.031 A 
ATOM     19  C   UNL     1       9.840   4.149   8.131  0.00  0.00    +0.040 A 
ATOM     20  C   UNL     1       8.955   6.183   9.089  0.00  0.00    +0.040 A 
ATOM     21  C   UNL     1       9.363   4.857   9.234  0.00  0.00    +0.124 A 
ENDBRANCH   1  15
ENDBRANCH   7   1
BRANCH  11   4
ATOM      4  O   UNL     1      11.100   9.409   8.018  0.00  0.00    -0.468 OA
BRANCH   4  18
ATOM      8  N   UNL     1       9.357  10.626   8.961  0.00  0.00    -0.219 NA
ATOM      9  N   UNL     1      11.226  12.439  10.002  0.00  0.00    -0.256 NA
ATOM     18  C   UNL     1      10.682  10.481   8.758  0.00  0.00    +0.234 A 
ATOM     22  C   UNL     1      11.600  11.372   9.269  0.00  0.00    +0.177 A 
ATOM     23  C   UNL     1       8.983  11.693   9.693  0.00  0.00    +0.134 A 
ATOM     24  C   UNL     1       9.900  12.584  10.205  0.00  0.00    +0.130 A 
ENDBRANCH   4  18
ENDBRANCH  11   4
TORSDOF 4
ENDMDL
MODEL 7
REMARK VINA RESULT:      -5.4      3.494      6.010
REMARK  Name = 75536900
REMARK  4 active torsions:
REMARK  status: ('A' for Active; 'I' for Inactive)
REMARK    1  A    between atoms: S_1  and  N_7
REMARK    2  A    between atoms: S_1  and  C_15
REMARK    3  A    between atoms: O_4  and  C_11
REMARK    4  A    between atoms: O_4  and  C_18
REMARK                            x       y       z     vdW  Elec       q    Type
REMARK                         _______ _______ _______ _____ _____    ______ ____
ROOT
ATOM      3  O   UNL     1      15.156  11.072  17.516  0.00  0.00    -0.375 OA
ATOM      7  N   UNL     1      14.784  10.753  20.404  0.00  0.00    -0.171 NA
ATOM     10  C   UNL     1      14.519   9.416  19.790  0.00  0.00    +0.156 C 
ATOM     11  C   UNL     1      13.565   9.544  18.604  0.00  0.00    +0.216 C 
ATOM     12  C   UNL     1      15.976  11.422  19.800  0.00  0.00    +0.137 C 
ATOM     13  C   UNL     1      13.781  10.749  17.692  0.00  0.00    +0.205 C 
ATOM     14  C   UNL     1      15.618  12.041  18.457  0.00  0.00    +0.177 C 
ENDROOT
BRANCH   7   1
ATOM      1  S   UNL     1      14.685  10.820  22.114  0.00  0.00    +0.061 S 
ATOM      5  O   UNL     1      15.766  11.640  22.614  0.00  0.00    -0.153 OA
ATOM      6  O   UNL     1      14.462   9.484  22.619  0.00  0.00    -0.153 OA
BRANCH   1  15
ATOM      2  F   UNL     1       9.670  13.856  22.724  0.00  0.00    -0.205 F 
ATOM     15  C   UNL     1      13.183  11.729  22.296  0.00  0.00    +0.106 A 
ATOM     16  C   UNL     1      12.635  12.398  21.201  0.00  0.00    +0.031 A 
ATOM     17  C   UNL     1      12.544  11.778  23.535  0.00  0.00    +0.031 A 
ATOM     19  C   UNL     1      11.448  13.116  21.346  0.00  0.00    +0.040 A 
ATOM     20  C   UNL     1      11.358  12.498  23.680  0.00  0.00    +0.040 A 
ATOM     21  C   UNL     1      10.810  13.166  22.585  0.00  0.00    +0.124 A 
ENDBRANCH   1  15
ENDBRANCH   7   1
BRANCH  11   4
ATOM      4  O   UNL     1      12.216   9.589  19.069  0.00  0.00    -0.468 OA
BRANCH   4  18
ATOM      8  N   UNL     1      11.253   8.972  21.094  0.00  0.00    -0.219 NA
ATOM      9  N   UNL     1      11.687   6.278  20.445  0.00  0.00    -0.256 NA
ATOM     18  C   UNL     1      11.835   8.602  19.936  0.00  0.00    +0.234 A 
ATOM     22  C   UNL     1      12.048   7.278  19.617  0.00  0.00    +0.177 A 
ATOM     23  C   UNL     1      10.893   7.972  21.923  0.00  0.00    +0.134 A 
ATOM     24  C   UNL     1      11.105   6.648  21.604  0.00  0.00    +0.130 A 
ENDBRANCH   4  18
ENDBRANCH  11   4
TORSDOF 4
ENDMDL
MODEL 8
REMARK VINA RESULT:      -5.3     26.110     28.135
REMARK  Name = 75536900
REMARK  4 active torsions:
REMARK  status: ('A' for Active; 'I' for Inactive)
REMARK    1  A    between atoms: S_1  and  N_7
REMARK    2  A    between atoms: S_1  and  C_15
REMARK    3  A    between atoms: O_4  and  C_11
REMARK    4  A    between atoms: O_4  and  C_18
REMARK                            x       y       z     vdW  Elec       q    Type
REMARK                         _______ _______ _______ _____ _____    ______ ____
ROOT
ATOM      3  O   UNL     1      -5.867 -14.122  15.024  0.00  0.00    -0.375 OA
ATOM      7  N   UNL     1      -3.510 -12.415  14.687  0.00  0.00    -0.171 NA
ATOM     10  C   UNL     1      -4.143 -12.017  15.983  0.00  0.00    +0.156 C 
ATOM     11  C   UNL     1      -5.645 -11.801  15.807  0.00  0.00    +0.216 C 
ATOM     12  C   UNL     1      -3.481 -13.899  14.510  0.00  0.00    +0.137 C 
ATOM     13  C   UNL     1      -6.369 -12.795  14.903  0.00  0.00    +0.205 C 
ATOM     14  C   UNL     1      -4.844 -14.413  14.072  0.00  0.00    +0.177 C 
ENDROOT
BRANCH   7   1
ATOM      1  S   UNL     1      -2.062 -11.592  14.282  0.00  0.00    +0.061 S 
ATOM      5  O   UNL     1      -1.060 -12.565  13.910  0.00  0.00    -0.153 OA
ATOM      6  O   UNL     1      -1.799 -10.592  15.292  0.00  0.00    -0.153 OA
BRANCH   1  15
ATOM      2  F   UNL     1      -3.814  -8.819   9.386  0.00  0.00    -0.205 F 
ATOM     15  C   UNL     1      -2.586 -10.761  12.816  0.00  0.00    +0.106 A 
ATOM     16  C   UNL     1      -1.652 -10.105  12.014  0.00  0.00    +0.031 A 
ATOM     17  C   UNL     1      -3.935 -10.763  12.458  0.00  0.00    +0.031 A 
ATOM     19  C   UNL     1      -2.067  -9.449  10.855  0.00  0.00    +0.040 A 
ATOM     20  C   UNL     1      -4.349 -10.106  11.300  0.00  0.00    +0.040 A 
ATOM     21  C   UNL     1      -3.415  -9.449  10.498  0.00  0.00    +0.124 A 
ENDBRANCH   1  15
ENDBRANCH   7   1
BRANCH  11   4
ATOM      4  O   UNL     1      -5.890 -10.491  15.294  0.00  0.00    -0.468 OA
BRANCH   4  18
ATOM      8  N   UNL     1      -8.007  -9.770  14.659  0.00  0.00    -0.219 NA
ATOM      9  N   UNL     1      -8.482  -8.937  17.294  0.00  0.00    -0.256 NA
ATOM     18  C   UNL     1      -7.085  -9.917  15.630  0.00  0.00    +0.234 A 
ATOM     22  C   UNL     1      -7.318  -9.507  16.925  0.00  0.00    +0.177 A 
ATOM     23  C   UNL     1      -9.171  -9.199  15.027  0.00  0.00    +0.134 A 
ATOM     24  C   UNL     1      -9.405  -8.790  16.322  0.00  0.00    +0.130 A 
ENDBRANCH   4  18
ENDBRANCH  11   4
TORSDOF 4
ENDMDL
MODEL 9
REMARK VINA RESULT:      -5.2     15.162     17.710
REMARK  Name = 75536900
REMARK  4 active torsions:
REMARK  status: ('A' for Active; 'I' for Inactive)
REMARK    1  A    between atoms: S_1  and  N_7
REMARK    2  A    between atoms: S_1  and  C_15
REMARK    3  A    between atoms: O_4  and  C_11
REMARK    4  A    between atoms: O_4  and  C_18
REMARK                            x       y       z     vdW  Elec       q    Type
REMARK                         _______ _______ _______ _____ _____    ______ ____
ROOT
ATOM      3  O   UNL     1      10.941   9.059   1.759  0.00  0.00    -0.375 OA
ATOM      7  N   UNL     1      10.668   6.241   1.009  0.00  0.00    -0.171 NA
ATOM     10  C   UNL     1       9.755   6.462   2.173  0.00  0.00    +0.156 C 
ATOM     11  C   UNL     1      10.481   7.196   3.298  0.00  0.00    +0.216 C 
ATOM     12  C   UNL     1      10.602   7.362   0.023  0.00  0.00    +0.137 C 
ATOM     13  C   UNL     1      11.427   8.317   2.874  0.00  0.00    +0.205 C 
ATOM     14  C   UNL     1      11.415   8.552   0.512  0.00  0.00    +0.177 C 
ENDROOT
BRANCH   7   1
ATOM      1  S   UNL     1      10.650   4.663   0.338  0.00  0.00    +0.061 S 
ATOM      5  O   UNL     1      10.241   4.748  -1.046  0.00  0.00    -0.153 OA
ATOM      6  O   UNL     1       9.986   3.773   1.263  0.00  0.00    -0.153 OA
BRANCH   1  15
ATOM      2  F   UNL     1      16.416   3.448   0.455  0.00  0.00    -0.205 F 
ATOM     15  C   UNL     1      12.377   4.299   0.374  0.00  0.00    +0.106 A 
ATOM     16  C   UNL     1      12.969   3.839   1.550  0.00  0.00    +0.031 A 
ATOM     17  C   UNL     1      13.149   4.470  -0.776  0.00  0.00    +0.031 A 
ATOM     19  C   UNL     1      14.333   3.551   1.578  0.00  0.00    +0.040 A 
ATOM     20  C   UNL     1      14.513   4.183  -0.747  0.00  0.00    +0.040 A 
ATOM     21  C   UNL     1      15.105   3.723   0.429  0.00  0.00    +0.124 A 
ENDBRANCH   1  15
ENDBRANCH   7   1
BRANCH  11   4
ATOM      4  O   UNL     1      11.235   6.266   4.077  0.00  0.00    -0.468 OA
BRANCH   4  18
ATOM      8  N   UNL     1      11.944   6.490   6.280  0.00  0.00    -0.219 NA
ATOM      9  N   UNL     1       9.360   5.828   7.147  0.00  0.00    -0.256 NA
ATOM     18  C   UNL     1      10.949   6.215   5.413  0.00  0.00    +0.234 A 
ATOM     22  C   UNL     1       9.680   5.889   5.840  0.00  0.00    +0.177 A 
ATOM     23  C   UNL     1      11.625   6.428   7.588  0.00  0.00    +0.134 A 
ATOM     24  C   UNL     1      10.356   6.104   8.015  0.00  0.00    +0.130 A 
ENDBRANCH   4  18
ENDBRANCH  11   4
TORSDOF 4
ENDMDL
MODEL 10
REMARK VINA RESULT:      -5.2     10.900     13.506
REMARK  Name = 75536900
REMARK  4 active torsions:
REMARK  status: ('A' for Active; 'I' for Inactive)
REMARK    1  A    between atoms: S_1  and  N_7
REMARK    2  A    between atoms: S_1  and  C_15
REMARK    3  A    between atoms: O_4  and  C_11
REMARK    4  A    between atoms: O_4  and  C_18
REMARK                            x       y       z     vdW  Elec       q    Type
REMARK                         _______ _______ _______ _____ _____    ______ ____
ROOT
ATOM      3  O   UNL     1       7.672   9.447   5.196  0.00  0.00    -0.375 OA
ATOM      7  N   UNL     1       9.380   7.228   6.057  0.00  0.00    -0.171 NA
ATOM     10  C   UNL     1       8.889   7.897   7.302  0.00  0.00    +0.156 C 
ATOM     11  C   UNL     1       9.077   9.410   7.214  0.00  0.00    +0.216 C 
ATOM     12  C   UNL     1       8.298   7.082   5.036  0.00  0.00    +0.137 C 
ATOM     13  C   UNL     1       8.776  10.050   5.861  0.00  0.00    +0.205 C 
ATOM     14  C   UNL     1       8.067   8.399   4.310  0.00  0.00    +0.177 C 
ENDROOT
BRANCH   7   1
ATOM      1  S   UNL     1      10.367   5.847   6.294  0.00  0.00    +0.061 S 
ATOM      5  O   UNL     1      10.081   4.884   5.255  0.00  0.00    -0.153 OA
ATOM      6  O   UNL     1      10.323   5.479   7.691  0.00  0.00    -0.153 OA
BRANCH   1  15
ATOM      2  F   UNL     1      15.662   8.188   5.190  0.00  0.00    -0.205 F 
ATOM     15  C   UNL     1      11.953   6.548   5.964  0.00  0.00    +0.106 A 
ATOM     16  C   UNL     1      12.881   6.691   6.995  0.00  0.00    +0.031 A 
ATOM     17  C   UNL     1      12.278   6.957   4.670  0.00  0.00    +0.031 A 
ATOM     19  C   UNL     1      14.134   7.245   6.734  0.00  0.00    +0.040 A 
ATOM     20  C   UNL     1      13.531   7.512   4.410  0.00  0.00    +0.040 A 
ATOM     21  C   UNL     1      14.459   7.655   5.441  0.00  0.00    +0.124 A 
ENDBRANCH   1  15
ENDBRANCH   7   1
BRANCH  11   4
ATOM      4  O   UNL     1      10.418   9.754   7.567  0.00  0.00    -0.468 OA
BRANCH   4  18
ATOM      8  N   UNL     1       9.489  10.797   9.426  0.00  0.00    -0.219 NA
ATOM      9  N   UNL     1      12.005  11.867  10.046  0.00  0.00    -0.256 NA
ATOM     18  C   UNL     1      10.575  10.551   8.667  0.00  0.00    +0.234 A 
ATOM     22  C   UNL     1      11.811  11.078   8.971  0.00  0.00    +0.177 A 
ATOM     23  C   UNL     1       9.682  11.587  10.500  0.00  0.00    +0.134 A 
ATOM     24  C   UNL     1      10.919  12.113  10.806  0.00  0.00    +0.130 A 
ENDBRANCH   4  18
ENDBRANCH  11   4
TORSDOF 4
ENDMDL
