MODEL 1
REMARK VINA RESULT:      -6.9      0.000      0.000
REMARK  Name = 11866295
REMARK  12 active torsions:
REMARK  status: ('A' for Active; 'I' for Inactive)
REMARK    1  A    between atoms: O_1  and  C_10
REMARK    2  A    between atoms: O_2  and  C_11
REMARK    3  A    between atoms: N_6  and  C_12
REMARK    4  A    between atoms: N_7  and  C_16
REMARK    5  A    between atoms: N_8  and  C_24
REMARK    6  A    between atoms: C_14  and  C_17
REMARK    7  A    between atoms: C_16  and  C_18
REMARK    8  A    between atoms: C_16  and  C_23
REMARK    9  A    between atoms: C_18  and  C_19
REMARK   10  A    between atoms: C_19  and  C_21
REMARK   11  A    between atoms: C_19  and  C_22
REMARK   12  A    between atoms: C_29  and  C_30
REMARK                            x       y       z     vdW  Elec       q    Type
REMARK                         _______ _______ _______ _____ _____    ______ ____
ROOT
ATOM     10  C   UNL     1      20.422   7.308  23.148  0.00  0.00    +0.167 C 
ATOM     11  C   UNL     1      21.941   7.166  22.992  0.00  0.00    +0.149 C 
ATOM     12  C   UNL     1      19.673   6.765  21.916  0.00  0.00    +0.129 C 
ATOM     13  C   UNL     1      22.360   5.713  22.711  0.00  0.00    +0.074 C 
ATOM     14  C   UNL     1      21.416   4.986  21.796  0.00  0.00    +0.015 C 
ATOM     15  C   UNL     1      20.214   5.450  21.424  0.00  0.00    +0.006 C 
ENDROOT
BRANCH  12   6
ATOM      4  O   UNL     1      17.534   7.913  20.396  0.00  0.00    -0.252 OA
ATOM      6  N   UNL     1      18.261   6.623  22.171  0.00  0.00    -0.290 N 
ATOM      8  N   UNL     1      16.003   6.908  21.864  0.00  0.00    -0.269 N 
ATOM     20  C   UNL     1      17.275   7.220  21.378  0.00  0.00    +0.304 C 
ATOM     31  H   UNL     1      17.966   6.109  22.997  0.00  0.00    +0.151 HD
ATOM     35  H   UNL     1      15.963   6.317  22.691  0.00  0.00    +0.156 HD
BRANCH   8  24
ATOM     24  C   UNL     1      14.751   7.314  21.347  0.00  0.00    +0.035 A 
ATOM     25  C   UNL     1      14.243   6.711  20.196  0.00  0.00    +0.023 A 
ATOM     26  C   UNL     1      14.025   8.319  21.986  0.00  0.00    +0.023 A 
ATOM     27  C   UNL     1      13.008   7.112  19.685  0.00  0.00    +0.005 A 
ATOM     28  C   UNL     1      12.790   8.720  21.475  0.00  0.00    +0.005 A 
ATOM     29  C   UNL     1      12.282   8.116  20.325  0.00  0.00    -0.050 A 
ATOM     30  C   UNL     1      10.962   8.544  19.779  0.00  0.00    +0.044 C 
ENDBRANCH   8  24
ENDBRANCH  12   6
BRANCH  14  17
ATOM      3  O   UNL     1      21.019   2.909  20.789  0.00  0.00    -0.271 OA
ATOM      7  N   UNL     1      23.209   3.500  21.333  0.00  0.00    -0.300 N 
ATOM     17  C   UNL     1      21.841   3.693  21.251  0.00  0.00    +0.241 C 
ATOM     32  H   UNL     1      23.799   4.254  21.674  0.00  0.00    +0.150 HD
BRANCH   7  16
ATOM     16  C   UNL     1      23.861   2.305  20.864  0.00  0.00    +0.159 C 
BRANCH  16  23
ATOM      5  O   UNL     1      26.195   2.833  20.435  0.00  0.00    -0.274 OA
ATOM      9  N   UNL     1      24.698   2.991  18.701  0.00  0.00    -0.328 N 
ATOM     23  C   UNL     1      25.044   2.746  20.014  0.00  0.00    +0.231 C 
ATOM     36  H   UNL     1      25.395   3.279  18.024  0.00  0.00    +0.145 HD
ATOM     37  H   UNL     1      23.746   2.893  18.361  0.00  0.00    +0.145 HD
ENDBRANCH  16  23
BRANCH  16  18
ATOM     18  C   UNL     1      24.339   1.413  22.018  0.00  0.00    +0.034 C 
BRANCH  18  19
ATOM     19  C   UNL     1      24.231   2.054  23.417  0.00  0.00    -0.015 C 
ATOM     21  C   UNL     1      23.233   1.322  24.317  0.00  0.00    +0.007 C 
ATOM     22  C   UNL     1      25.609   2.072  24.084  0.00  0.00    +0.007 C 
ENDBRANCH  18  19
ENDBRANCH  16  18
ENDBRANCH   7  16
ENDBRANCH  14  17
BRANCH  10   1
ATOM      1  O   UNL     1      20.011   6.590  24.314  0.00  0.00    -0.387 OA
ATOM     33  H   UNL     1      20.814   6.281  24.766  0.00  0.00    +0.210 HD
ENDBRANCH  10   1
BRANCH  11   2
ATOM      2  O   UNL     1      22.410   8.020  21.950  0.00  0.00    -0.389 OA
ATOM     34  H   UNL     1      22.556   7.469  21.162  0.00  0.00    +0.210 HD
ENDBRANCH  11   2
TORSDOF 9
ENDMDL
MODEL 2
REMARK VINA RESULT:      -6.8     28.690     32.712
REMARK  Name = 11866295
REMARK  12 active torsions:
REMARK  status: ('A' for Active; 'I' for Inactive)
REMARK    1  A    between atoms: O_1  and  C_10
REMARK    2  A    between atoms: O_2  and  C_11
REMARK    3  A    between atoms: N_6  and  C_12
REMARK    4  A    between atoms: N_7  and  C_16
REMARK    5  A    between atoms: N_8  and  C_24
REMARK    6  A    between atoms: C_14  and  C_17
REMARK    7  A    between atoms: C_16  and  C_18
REMARK    8  A    between atoms: C_16  and  C_23
REMARK    9  A    between atoms: C_18  and  C_19
REMARK   10  A    between atoms: C_19  and  C_21
REMARK   11  A    between atoms: C_19  and  C_22
REMARK   12  A    between atoms: C_29  and  C_30
REMARK                            x       y       z     vdW  Elec       q    Type
REMARK                         _______ _______ _______ _____ _____    ______ ____
ROOT
ATOM     10  C   UNL     1     -10.874 -10.494  18.382  0.00  0.00    +0.167 C 
ATOM     11  C   UNL     1      -9.905 -11.006  19.454  0.00  0.00    +0.149 C 
ATOM     12  C   UNL     1     -10.358  -9.199  17.725  0.00  0.00    +0.129 C 
ATOM     13  C   UNL     1      -8.487 -11.220  18.897  0.00  0.00    +0.074 C 
ATOM     14  C   UNL     1      -8.067 -10.164  17.914  0.00  0.00    +0.015 C 
ATOM     15  C   UNL     1      -8.892  -9.247  17.389  0.00  0.00    +0.006 C 
ENDROOT
BRANCH  12   6
ATOM      4  O   UNL     1     -11.390  -6.629  16.994  0.00  0.00    -0.252 OA
ATOM      6  N   UNL     1     -11.101  -8.876  16.532  0.00  0.00    -0.290 N 
ATOM      8  N   UNL     1     -12.253  -7.578  15.027  0.00  0.00    -0.269 N 
ATOM     20  C   UNL     1     -11.572  -7.589  16.248  0.00  0.00    +0.304 C 
ATOM     31  H   UNL     1     -11.340  -9.626  15.889  0.00  0.00    +0.151 HD
ATOM     35  H   UNL     1     -12.313  -8.463  14.530  0.00  0.00    +0.156 HD
BRANCH   8  24
ATOM     24  C   UNL     1     -12.875  -6.479  14.390  0.00  0.00    +0.035 A 
ATOM     25  C   UNL     1     -14.265  -6.435  14.275  0.00  0.00    +0.023 A 
ATOM     26  C   UNL     1     -12.099  -5.440  13.875  0.00  0.00    +0.023 A 
ATOM     27  C   UNL     1     -14.878  -5.351  13.646  0.00  0.00    +0.005 A 
ATOM     28  C   UNL     1     -12.713  -4.357  13.246  0.00  0.00    +0.005 A 
ATOM     29  C   UNL     1     -14.103  -4.313  13.132  0.00  0.00    -0.050 A 
ATOM     30  C   UNL     1     -14.759  -3.154  12.460  0.00  0.00    +0.044 C 
ENDBRANCH   8  24
ENDBRANCH  12   6
BRANCH  14  17
ATOM      3  O   UNL     1      -6.266  -9.281  16.704  0.00  0.00    -0.271 OA
ATOM      7  N   UNL     1      -5.887 -11.076  18.145  0.00  0.00    -0.300 N 
ATOM     17  C   UNL     1      -6.657 -10.113  17.517  0.00  0.00    +0.241 C 
ATOM     32  H   UNL     1      -6.311 -11.667  18.855  0.00  0.00    +0.150 HD
BRANCH   7  16
ATOM     16  C   UNL     1      -4.474 -11.224  17.913  0.00  0.00    +0.159 C 
BRANCH  16  23
ATOM      5  O   UNL     1      -3.379 -12.104  19.898  0.00  0.00    -0.274 OA
ATOM      9  N   UNL     1      -4.325 -13.584  18.418  0.00  0.00    -0.328 N 
ATOM     23  C   UNL     1      -3.980 -12.320  18.848  0.00  0.00    +0.231 C 
ATOM     36  H   UNL     1      -4.069 -14.405  18.957  0.00  0.00    +0.145 HD
ATOM     37  H   UNL     1      -4.841 -13.747  17.560  0.00  0.00    +0.145 HD
ENDBRANCH  16  23
BRANCH  16  18
ATOM     18  C   UNL     1      -4.158 -11.587  16.456  0.00  0.00    +0.034 C 
BRANCH  18  19
ATOM     19  C   UNL     1      -3.212 -10.603  15.736  0.00  0.00    -0.015 C 
ATOM     21  C   UNL     1      -1.762 -10.741  16.203  0.00  0.00    +0.007 C 
ATOM     22  C   UNL     1      -3.289 -10.829  14.223  0.00  0.00    +0.007 C 
ENDBRANCH  18  19
ENDBRANCH  16  18
ENDBRANCH   7  16
ENDBRANCH  14  17
BRANCH  10   1
ATOM      1  O   UNL     1     -11.035 -11.506  17.386  0.00  0.00    -0.387 OA
ATOM     33  H   UNL     1     -10.631 -11.176  16.565  0.00  0.00    +0.210 HD
ENDBRANCH  10   1
BRANCH  11   2
ATOM      2  O   UNL     1      -9.866 -10.100  20.555  0.00  0.00    -0.389 OA
ATOM     34  H   UNL     1     -10.105 -10.598  21.355  0.00  0.00    +0.210 HD
ENDBRANCH  11   2
TORSDOF 9
ENDMDL
MODEL 3
REMARK VINA RESULT:      -6.7      2.292     10.219
REMARK  Name = 11866295
REMARK  12 active torsions:
REMARK  status: ('A' for Active; 'I' for Inactive)
REMARK    1  A    between atoms: O_1  and  C_10
REMARK    2  A    between atoms: O_2  and  C_11
REMARK    3  A    between atoms: N_6  and  C_12
REMARK    4  A    between atoms: N_7  and  C_16
REMARK    5  A    between atoms: N_8  and  C_24
REMARK    6  A    between atoms: C_14  and  C_17
REMARK    7  A    between atoms: C_16  and  C_18
REMARK    8  A    between atoms: C_16  and  C_23
REMARK    9  A    between atoms: C_18  and  C_19
REMARK   10  A    between atoms: C_19  and  C_21
REMARK   11  A    between atoms: C_19  and  C_22
REMARK   12  A    between atoms: C_29  and  C_30
REMARK                            x       y       z     vdW  Elec       q    Type
REMARK                         _______ _______ _______ _____ _____    ______ ____
ROOT
ATOM     10  C   UNL     1      20.495   7.515  21.462  0.00  0.00    +0.167 C 
ATOM     11  C   UNL     1      19.288   8.420  21.734  0.00  0.00    +0.149 C 
ATOM     12  C   UNL     1      20.082   6.034  21.362  0.00  0.00    +0.129 C 
ATOM     13  C   UNL     1      18.185   8.245  20.676  0.00  0.00    +0.074 C 
ATOM     14  C   UNL     1      18.001   6.821  20.235  0.00  0.00    +0.015 C 
ATOM     15  C   UNL     1      18.838   5.819  20.542  0.00  0.00    +0.006 C 
ENDROOT
BRANCH  12   6
ATOM      4  O   UNL     1      21.936   4.431  22.845  0.00  0.00    -0.252 OA
ATOM      6  N   UNL     1      21.143   5.221  20.822  0.00  0.00    -0.290 N 
ATOM      8  N   UNL     1      22.933   3.781  20.821  0.00  0.00    -0.269 N 
ATOM     20  C   UNL     1      22.010   4.464  21.618  0.00  0.00    +0.304 C 
ATOM     31  H   UNL     1      21.305   5.236  19.818  0.00  0.00    +0.151 HD
ATOM     35  H   UNL     1      22.856   3.917  19.816  0.00  0.00    +0.156 HD
BRANCH   8  24
ATOM     24  C   UNL     1      23.970   2.915  21.241  0.00  0.00    +0.035 A 
ATOM     25  C   UNL     1      25.187   3.443  21.672  0.00  0.00    +0.023 A 
ATOM     26  C   UNL     1      23.775   1.534  21.222  0.00  0.00    +0.023 A 
ATOM     27  C   UNL     1      26.210   2.589  22.086  0.00  0.00    +0.005 A 
ATOM     28  C   UNL     1      24.798   0.680  21.635  0.00  0.00    +0.005 A 
ATOM     29  C   UNL     1      26.015   1.208  22.067  0.00  0.00    -0.050 A 
ATOM     30  C   UNL     1      27.109   0.296  22.510  0.00  0.00    +0.044 C 
ENDBRANCH   8  24
ENDBRANCH  12   6
BRANCH  14  17
ATOM      3  O   UNL     1      16.801   5.493  18.724  0.00  0.00    -0.271 OA
ATOM      7  N   UNL     1      15.798   7.416  19.580  0.00  0.00    -0.300 N 
ATOM     17  C   UNL     1      16.819   6.493  19.433  0.00  0.00    +0.241 C 
ATOM     32  H   UNL     1      15.902   8.171  20.254  0.00  0.00    +0.150 HD
BRANCH   7  16
ATOM     16  C   UNL     1      14.538   7.308  18.891  0.00  0.00    +0.159 C 
BRANCH  16  23
ATOM      5  O   UNL     1      13.641   6.993  21.129  0.00  0.00    -0.274 OA
ATOM      9  N   UNL     1      12.378   6.315  19.334  0.00  0.00    -0.328 N 
ATOM     23  C   UNL     1      13.507   6.854  19.915  0.00  0.00    +0.231 C 
ATOM     36  H   UNL     1      11.607   5.985  19.904  0.00  0.00    +0.145 HD
ATOM     37  H   UNL     1      12.271   6.227  18.329  0.00  0.00    +0.145 HD
ENDBRANCH  16  23
BRANCH  16  18
ATOM     18  C   UNL     1      14.107   8.637  18.257  0.00  0.00    +0.034 C 
BRANCH  18  19
ATOM     19  C   UNL     1      14.353   9.882  19.134  0.00  0.00    -0.015 C 
ATOM     21  C   UNL     1      15.082  10.993  18.378  0.00  0.00    +0.007 C 
ATOM     22  C   UNL     1      13.017  10.410  19.665  0.00  0.00    +0.007 C 
ENDBRANCH  18  19
ENDBRANCH  16  18
ENDBRANCH   7  16
ENDBRANCH  14  17
BRANCH  10   1
ATOM      1  O   UNL     1      21.111   7.925  20.239  0.00  0.00    -0.387 OA
ATOM     33  H   UNL     1      21.785   7.261  20.013  0.00  0.00    +0.210 HD
ENDBRANCH  10   1
BRANCH  11   2
ATOM      2  O   UNL     1      18.762   8.161  23.035  0.00  0.00    -0.389 OA
ATOM     34  H   UNL     1      17.794   8.217  22.977  0.00  0.00    +0.210 HD
ENDBRANCH  11   2
TORSDOF 9
ENDMDL
MODEL 4
REMARK VINA RESULT:      -6.4     19.313     22.948
REMARK  Name = 11866295
REMARK  12 active torsions:
REMARK  status: ('A' for Active; 'I' for Inactive)
REMARK    1  A    between atoms: O_1  and  C_10
REMARK    2  A    between atoms: O_2  and  C_11
REMARK    3  A    between atoms: N_6  and  C_12
REMARK    4  A    between atoms: N_7  and  C_16
REMARK    5  A    between atoms: N_8  and  C_24
REMARK    6  A    between atoms: C_14  and  C_17
REMARK    7  A    between atoms: C_16  and  C_18
REMARK    8  A    between atoms: C_16  and  C_23
REMARK    9  A    between atoms: C_18  and  C_19
REMARK   10  A    between atoms: C_19  and  C_21
REMARK   11  A    between atoms: C_19  and  C_22
REMARK   12  A    between atoms: C_29  and  C_30
REMARK                            x       y       z     vdW  Elec       q    Type
REMARK                         _______ _______ _______ _____ _____    ______ ____
ROOT
ATOM     10  C   UNL     1      12.076   6.456   1.406  0.00  0.00    +0.167 C 
ATOM     11  C   UNL     1      12.841   6.703   2.712  0.00  0.00    +0.149 C 
ATOM     12  C   UNL     1      11.417   5.063   1.391  0.00  0.00    +0.129 C 
ATOM     13  C   UNL     1      11.945   6.523   3.950  0.00  0.00    +0.074 C 
ATOM     14  C   UNL     1      10.976   5.382   3.824  0.00  0.00    +0.015 C 
ATOM     15  C   UNL     1      10.736   4.714   2.687  0.00  0.00    +0.006 C 
ENDROOT
BRANCH  12   6
ATOM      4  O   UNL     1      11.977   4.276  -1.306  0.00  0.00    -0.252 OA
ATOM      6  N   UNL     1      10.466   4.936   0.314  0.00  0.00    -0.290 N 
ATOM      8  N   UNL     1       9.695   4.510  -1.807  0.00  0.00    -0.269 N 
ATOM     20  C   UNL     1      10.822   4.544  -0.981  0.00  0.00    +0.304 C 
ATOM     31  H   UNL     1       9.498   5.193   0.488  0.00  0.00    +0.151 HD
ATOM     35  H   UNL     1       8.808   4.762  -1.379  0.00  0.00    +0.156 HD
BRANCH   8  24
ATOM     24  C   UNL     1       9.633   4.166  -3.178  0.00  0.00    +0.035 A 
ATOM     25  C   UNL     1       9.709   2.828  -3.564  0.00  0.00    +0.023 A 
ATOM     26  C   UNL     1       9.497   5.164  -4.142  0.00  0.00    +0.023 A 
ATOM     27  C   UNL     1       9.648   2.488  -4.916  0.00  0.00    +0.005 A 
ATOM     28  C   UNL     1       9.435   4.824  -5.494  0.00  0.00    +0.005 A 
ATOM     29  C   UNL     1       9.511   3.486  -5.880  0.00  0.00    -0.050 A 
ATOM     30  C   UNL     1       9.445   3.122  -7.325  0.00  0.00    +0.044 C 
ENDBRANCH   8  24
ENDBRANCH  12   6
BRANCH  14  17
ATOM      3  O   UNL     1       9.906   3.785   5.161  0.00  0.00    -0.271 OA
ATOM      7  N   UNL     1      10.044   5.984   5.923  0.00  0.00    -0.300 N 
ATOM     17  C   UNL     1      10.257   4.952   5.027  0.00  0.00    +0.241 C 
ATOM     32  H   UNL     1      10.444   6.899   5.733  0.00  0.00    +0.150 HD
BRANCH   7  16
ATOM     16  C   UNL     1       9.357   5.806   7.175  0.00  0.00    +0.159 C 
BRANCH  16  23
ATOM      5  O   UNL     1      11.240   5.848   8.712  0.00  0.00    -0.274 OA
ATOM      9  N   UNL     1      10.138   3.861   8.381  0.00  0.00    -0.328 N 
ATOM     23  C   UNL     1      10.358   5.202   8.151  0.00  0.00    +0.231 C 
ATOM     36  H   UNL     1      10.726   3.339   9.023  0.00  0.00    +0.145 HD
ATOM     37  H   UNL     1       9.390   3.344   7.928  0.00  0.00    +0.145 HD
ENDBRANCH  16  23
BRANCH  16  18
ATOM     18  C   UNL     1       8.804   7.126   7.729  0.00  0.00    +0.034 C 
BRANCH  18  19
ATOM     19  C   UNL     1       9.301   8.391   6.999  0.00  0.00    -0.015 C 
ATOM     21  C   UNL     1       8.285   8.914   5.982  0.00  0.00    +0.007 C 
ATOM     22  C   UNL     1       9.617   9.486   8.022  0.00  0.00    +0.007 C 
ENDBRANCH  18  19
ENDBRANCH  16  18
ENDBRANCH   7  16
ENDBRANCH  14  17
BRANCH  10   1
ATOM      1  O   UNL     1      11.071   7.463   1.264  0.00  0.00    -0.387 OA
ATOM     33  H   UNL     1      10.594   7.285   0.436  0.00  0.00    +0.210 HD
ENDBRANCH  10   1
BRANCH  11   2
ATOM      2  O   UNL     1      13.967   5.832   2.794  0.00  0.00    -0.389 OA
ATOM     34  H   UNL     1      14.631   6.148   2.158  0.00  0.00    +0.210 HD
ENDBRANCH  11   2
TORSDOF 9
ENDMDL
MODEL 5
REMARK VINA RESULT:      -6.3      7.683     11.581
REMARK  Name = 11866295
REMARK  12 active torsions:
REMARK  status: ('A' for Active; 'I' for Inactive)
REMARK    1  A    between atoms: O_1  and  C_10
REMARK    2  A    between atoms: O_2  and  C_11
REMARK    3  A    between atoms: N_6  and  C_12
REMARK    4  A    between atoms: N_7  and  C_16
REMARK    5  A    between atoms: N_8  and  C_24
REMARK    6  A    between atoms: C_14  and  C_17
REMARK    7  A    between atoms: C_16  and  C_18
REMARK    8  A    between atoms: C_16  and  C_23
REMARK    9  A    between atoms: C_18  and  C_19
REMARK   10  A    between atoms: C_19  and  C_21
REMARK   11  A    between atoms: C_19  and  C_22
REMARK   12  A    between atoms: C_29  and  C_30
REMARK                            x       y       z     vdW  Elec       q    Type
REMARK                         _______ _______ _______ _____ _____    ______ ____
ROOT
ATOM     10  C   UNL     1      14.858  12.699  14.461  0.00  0.00    +0.167 C 
ATOM     11  C   UNL     1      16.185  12.315  15.126  0.00  0.00    +0.149 C 
ATOM     12  C   UNL     1      13.864  11.521  14.458  0.00  0.00    +0.129 C 
ATOM     13  C   UNL     1      15.983  11.784  16.556  0.00  0.00    +0.074 C 
ATOM     14  C   UNL     1      14.763  10.920  16.704  0.00  0.00    +0.015 C 
ATOM     15  C   UNL     1      13.811  10.785  15.770  0.00  0.00    +0.006 C 
ENDROOT
BRANCH  12   6
ATOM      4  O   UNL     1      12.839  11.947  11.817  0.00  0.00    -0.252 OA
ATOM      6  N   UNL     1      12.533  11.949  14.108  0.00  0.00    -0.290 N 
ATOM      8  N   UNL     1      10.775  12.550  12.757  0.00  0.00    -0.269 N 
ATOM     20  C   UNL     1      12.109  12.135  12.788  0.00  0.00    +0.304 C 
ATOM     31  H   UNL     1      11.883  12.178  14.857  0.00  0.00    +0.151 HD
ATOM     35  H   UNL     1      10.310  12.658  13.656  0.00  0.00    +0.156 HD
BRANCH   8  24
ATOM     24  C   UNL     1       9.982  12.843  11.623  0.00  0.00    +0.035 A 
ATOM     25  C   UNL     1       9.048  11.913  11.167  0.00  0.00    +0.023 A 
ATOM     26  C   UNL     1      10.135  14.061  10.961  0.00  0.00    +0.023 A 
ATOM     27  C   UNL     1       8.266  12.202  10.048  0.00  0.00    +0.005 A 
ATOM     28  C   UNL     1       9.352  14.350   9.843  0.00  0.00    +0.005 A 
ATOM     29  C   UNL     1       8.418  13.420   9.387  0.00  0.00    -0.050 A 
ATOM     30  C   UNL     1       7.581  13.728   8.191  0.00  0.00    +0.044 C 
ENDBRANCH   8  24
ENDBRANCH  12   6
BRANCH  14  17
ATOM      3  O   UNL     1      14.779  10.685  19.035  0.00  0.00    -0.271 OA
ATOM      7  N   UNL     1      14.270   8.829  17.717  0.00  0.00    -0.300 N 
ATOM     17  C   UNL     1      14.609  10.152  17.943  0.00  0.00    +0.241 C 
ATOM     32  H   UNL     1      14.087   8.518  16.766  0.00  0.00    +0.150 HD
BRANCH   7  16
ATOM     16  C   UNL     1      14.067   7.879  18.779  0.00  0.00    +0.159 C 
BRANCH  16  23
ATOM      5  O   UNL     1      12.093   7.314  17.477  0.00  0.00    -0.274 OA
ATOM      9  N   UNL     1      12.310   6.424  19.583  0.00  0.00    -0.328 N 
ATOM     23  C   UNL     1      12.723   7.208  18.526  0.00  0.00    +0.231 C 
ATOM     36  H   UNL     1      11.437   5.909  19.539  0.00  0.00    +0.145 HD
ATOM     37  H   UNL     1      12.852   6.327  20.435  0.00  0.00    +0.145 HD
ENDBRANCH  16  23
BRANCH  16  18
ATOM     18  C   UNL     1      15.182   6.827  18.840  0.00  0.00    +0.034 C 
BRANCH  18  19
ATOM     19  C   UNL     1      16.300   7.130  19.860  0.00  0.00    -0.015 C 
ATOM     21  C   UNL     1      15.849   6.902  21.303  0.00  0.00    +0.007 C 
ATOM     22  C   UNL     1      17.523   6.259  19.558  0.00  0.00    +0.007 C 
ENDBRANCH  18  19
ENDBRANCH  16  18
ENDBRANCH   7  16
ENDBRANCH  14  17
BRANCH  10   1
ATOM      1  O   UNL     1      14.291  13.803  15.170  0.00  0.00    -0.387 OA
ATOM     33  H   UNL     1      15.025  14.316  15.547  0.00  0.00    +0.210 HD
ENDBRANCH  10   1
BRANCH  11   2
ATOM      2  O   UNL     1      16.867  11.342  14.336  0.00  0.00    -0.389 OA
ATOM     34  H   UNL     1      16.438  10.483  14.492  0.00  0.00    +0.210 HD
ENDBRANCH  11   2
TORSDOF 9
ENDMDL
MODEL 6
REMARK VINA RESULT:      -6.3     28.363     31.203
REMARK  Name = 11866295
REMARK  12 active torsions:
REMARK  status: ('A' for Active; 'I' for Inactive)
REMARK    1  A    between atoms: O_1  and  C_10
REMARK    2  A    between atoms: O_2  and  C_11
REMARK    3  A    between atoms: N_6  and  C_12
REMARK    4  A    between atoms: N_7  and  C_16
REMARK    5  A    between atoms: N_8  and  C_24
REMARK    6  A    between atoms: C_14  and  C_17
REMARK    7  A    between atoms: C_16  and  C_18
REMARK    8  A    between atoms: C_16  and  C_23
REMARK    9  A    between atoms: C_18  and  C_19
REMARK   10  A    between atoms: C_19  and  C_21
REMARK   11  A    between atoms: C_19  and  C_22
REMARK   12  A    between atoms: C_29  and  C_30
REMARK                            x       y       z     vdW  Elec       q    Type
REMARK                         _______ _______ _______ _____ _____    ______ ____
ROOT
ATOM     10  C   UNL     1      -6.798 -11.210  17.701  0.00  0.00    +0.167 C 
ATOM     11  C   UNL     1      -5.706 -12.066  18.353  0.00  0.00    +0.149 C 
ATOM     12  C   UNL     1      -6.228  -9.889  17.148  0.00  0.00    +0.129 C 
ATOM     13  C   UNL     1      -4.541 -12.350  17.390  0.00  0.00    +0.074 C 
ATOM     14  C   UNL     1      -4.189 -11.178  16.517  0.00  0.00    +0.015 C 
ATOM     15  C   UNL     1      -4.930 -10.067  16.407  0.00  0.00    +0.006 C 
ENDROOT
BRANCH  12   6
ATOM      4  O   UNL     1      -8.963  -9.282  17.745  0.00  0.00    -0.252 OA
ATOM      6  N   UNL     1      -7.171  -9.222  16.286  0.00  0.00    -0.290 N 
ATOM      8  N   UNL     1      -9.170  -8.306  15.621  0.00  0.00    -0.269 N 
ATOM     20  C   UNL     1      -8.496  -8.962  16.654  0.00  0.00    +0.304 C 
ATOM     31  H   UNL     1      -6.878  -8.973  15.345  0.00  0.00    +0.151 HD
ATOM     35  H   UNL     1      -8.635  -8.113  14.777  0.00  0.00    +0.156 HD
BRANCH   8  24
ATOM     24  C   UNL     1     -10.516  -7.872  15.599  0.00  0.00    +0.035 A 
ATOM     25  C   UNL     1     -11.537  -8.781  15.321  0.00  0.00    +0.023 A 
ATOM     26  C   UNL     1     -10.822  -6.535  15.855  0.00  0.00    +0.023 A 
ATOM     27  C   UNL     1     -12.865  -8.353  15.299  0.00  0.00    +0.005 A 
ATOM     28  C   UNL     1     -12.150  -6.107  15.833  0.00  0.00    +0.005 A 
ATOM     29  C   UNL     1     -13.171  -7.017  15.555  0.00  0.00    -0.050 A 
ATOM     30  C   UNL     1     -14.590  -6.559  15.533  0.00  0.00    +0.044 C 
ENDBRANCH   8  24
ENDBRANCH  12   6
BRANCH  14  17
ATOM      3  O   UNL     1      -1.913 -10.734  16.187  0.00  0.00    -0.271 OA
ATOM      7  N   UNL     1      -3.086 -11.901  14.543  0.00  0.00    -0.300 N 
ATOM     17  C   UNL     1      -2.942 -11.240  15.750  0.00  0.00    +0.241 C 
ATOM     32  H   UNL     1      -3.974 -12.341  14.320  0.00  0.00    +0.150 HD
BRANCH   7  16
ATOM     16  C   UNL     1      -1.999 -12.086  13.616  0.00  0.00    +0.159 C 
BRANCH  16  23
ATOM      5  O   UNL     1      -2.248 -14.440  14.172  0.00  0.00    -0.274 OA
ATOM      9  N   UNL     1      -0.244 -13.721  13.311  0.00  0.00    -0.328 N 
ATOM     23  C   UNL     1      -1.536 -13.530  13.754  0.00  0.00    +0.231 C 
ATOM     36  H   UNL     1       0.184 -14.640  13.335  0.00  0.00    +0.145 HD
ATOM     37  H   UNL     1       0.326 -12.964  12.947  0.00  0.00    +0.145 HD
ENDBRANCH  16  23
BRANCH  16  18
ATOM     18  C   UNL     1      -2.416 -11.798  12.168  0.00  0.00    +0.034 C 
BRANCH  18  19
ATOM     19  C   UNL     1      -2.605 -10.303  11.835  0.00  0.00    -0.015 C 
ATOM     21  C   UNL     1      -1.279  -9.598  11.545  0.00  0.00    +0.007 C 
ATOM     22  C   UNL     1      -3.541 -10.157  10.631  0.00  0.00    +0.007 C 
ENDBRANCH  18  19
ENDBRANCH  16  18
ENDBRANCH   7  16
ENDBRANCH  14  17
BRANCH  10   1
ATOM      1  O   UNL     1      -7.394 -11.957  16.638  0.00  0.00    -0.387 OA
ATOM     33  H   UNL     1      -8.342 -11.742  16.625  0.00  0.00    +0.210 HD
ENDBRANCH  10   1
BRANCH  11   2
ATOM      2  O   UNL     1      -5.220 -11.426  19.532  0.00  0.00    -0.389 OA
ATOM     34  H   UNL     1      -5.235 -12.082  20.250  0.00  0.00    +0.210 HD
ENDBRANCH  11   2
TORSDOF 9
ENDMDL
MODEL 7
REMARK VINA RESULT:      -6.2      2.993     10.258
REMARK  Name = 11866295
REMARK  12 active torsions:
REMARK  status: ('A' for Active; 'I' for Inactive)
REMARK    1  A    between atoms: O_1  and  C_10
REMARK    2  A    between atoms: O_2  and  C_11
REMARK    3  A    between atoms: N_6  and  C_12
REMARK    4  A    between atoms: N_7  and  C_16
REMARK    5  A    between atoms: N_8  and  C_24
REMARK    6  A    between atoms: C_14  and  C_17
REMARK    7  A    between atoms: C_16  and  C_18
REMARK    8  A    between atoms: C_16  and  C_23
REMARK    9  A    between atoms: C_18  and  C_19
REMARK   10  A    between atoms: C_19  and  C_21
REMARK   11  A    between atoms: C_19  and  C_22
REMARK   12  A    between atoms: C_29  and  C_30
REMARK                            x       y       z     vdW  Elec       q    Type
REMARK                         _______ _______ _______ _____ _____    ______ ____
ROOT
ATOM     10  C   UNL     1      17.926  10.130  21.610  0.00  0.00    +0.167 C 
ATOM     11  C   UNL     1      16.883  11.179  22.014  0.00  0.00    +0.149 C 
ATOM     12  C   UNL     1      17.267   8.785  21.248  0.00  0.00    +0.129 C 
ATOM     13  C   UNL     1      15.818  11.384  20.923  0.00  0.00    +0.074 C 
ATOM     14  C   UNL     1      15.411  10.110  20.239  0.00  0.00    +0.015 C 
ATOM     15  C   UNL     1      16.045   8.937  20.383  0.00  0.00    +0.006 C 
ENDROOT
BRANCH  12   6
ATOM      4  O   UNL     1      19.355   7.270  22.492  0.00  0.00    -0.252 OA
ATOM      6  N   UNL     1      18.195   7.897  20.594  0.00  0.00    -0.290 N 
ATOM      8  N   UNL     1      19.935   6.412  20.386  0.00  0.00    -0.269 N 
ATOM     20  C   UNL     1      19.191   7.190  21.277  0.00  0.00    +0.304 C 
ATOM     31  H   UNL     1      18.160   7.817  19.580  0.00  0.00    +0.151 HD
ATOM     35  H   UNL     1      19.667   6.459  19.405  0.00  0.00    +0.156 HD
BRANCH   8  24
ATOM     24  C   UNL     1      21.024   5.558  20.678  0.00  0.00    +0.035 A 
ATOM     25  C   UNL     1      22.310   6.085  20.800  0.00  0.00    +0.023 A 
ATOM     26  C   UNL     1      20.812   4.189  20.843  0.00  0.00    +0.023 A 
ATOM     27  C   UNL     1      23.384   5.242  21.088  0.00  0.00    +0.005 A 
ATOM     28  C   UNL     1      21.886   3.347  21.131  0.00  0.00    +0.005 A 
ATOM     29  C   UNL     1      23.172   3.874  21.254  0.00  0.00    -0.050 A 
ATOM     30  C   UNL     1      24.321   2.974  21.563  0.00  0.00    +0.044 C 
ENDBRANCH   8  24
ENDBRANCH  12   6
BRANCH  14  17
ATOM      3  O   UNL     1      14.139  10.958  18.465  0.00  0.00    -0.271 OA
ATOM      7  N   UNL     1      13.293   9.177  19.710  0.00  0.00    -0.300 N 
ATOM     17  C   UNL     1      14.228  10.139  19.373  0.00  0.00    +0.241 C 
ATOM     32  H   UNL     1      13.510   8.506  20.441  0.00  0.00    +0.150 HD
BRANCH   7  16
ATOM     16  C   UNL     1      12.048   9.013  19.004  0.00  0.00    +0.159 C 
BRANCH  16  23
ATOM      5  O   UNL     1      12.405   8.165  16.753  0.00  0.00    -0.274 OA
ATOM      9  N   UNL     1      12.360   6.669  18.494  0.00  0.00    -0.328 N 
ATOM     23  C   UNL     1      12.271   7.934  17.952  0.00  0.00    +0.231 C 
ATOM     36  H   UNL     1      12.521   5.860  17.904  0.00  0.00    +0.145 HD
ATOM     37  H   UNL     1      12.270   6.494  19.490  0.00  0.00    +0.145 HD
ENDBRANCH  16  23
BRANCH  16  18
ATOM     18  C   UNL     1      10.898   8.615  19.937  0.00  0.00    +0.034 C 
BRANCH  18  19
ATOM     19  C   UNL     1      11.314   8.353  21.400  0.00  0.00    -0.015 C 
ATOM     21  C   UNL     1      10.680   9.347  22.373  0.00  0.00    +0.007 C 
ATOM     22  C   UNL     1      10.929   6.925  21.797  0.00  0.00    +0.007 C 
ENDBRANCH  18  19
ENDBRANCH  16  18
ENDBRANCH   7  16
ENDBRANCH  14  17
BRANCH  10   1
ATOM      1  O   UNL     1      18.662  10.621  20.487  0.00  0.00    -0.387 OA
ATOM     33  H   UNL     1      19.575  10.298  20.570  0.00  0.00    +0.210 HD
ENDBRANCH  10   1
BRANCH  11   2
ATOM      2  O   UNL     1      16.259  10.804  23.241  0.00  0.00    -0.389 OA
ATOM     34  H   UNL     1      15.334  11.101  23.203  0.00  0.00    +0.210 HD
ENDBRANCH  11   2
TORSDOF 9
ENDMDL
MODEL 8
REMARK VINA RESULT:      -6.2     17.584     20.787
REMARK  Name = 11866295
REMARK  12 active torsions:
REMARK  status: ('A' for Active; 'I' for Inactive)
REMARK    1  A    between atoms: O_1  and  C_10
REMARK    2  A    between atoms: O_2  and  C_11
REMARK    3  A    between atoms: N_6  and  C_12
REMARK    4  A    between atoms: N_7  and  C_16
REMARK    5  A    between atoms: N_8  and  C_24
REMARK    6  A    between atoms: C_14  and  C_17
REMARK    7  A    between atoms: C_16  and  C_18
REMARK    8  A    between atoms: C_16  and  C_23
REMARK    9  A    between atoms: C_18  and  C_19
REMARK   10  A    between atoms: C_19  and  C_21
REMARK   11  A    between atoms: C_19  and  C_22
REMARK   12  A    between atoms: C_29  and  C_30
REMARK                            x       y       z     vdW  Elec       q    Type
REMARK                         _______ _______ _______ _____ _____    ______ ____
ROOT
ATOM     10  C   UNL     1      15.062   4.226   1.237  0.00  0.00    +0.167 C 
ATOM     11  C   UNL     1      14.006   3.587   0.327  0.00  0.00    +0.149 C 
ATOM     12  C   UNL     1      14.544   5.528   1.879  0.00  0.00    +0.129 C 
ATOM     13  C   UNL     1      12.685   3.325   1.070  0.00  0.00    +0.074 C 
ATOM     14  C   UNL     1      12.318   4.416   2.036  0.00  0.00    +0.015 C 
ATOM     15  C   UNL     1      13.137   5.413   2.400  0.00  0.00    +0.006 C 
ENDROOT
BRANCH  12   6
ATOM      4  O   UNL     1      15.313   8.228   2.446  0.00  0.00    -0.252 OA
ATOM      6  N   UNL     1      15.403   5.973   2.947  0.00  0.00    -0.290 N 
ATOM      8  N   UNL     1      16.578   7.445   4.262  0.00  0.00    -0.269 N 
ATOM     20  C   UNL     1      15.732   7.317   3.157  0.00  0.00    +0.304 C 
ATOM     31  H   UNL     1      15.834   5.275   3.548  0.00  0.00    +0.151 HD
ATOM     35  H   UNL     1      16.830   6.586   4.746  0.00  0.00    +0.156 HD
BRANCH   8  24
ATOM     24  C   UNL     1      17.132   8.631   4.799  0.00  0.00    +0.035 A 
ATOM     25  C   UNL     1      18.411   9.036   4.420  0.00  0.00    +0.023 A 
ATOM     26  C   UNL     1      16.399   9.393   5.709  0.00  0.00    +0.023 A 
ATOM     27  C   UNL     1      18.958  10.205   4.950  0.00  0.00    +0.005 A 
ATOM     28  C   UNL     1      16.946  10.562   6.239  0.00  0.00    +0.005 A 
ATOM     29  C   UNL     1      18.225  10.968   5.859  0.00  0.00    -0.050 A 
ATOM     30  C   UNL     1      18.810  12.218   6.425  0.00  0.00    +0.044 C 
ENDBRANCH   8  24
ENDBRANCH  12   6
BRANCH  14  17
ATOM      3  O   UNL     1      10.013   4.010   1.945  0.00  0.00    -0.271 OA
ATOM      7  N   UNL     1      10.929   4.882   3.905  0.00  0.00    -0.300 N 
ATOM     17  C   UNL     1      10.967   4.407   2.606  0.00  0.00    +0.241 C 
ATOM     32  H   UNL     1      11.799   5.117   4.374  0.00  0.00    +0.150 HD
BRANCH   7  16
ATOM     16  C   UNL     1       9.714   4.970   4.672  0.00  0.00    +0.159 C 
BRANCH  16  23
ATOM      5  O   UNL     1      10.368   5.669   6.907  0.00  0.00    -0.274 OA
ATOM      9  N   UNL     1      10.040   3.431   6.509  0.00  0.00    -0.328 N 
ATOM     23  C   UNL     1      10.091   4.757   6.132  0.00  0.00    +0.231 C 
ATOM     36  H   UNL     1      10.255   3.152   7.460  0.00  0.00    +0.145 HD
ATOM     37  H   UNL     1       9.787   2.689   5.863  0.00  0.00    +0.145 HD
ENDBRANCH  16  23
BRANCH  16  18
ATOM     18  C   UNL     1       9.013   6.324   4.497  0.00  0.00    +0.034 C 
BRANCH  18  19
ATOM     19  C   UNL     1       9.868   7.410   3.811  0.00  0.00    -0.015 C 
ATOM     21  C   UNL     1       9.248   7.899   2.501  0.00  0.00    +0.007 C 
ATOM     22  C   UNL     1      10.060   8.593   4.764  0.00  0.00    +0.007 C 
ENDBRANCH  18  19
ENDBRANCH  16  18
ENDBRANCH   7  16
ENDBRANCH  14  17
BRANCH  10   1
ATOM      1  O   UNL     1      15.413   3.293   2.261  0.00  0.00    -0.387 OA
ATOM     33  H   UNL     1      16.197   2.805   1.956  0.00  0.00    +0.210 HD
ENDBRANCH  10   1
BRANCH  11   2
ATOM      2  O   UNL     1      13.771   4.416  -0.810  0.00  0.00    -0.389 OA
ATOM     34  H   UNL     1      13.396   3.855  -1.510  0.00  0.00    +0.210 HD
ENDBRANCH  11   2
TORSDOF 9
ENDMDL
MODEL 9
REMARK VINA RESULT:      -6.2     30.864     34.779
REMARK  Name = 11866295
REMARK  12 active torsions:
REMARK  status: ('A' for Active; 'I' for Inactive)
REMARK    1  A    between atoms: O_1  and  C_10
REMARK    2  A    between atoms: O_2  and  C_11
REMARK    3  A    between atoms: N_6  and  C_12
REMARK    4  A    between atoms: N_7  and  C_16
REMARK    5  A    between atoms: N_8  and  C_24
REMARK    6  A    between atoms: C_14  and  C_17
REMARK    7  A    between atoms: C_16  and  C_18
REMARK    8  A    between atoms: C_16  and  C_23
REMARK    9  A    between atoms: C_18  and  C_19
REMARK   10  A    between atoms: C_19  and  C_21
REMARK   11  A    between atoms: C_19  and  C_22
REMARK   12  A    between atoms: C_29  and  C_30
REMARK                            x       y       z     vdW  Elec       q    Type
REMARK                         _______ _______ _______ _____ _____    ______ ____
ROOT
ATOM     10  C   UNL     1     -11.640  -6.976  16.351  0.00  0.00    +0.167 C 
ATOM     11  C   UNL     1     -13.075  -6.601  15.964  0.00  0.00    +0.149 C 
ATOM     12  C   UNL     1     -11.051  -8.028  15.392  0.00  0.00    +0.129 C 
ATOM     13  C   UNL     1     -13.172  -6.110  14.510  0.00  0.00    +0.074 C 
ATOM     14  C   UNL     1     -12.288  -6.871  13.562  0.00  0.00    +0.015 C 
ATOM     15  C   UNL     1     -11.341  -7.740  13.943  0.00  0.00    +0.006 C 
ENDROOT
BRANCH  12   6
ATOM      4  O   UNL     1      -9.707  -9.886  17.109  0.00  0.00    -0.252 OA
ATOM      6  N   UNL     1      -9.626  -8.167  15.564  0.00  0.00    -0.290 N 
ATOM      8  N   UNL     1      -7.653  -9.008  16.387  0.00  0.00    -0.269 N 
ATOM     20  C   UNL     1      -9.047  -9.104  16.427  0.00  0.00    +0.304 C 
ATOM     31  H   UNL     1      -9.012  -7.521  15.077  0.00  0.00    +0.151 HD
ATOM     35  H   UNL     1      -7.262  -8.304  15.765  0.00  0.00    +0.156 HD
BRANCH   8  24
ATOM     24  C   UNL     1      -6.708  -9.774  17.108  0.00  0.00    +0.035 A 
ATOM     25  C   UNL     1      -5.565 -10.254  16.468  0.00  0.00    +0.023 A 
ATOM     26  C   UNL     1      -6.919 -10.051  18.459  0.00  0.00    +0.023 A 
ATOM     27  C   UNL     1      -4.633 -11.010  17.179  0.00  0.00    +0.005 A 
ATOM     28  C   UNL     1      -5.987 -10.807  19.170  0.00  0.00    +0.005 A 
ATOM     29  C   UNL     1      -4.843 -11.286  18.529  0.00  0.00    -0.050 A 
ATOM     30  C   UNL     1      -3.846 -12.093  19.290  0.00  0.00    +0.044 C 
ENDBRANCH   8  24
ENDBRANCH  12   6
BRANCH  14  17
ATOM      3  O   UNL     1     -12.719  -7.622  11.387  0.00  0.00    -0.271 OA
ATOM      7  N   UNL     1     -12.369  -5.344  11.746  0.00  0.00    -0.300 N 
ATOM     17  C   UNL     1     -12.484  -6.671  12.124  0.00  0.00    +0.241 C 
ATOM     32  H   UNL     1     -12.241  -4.633  12.460  0.00  0.00    +0.150 HD
BRANCH   7  16
ATOM     16  C   UNL     1     -12.519  -4.902  10.384  0.00  0.00    +0.159 C 
BRANCH  16  23
ATOM      5  O   UNL     1     -13.907  -3.172  11.381  0.00  0.00    -0.274 OA
ATOM      9  N   UNL     1     -14.114  -3.584   9.131  0.00  0.00    -0.328 N 
ATOM     23  C   UNL     1     -13.584  -3.813  10.383  0.00  0.00    +0.231 C 
ATOM     36  H   UNL     1     -14.824  -2.874   8.988  0.00  0.00    +0.145 HD
ATOM     37  H   UNL     1     -13.822  -4.105   8.311  0.00  0.00    +0.145 HD
ENDBRANCH  16  23
BRANCH  16  18
ATOM     18  C   UNL     1     -11.207  -4.362   9.799  0.00  0.00    +0.034 C 
BRANCH  18  19
ATOM     19  C   UNL     1     -10.780  -5.009   8.465  0.00  0.00    -0.015 C 
ATOM     21  C   UNL     1      -9.307  -5.422   8.463  0.00  0.00    +0.007 C 
ATOM     22  C   UNL     1     -11.659  -6.230   8.180  0.00  0.00    +0.007 C 
ENDBRANCH  18  19
ENDBRANCH  16  18
ENDBRANCH   7  16
ENDBRANCH  14  17
BRANCH  10   1
ATOM      1  O   UNL     1     -10.833  -5.797  16.323  0.00  0.00    -0.387 OA
ATOM     33  H   UNL     1     -10.037  -5.999  15.802  0.00  0.00    +0.210 HD
ENDBRANCH  10   1
BRANCH  11   2
ATOM      2  O   UNL     1     -13.944  -7.715  16.162  0.00  0.00    -0.389 OA
ATOM     34  H   UNL     1     -13.391  -8.510  16.240  0.00  0.00    +0.210 HD
ENDBRANCH  11   2
TORSDOF 9
ENDMDL
MODEL 10
REMARK VINA RESULT:      -6.1      1.264      2.205
REMARK  Name = 11866295
REMARK  12 active torsions:
REMARK  status: ('A' for Active; 'I' for Inactive)
REMARK    1  A    between atoms: O_1  and  C_10
REMARK    2  A    between atoms: O_2  and  C_11
REMARK    3  A    between atoms: N_6  and  C_12
REMARK    4  A    between atoms: N_7  and  C_16
REMARK    5  A    between atoms: N_8  and  C_24
REMARK    6  A    between atoms: C_14  and  C_17
REMARK    7  A    between atoms: C_16  and  C_18
REMARK    8  A    between atoms: C_16  and  C_23
REMARK    9  A    between atoms: C_18  and  C_19
REMARK   10  A    between atoms: C_19  and  C_21
REMARK   11  A    between atoms: C_19  and  C_22
REMARK   12  A    between atoms: C_29  and  C_30
REMARK                            x       y       z     vdW  Elec       q    Type
REMARK                         _______ _______ _______ _____ _____    ______ ____
ROOT
ATOM     10  C   UNL     1      20.330   7.514  23.434  0.00  0.00    +0.167 C 
ATOM     11  C   UNL     1      21.857   7.620  23.511  0.00  0.00    +0.149 C 
ATOM     12  C   UNL     1      19.867   6.996  22.059  0.00  0.00    +0.129 C 
ATOM     13  C   UNL     1      22.547   6.285  23.185  0.00  0.00    +0.074 C 
ATOM     14  C   UNL     1      21.879   5.523  22.075  0.00  0.00    +0.015 C 
ATOM     15  C   UNL     1      20.683   5.836  21.555  0.00  0.00    +0.006 C 
ENDROOT
BRANCH  12   6
ATOM      4  O   UNL     1      17.694   8.402  20.831  0.00  0.00    -0.252 OA
ATOM      6  N   UNL     1      18.476   6.616  22.074  0.00  0.00    -0.290 N 
ATOM      8  N   UNL     1      16.227   6.752  21.628  0.00  0.00    -0.269 N 
ATOM     20  C   UNL     1      17.471   7.362  21.446  0.00  0.00    +0.304 C 
ATOM     31  H   UNL     1      18.201   5.796  22.608  0.00  0.00    +0.151 HD
ATOM     35  H   UNL     1      16.215   5.889  22.166  0.00  0.00    +0.156 HD
BRANCH   8  24
ATOM     24  C   UNL     1      14.968   7.189  21.153  0.00  0.00    +0.035 A 
ATOM     25  C   UNL     1      14.570   6.886  19.852  0.00  0.00    +0.023 A 
ATOM     26  C   UNL     1      14.125   7.925  21.987  0.00  0.00    +0.023 A 
ATOM     27  C   UNL     1      13.329   7.317  19.383  0.00  0.00    +0.005 A 
ATOM     28  C   UNL     1      12.884   8.356  21.519  0.00  0.00    +0.005 A 
ATOM     29  C   UNL     1      12.486   8.051  20.217  0.00  0.00    -0.050 A 
ATOM     30  C   UNL     1      11.158   8.512  19.716  0.00  0.00    +0.044 C 
ENDBRANCH   8  24
ENDBRANCH  12   6
BRANCH  14  17
ATOM      3  O   UNL     1      21.974   3.501  20.897  0.00  0.00    -0.271 OA
ATOM      7  N   UNL     1      23.950   4.412  21.737  0.00  0.00    -0.300 N 
ATOM     17  C   UNL     1      22.586   4.374  21.504  0.00  0.00    +0.241 C 
ATOM     32  H   UNL     1      24.354   5.226  22.193  0.00  0.00    +0.150 HD
BRANCH   7  16
ATOM     16  C   UNL     1      24.853   3.391  21.274  0.00  0.00    +0.159 C 
BRANCH  16  23
ATOM      5  O   UNL     1      24.286   1.840  23.059  0.00  0.00    -0.274 OA
ATOM      9  N   UNL     1      23.977   1.171  20.883  0.00  0.00    -0.328 N 
ATOM     23  C   UNL     1      24.367   2.070  21.854  0.00  0.00    +0.231 C 
ATOM     36  H   UNL     1      23.620   0.256  21.135  0.00  0.00    +0.145 HD
ATOM     37  H   UNL     1      24.029   1.382  19.892  0.00  0.00    +0.145 HD
ENDBRANCH  16  23
BRANCH  16  18
ATOM     18  C   UNL     1      24.906   3.312  19.743  0.00  0.00    +0.034 C 
BRANCH  18  19
ATOM     19  C   UNL     1      26.228   3.802  19.116  0.00  0.00    -0.015 C 
ATOM     21  C   UNL     1      26.265   5.322  18.949  0.00  0.00    +0.007 C 
ATOM     22  C   UNL     1      27.408   3.350  19.982  0.00  0.00    +0.007 C 
ENDBRANCH  18  19
ENDBRANCH  16  18
ENDBRANCH   7  16
ENDBRANCH  14  17
BRANCH  10   1
ATOM      1  O   UNL     1      19.878   6.625  24.458  0.00  0.00    -0.387 OA
ATOM     33  H   UNL     1      20.666   6.235  24.875  0.00  0.00    +0.210 HD
ENDBRANCH  10   1
BRANCH  11   2
ATOM      2  O   UNL     1      22.324   8.639  22.628  0.00  0.00    -0.389 OA
ATOM     34  H   UNL     1      21.640   8.778  21.951  0.00  0.00    +0.210 HD
ENDBRANCH  11   2
TORSDOF 9
ENDMDL
