MODEL 1
REMARK VINA RESULT:      -6.5      0.000      0.000
REMARK  Name = 25338983
REMARK  8 active torsions:
REMARK  status: ('A' for Active; 'I' for Inactive)
REMARK    1  A    between atoms: O_2  and  C_16
REMARK    2  A    between atoms: O_2  and  C_26
REMARK    3  A    between atoms: O_5  and  C_27
REMARK    4  A    between atoms: O_5  and  C_31
REMARK    5  A    between atoms: N_7  and  C_14
REMARK    6  A    between atoms: C_9  and  C_16
REMARK    7  A    between atoms: C_14  and  C_18
REMARK    8  A    between atoms: C_17  and  C_19
REMARK                            x       y       z     vdW  Elec       q    Type
REMARK                         _______ _______ _______ _____ _____    ______ ____
ROOT
ATOM      4  O   UNL     1      11.788   8.584  22.539  0.00  0.00    -0.270 OA
ATOM      6  N   UNL     1      13.017   8.856  20.560  0.00  0.00    -0.278 N 
ATOM      7  N   UNL     1      14.190   9.764  17.121  0.00  0.00    -0.328 N 
ATOM      8  N   UNL     1      13.559   7.691  16.584  0.00  0.00    -0.240 NA
ATOM      9  C   UNL     1      13.129   7.390  20.336  0.00  0.00    +0.191 C 
ATOM     10  C   UNL     1      12.834   6.941  18.888  0.00  0.00    +0.091 C 
ATOM     11  C   UNL     1      13.756   9.183  18.275  0.00  0.00    +0.059 A 
ATOM     12  C   UNL     1      13.717   9.782  19.623  0.00  0.00    +0.164 C 
ATOM     13  C   UNL     1      13.379   7.913  17.920  0.00  0.00    +0.066 A 
ATOM     15  C   UNL     1      14.051   8.826  16.130  0.00  0.00    +0.200 A 
ATOM     17  C   UNL     1      12.379   9.298  21.731  0.00  0.00    +0.248 C 
ENDROOT
BRANCH  17  19
ATOM      1  F   UNL     1      12.501  14.773  22.897  0.00  0.00    -0.205 F 
ATOM     19  C   UNL     1      12.411  10.735  22.038  0.00  0.00    +0.037 A 
ATOM     22  C   UNL     1      13.455  11.263  22.798  0.00  0.00    +0.016 A 
ATOM     23  C   UNL     1      11.398  11.571  21.568  0.00  0.00    +0.016 A 
ATOM     28  C   UNL     1      13.486  12.627  23.088  0.00  0.00    +0.039 A 
ATOM     29  C   UNL     1      11.428  12.935  21.859  0.00  0.00    +0.039 A 
ATOM     30  C   UNL     1      12.472  13.463  22.620  0.00  0.00    +0.123 A 
ENDBRANCH  17  19
BRANCH   9  16
ATOM      3  O   UNL     1      15.029   7.386  21.819  0.00  0.00    -0.249 OA
ATOM     16  C   UNL     1      14.513   7.009  20.776  0.00  0.00    +0.328 C 
BRANCH  16   2
ATOM      2  O   UNL     1      15.081   6.194  19.841  0.00  0.00    -0.467 OA
ATOM     26  C   UNL     1      16.447   6.477  19.527  0.00  0.00    +0.280 C 
ENDBRANCH  16   2
ENDBRANCH   9  16
BRANCH   7  14
ATOM     14  C   UNL     1      14.705  11.102  16.956  0.00  0.00    +0.158 C 
BRANCH  14  18
ATOM     18  C   UNL     1      14.905  11.491  15.512  0.00  0.00    -0.028 A 
ATOM     20  C   UNL     1      13.831  11.970  14.763  0.00  0.00    +0.009 A 
ATOM     21  C   UNL     1      16.166  11.372  14.928  0.00  0.00    +0.009 A 
ATOM     24  C   UNL     1      14.017  12.330  13.428  0.00  0.00    +0.046 A 
ATOM     25  C   UNL     1      16.352  11.732  13.593  0.00  0.00    +0.046 A 
ATOM     27  C   UNL     1      15.278  12.210  12.843  0.00  0.00    +0.120 A 
BRANCH  27   5
ATOM      5  O   UNL     1      15.459  12.563  11.541  0.00  0.00    -0.495 OA
ATOM     31  C   UNL     1      16.778  12.432  11.010  0.00  0.00    +0.277 C 
ENDBRANCH  27   5
ENDBRANCH  14  18
ENDBRANCH   7  14
TORSDOF 6
ENDMDL
MODEL 2
REMARK VINA RESULT:      -6.5     12.815     16.099
REMARK  Name = 25338983
REMARK  8 active torsions:
REMARK  status: ('A' for Active; 'I' for Inactive)
REMARK    1  A    between atoms: O_2  and  C_16
REMARK    2  A    between atoms: O_2  and  C_26
REMARK    3  A    between atoms: O_5  and  C_27
REMARK    4  A    between atoms: O_5  and  C_31
REMARK    5  A    between atoms: N_7  and  C_14
REMARK    6  A    between atoms: C_9  and  C_16
REMARK    7  A    between atoms: C_14  and  C_18
REMARK    8  A    between atoms: C_17  and  C_19
REMARK                            x       y       z     vdW  Elec       q    Type
REMARK                         _______ _______ _______ _____ _____    ______ ____
ROOT
ATOM      4  O   UNL     1       9.795   5.692   1.163  0.00  0.00    -0.270 OA
ATOM      6  N   UNL     1      10.327   6.403   3.333  0.00  0.00    -0.278 N 
ATOM      7  N   UNL     1      11.180   6.591   6.975  0.00  0.00    -0.328 N 
ATOM      8  N   UNL     1       9.000   6.990   7.252  0.00  0.00    -0.240 NA
ATOM      9  C   UNL     1       9.071   7.186   3.469  0.00  0.00    +0.191 C 
ATOM     10  C   UNL     1       8.335   6.985   4.812  0.00  0.00    +0.091 C 
ATOM     11  C   UNL     1      10.634   6.626   5.727  0.00  0.00    +0.059 A 
ATOM     12  C   UNL     1      11.329   6.454   4.438  0.00  0.00    +0.164 C 
ATOM     13  C   UNL     1       9.300   6.876   5.924  0.00  0.00    +0.066 A 
ATOM     15  C   UNL     1      10.156   6.814   7.861  0.00  0.00    +0.200 A 
ATOM     17  C   UNL     1      10.580   5.767   2.106  0.00  0.00    +0.248 C 
ENDROOT
BRANCH  17  19
ATOM      1  F   UNL     1      15.573   3.343   1.365  0.00  0.00    -0.205 F 
ATOM     19  C   UNL     1      11.891   5.131   1.911  0.00  0.00    +0.037 A 
ATOM     22  C   UNL     1      13.030   5.918   1.746  0.00  0.00    +0.016 A 
ATOM     23  C   UNL     1      11.995   3.740   1.893  0.00  0.00    +0.016 A 
ATOM     28  C   UNL     1      14.274   5.315   1.562  0.00  0.00    +0.039 A 
ATOM     29  C   UNL     1      13.239   3.136   1.707  0.00  0.00    +0.039 A 
ATOM     30  C   UNL     1      14.379   3.924   1.542  0.00  0.00    +0.123 A 
ENDBRANCH  17  19
BRANCH   9  16
ATOM      3  O   UNL     1      10.165   9.004   2.324  0.00  0.00    -0.249 OA
ATOM     16  C   UNL     1       9.452   8.621   3.242  0.00  0.00    +0.328 C 
BRANCH  16   2
ATOM      2  O   UNL     1       8.884   9.402   4.205  0.00  0.00    -0.467 OA
ATOM     26  C   UNL     1       9.735  10.407   4.763  0.00  0.00    +0.280 C 
ENDBRANCH  16   2
ENDBRANCH   9  16
BRANCH   7  14
ATOM     14  C   UNL     1      12.563   6.368   7.319  0.00  0.00    +0.158 C 
BRANCH  14  18
ATOM     18  C   UNL     1      13.468   7.510   6.927  0.00  0.00    -0.028 A 
ATOM     20  C   UNL     1      13.002   8.822   6.992  0.00  0.00    +0.009 A 
ATOM     21  C   UNL     1      14.771   7.251   6.501  0.00  0.00    +0.009 A 
ATOM     24  C   UNL     1      13.840   9.879   6.631  0.00  0.00    +0.046 A 
ATOM     25  C   UNL     1      15.608   8.307   6.140  0.00  0.00    +0.046 A 
ATOM     27  C   UNL     1      15.143   9.620   6.203  0.00  0.00    +0.120 A 
BRANCH  27   5
ATOM      5  O   UNL     1      15.960  10.650   5.852  0.00  0.00    -0.495 OA
ATOM     31  C   UNL     1      16.433  11.491   6.903  0.00  0.00    +0.277 C 
ENDBRANCH  27   5
ENDBRANCH  14  18
ENDBRANCH   7  14
TORSDOF 6
ENDMDL
MODEL 3
REMARK VINA RESULT:      -6.4      2.238      2.926
REMARK  Name = 25338983
REMARK  8 active torsions:
REMARK  status: ('A' for Active; 'I' for Inactive)
REMARK    1  A    between atoms: O_2  and  C_16
REMARK    2  A    between atoms: O_2  and  C_26
REMARK    3  A    between atoms: O_5  and  C_27
REMARK    4  A    between atoms: O_5  and  C_31
REMARK    5  A    between atoms: N_7  and  C_14
REMARK    6  A    between atoms: C_9  and  C_16
REMARK    7  A    between atoms: C_14  and  C_18
REMARK    8  A    between atoms: C_17  and  C_19
REMARK                            x       y       z     vdW  Elec       q    Type
REMARK                         _______ _______ _______ _____ _____    ______ ____
ROOT
ATOM      4  O   UNL     1      12.654   7.609  21.843  0.00  0.00    -0.270 OA
ATOM      6  N   UNL     1      13.619   8.584  19.940  0.00  0.00    -0.278 N 
ATOM      7  N   UNL     1      14.265  10.472  16.771  0.00  0.00    -0.328 N 
ATOM      8  N   UNL     1      14.042   8.481  15.784  0.00  0.00    -0.240 NA
ATOM      9  C   UNL     1      14.018   7.269  19.373  0.00  0.00    +0.191 C 
ATOM     10  C   UNL     1      13.699   7.096  17.873  0.00  0.00    +0.091 C 
ATOM     11  C   UNL     1      14.067   9.567  17.771  0.00  0.00    +0.059 A 
ATOM     12  C   UNL     1      14.021   9.828  19.222  0.00  0.00    +0.164 C 
ATOM     13  C   UNL     1      13.937   8.356  17.140  0.00  0.00    +0.066 A 
ATOM     15  C   UNL     1      14.240   9.770  15.592  0.00  0.00    +0.200 A 
ATOM     17  C   UNL     1      13.007   8.599  21.205  0.00  0.00    +0.248 C 
ENDROOT
BRANCH  17  19
ATOM      1  F   UNL     1      12.071  13.560  23.627  0.00  0.00    -0.205 F 
ATOM     19  C   UNL     1      12.761   9.902  21.840  0.00  0.00    +0.037 A 
ATOM     22  C   UNL     1      11.541  10.551  21.652  0.00  0.00    +0.016 A 
ATOM     23  C   UNL     1      13.748  10.489  22.632  0.00  0.00    +0.016 A 
ATOM     28  C   UNL     1      11.307  11.786  22.255  0.00  0.00    +0.039 A 
ATOM     29  C   UNL     1      13.515  11.725  23.235  0.00  0.00    +0.039 A 
ATOM     30  C   UNL     1      12.294  12.374  23.046  0.00  0.00    +0.123 A 
ENDBRANCH  17  19
BRANCH   9  16
ATOM      3  O   UNL     1      16.079   7.746  20.530  0.00  0.00    -0.249 OA
ATOM     16  C   UNL     1      15.485   7.123  19.660  0.00  0.00    +0.328 C 
BRANCH  16   2
ATOM      2  O   UNL     1      16.027   6.205  18.809  0.00  0.00    -0.467 OA
ATOM     26  C   UNL     1      17.390   5.857  19.068  0.00  0.00    +0.280 C 
ENDBRANCH  16   2
ENDBRANCH   9  16
BRANCH   7  14
ATOM     14  C   UNL     1      14.467  11.894  16.906  0.00  0.00    +0.158 C 
BRANCH  14  18
ATOM     18  C   UNL     1      15.921  12.285  17.004  0.00  0.00    -0.028 A 
ATOM     20  C   UNL     1      16.487  12.558  18.248  0.00  0.00    +0.009 A 
ATOM     21  C   UNL     1      16.697  12.371  15.849  0.00  0.00    +0.009 A 
ATOM     24  C   UNL     1      17.832  12.919  18.339  0.00  0.00    +0.046 A 
ATOM     25  C   UNL     1      18.042  12.732  15.939  0.00  0.00    +0.046 A 
ATOM     27  C   UNL     1      18.609  13.007  17.183  0.00  0.00    +0.120 A 
BRANCH  27   5
ATOM      5  O   UNL     1      19.921  13.357  17.271  0.00  0.00    -0.495 OA
ATOM     31  C   UNL     1      20.885  12.321  17.084  0.00  0.00    +0.277 C 
ENDBRANCH  27   5
ENDBRANCH  14  18
ENDBRANCH   7  14
TORSDOF 6
ENDMDL
MODEL 4
REMARK VINA RESULT:      -6.4      3.188      7.019
REMARK  Name = 25338983
REMARK  8 active torsions:
REMARK  status: ('A' for Active; 'I' for Inactive)
REMARK    1  A    between atoms: O_2  and  C_16
REMARK    2  A    between atoms: O_2  and  C_26
REMARK    3  A    between atoms: O_5  and  C_27
REMARK    4  A    between atoms: O_5  and  C_31
REMARK    5  A    between atoms: N_7  and  C_14
REMARK    6  A    between atoms: C_9  and  C_16
REMARK    7  A    between atoms: C_14  and  C_18
REMARK    8  A    between atoms: C_17  and  C_19
REMARK                            x       y       z     vdW  Elec       q    Type
REMARK                         _______ _______ _______ _____ _____    ______ ____
ROOT
ATOM      4  O   UNL     1      13.180  13.337  18.584  0.00  0.00    -0.270 OA
ATOM      6  N   UNL     1      13.654  11.176  19.360  0.00  0.00    -0.278 N 
ATOM      7  N   UNL     1      13.873   7.468  19.843  0.00  0.00    -0.328 N 
ATOM      8  N   UNL     1      12.245   7.776  21.340  0.00  0.00    -0.240 NA
ATOM      9  C   UNL     1      13.019  11.426  20.680  0.00  0.00    +0.191 C 
ATOM     10  C   UNL     1      12.086  10.295  21.165  0.00  0.00    +0.091 C 
ATOM     11  C   UNL     1      13.643   8.811  19.889  0.00  0.00    +0.059 A 
ATOM     12  C   UNL     1      14.331   9.867  19.124  0.00  0.00    +0.164 C 
ATOM     13  C   UNL     1      12.645   8.973  20.816  0.00  0.00    +0.066 A 
ATOM     15  C   UNL     1      13.006   6.887  20.733  0.00  0.00    +0.200 A 
ATOM     17  C   UNL     1      13.716  12.240  18.444  0.00  0.00    +0.248 C 
ENDROOT
BRANCH  17  19
ATOM      1  F   UNL     1      16.647  11.500  13.731  0.00  0.00    -0.205 F 
ATOM     19  C   UNL     1      14.486  12.046  17.207  0.00  0.00    +0.037 A 
ATOM     22  C   UNL     1      15.788  12.535  17.112  0.00  0.00    +0.016 A 
ATOM     23  C   UNL     1      13.914  11.372  16.128  0.00  0.00    +0.016 A 
ATOM     28  C   UNL     1      16.519  12.350  15.939  0.00  0.00    +0.039 A 
ATOM     29  C   UNL     1      14.644  11.188  14.954  0.00  0.00    +0.039 A 
ATOM     30  C   UNL     1      15.947  11.678  14.859  0.00  0.00    +0.123 A 
ENDBRANCH  17  19
BRANCH   9  16
ATOM      3  O   UNL     1      15.212  12.193  21.325  0.00  0.00    -0.249 OA
ATOM     16  C   UNL     1      14.146  11.681  21.639  0.00  0.00    +0.328 C 
BRANCH  16   2
ATOM      2  O   UNL     1      13.789  11.256  22.886  0.00  0.00    -0.467 OA
ATOM     26  C   UNL     1      14.772  11.450  23.906  0.00  0.00    +0.280 C 
ENDBRANCH  16   2
ENDBRANCH   9  16
BRANCH   7  14
ATOM     14  C   UNL     1      14.839   6.775  19.026  0.00  0.00    +0.158 C 
BRANCH  14  18
ATOM     18  C   UNL     1      16.204   6.681  19.663  0.00  0.00    -0.028 A 
ATOM     20  C   UNL     1      16.501   7.446  20.790  0.00  0.00    +0.009 A 
ATOM     21  C   UNL     1      17.166   5.829  19.123  0.00  0.00    +0.009 A 
ATOM     24  C   UNL     1      17.763   7.359  21.379  0.00  0.00    +0.046 A 
ATOM     25  C   UNL     1      18.428   5.742  19.712  0.00  0.00    +0.046 A 
ATOM     27  C   UNL     1      18.727   6.507  20.839  0.00  0.00    +0.120 A 
BRANCH  27   5
ATOM      5  O   UNL     1      19.957   6.421  21.415  0.00  0.00    -0.495 OA
ATOM     31  C   UNL     1      20.031   6.628  22.825  0.00  0.00    +0.277 C 
ENDBRANCH  27   5
ENDBRANCH  14  18
ENDBRANCH   7  14
TORSDOF 6
ENDMDL
MODEL 5
REMARK VINA RESULT:      -6.4      3.181      5.630
REMARK  Name = 25338983
REMARK  8 active torsions:
REMARK  status: ('A' for Active; 'I' for Inactive)
REMARK    1  A    between atoms: O_2  and  C_16
REMARK    2  A    between atoms: O_2  and  C_26
REMARK    3  A    between atoms: O_5  and  C_27
REMARK    4  A    between atoms: O_5  and  C_31
REMARK    5  A    between atoms: N_7  and  C_14
REMARK    6  A    between atoms: C_9  and  C_16
REMARK    7  A    between atoms: C_14  and  C_18
REMARK    8  A    between atoms: C_17  and  C_19
REMARK                            x       y       z     vdW  Elec       q    Type
REMARK                         _______ _______ _______ _____ _____    ______ ____
ROOT
ATOM      4  O   UNL     1      12.910  13.894  21.465  0.00  0.00    -0.270 OA
ATOM      6  N   UNL     1      12.713  11.575  21.753  0.00  0.00    -0.278 N 
ATOM      7  N   UNL     1      11.925   7.933  21.377  0.00  0.00    -0.328 N 
ATOM      8  N   UNL     1      10.231   8.369  22.764  0.00  0.00    -0.240 NA
ATOM      9  C   UNL     1      11.980  11.719  23.038  0.00  0.00    +0.191 C 
ATOM     10  C   UNL     1      10.735  10.815  23.168  0.00  0.00    +0.091 C 
ATOM     11  C   UNL     1      12.035   9.249  21.715  0.00  0.00    +0.059 A 
ATOM     12  C   UNL     1      13.067  10.206  21.277  0.00  0.00    +0.164 C 
ATOM     13  C   UNL     1      10.988   9.489  22.568  0.00  0.00    +0.066 A 
ATOM     15  C   UNL     1      10.823   7.446  22.032  0.00  0.00    +0.200 A 
ATOM     17  C   UNL     1      13.169  12.743  21.119  0.00  0.00    +0.248 C 
ENDROOT
BRANCH  17  19
ATOM      1  F   UNL     1      16.464  12.196  16.626  0.00  0.00    -0.205 F 
ATOM     19  C   UNL     1      14.033  12.599  19.939  0.00  0.00    +0.037 A 
ATOM     22  C   UNL     1      13.470  12.524  18.665  0.00  0.00    +0.016 A 
ATOM     23  C   UNL     1      15.419  12.539  20.093  0.00  0.00    +0.016 A 
ATOM     28  C   UNL     1      14.290  12.388  17.546  0.00  0.00    +0.039 A 
ATOM     29  C   UNL     1      16.240  12.402  18.973  0.00  0.00    +0.039 A 
ATOM     30  C   UNL     1      15.675  12.326  17.699  0.00  0.00    +0.123 A 
ENDBRANCH  17  19
BRANCH   9  16
ATOM      3  O   UNL     1      14.143  11.113  23.913  0.00  0.00    -0.249 OA
ATOM     16  C   UNL     1      12.987  11.453  24.121  0.00  0.00    +0.328 C 
BRANCH  16   2
ATOM      2  O   UNL     1      12.408  11.651  25.340  0.00  0.00    -0.467 OA
ATOM     26  C   UNL     1      12.261  13.018  25.736  0.00  0.00    +0.280 C 
ENDBRANCH  16   2
ENDBRANCH   9  16
BRANCH   7  14
ATOM     14  C   UNL     1      12.793   7.180  20.504  0.00  0.00    +0.158 C 
BRANCH  14  18
ATOM     18  C   UNL     1      12.941   7.794  19.133  0.00  0.00    -0.028 A 
ATOM     20  C   UNL     1      11.810   8.187  18.419  0.00  0.00    +0.009 A 
ATOM     21  C   UNL     1      14.211   7.967  18.583  0.00  0.00    +0.009 A 
ATOM     24  C   UNL     1      11.948   8.754  17.151  0.00  0.00    +0.046 A 
ATOM     25  C   UNL     1      14.349   8.535  17.315  0.00  0.00    +0.046 A 
ATOM     27  C   UNL     1      13.218   8.928  16.600  0.00  0.00    +0.120 A 
BRANCH  27   5
ATOM      5  O   UNL     1      13.352   9.483  15.364  0.00  0.00    -0.495 OA
ATOM     31  C   UNL     1      14.653   9.942  14.996  0.00  0.00    +0.277 C 
ENDBRANCH  27   5
ENDBRANCH  14  18
ENDBRANCH   7  14
TORSDOF 6
ENDMDL
MODEL 6
REMARK VINA RESULT:      -6.3     27.148     29.775
REMARK  Name = 25338983
REMARK  8 active torsions:
REMARK  status: ('A' for Active; 'I' for Inactive)
REMARK    1  A    between atoms: O_2  and  C_16
REMARK    2  A    between atoms: O_2  and  C_26
REMARK    3  A    between atoms: O_5  and  C_27
REMARK    4  A    between atoms: O_5  and  C_31
REMARK    5  A    between atoms: N_7  and  C_14
REMARK    6  A    between atoms: C_9  and  C_16
REMARK    7  A    between atoms: C_14  and  C_18
REMARK    8  A    between atoms: C_17  and  C_19
REMARK                            x       y       z     vdW  Elec       q    Type
REMARK                         _______ _______ _______ _____ _____    ______ ____
ROOT
ATOM      4  O   UNL     1      -1.456 -10.390  11.639  0.00  0.00    -0.270 OA
ATOM      6  N   UNL     1      -3.162 -10.737  13.210  0.00  0.00    -0.278 N 
ATOM      7  N   UNL     1      -6.024 -10.346  15.594  0.00  0.00    -0.328 N 
ATOM      8  N   UNL     1      -4.436 -10.258  17.161  0.00  0.00    -0.240 NA
ATOM      9  C   UNL     1      -2.215 -11.222  14.248  0.00  0.00    +0.191 C 
ATOM     10  C   UNL     1      -2.439 -10.618  15.651  0.00  0.00    +0.091 C 
ATOM     11  C   UNL     1      -4.838 -10.528  14.949  0.00  0.00    +0.059 A 
ATOM     12  C   UNL     1      -4.624 -10.754  13.507  0.00  0.00    +0.164 C 
ATOM     13  C   UNL     1      -3.882 -10.473  15.931  0.00  0.00    +0.066 A 
ATOM     15  C   UNL     1      -5.731 -10.186  16.925  0.00  0.00    +0.200 A 
ATOM     17  C   UNL     1      -2.648 -10.421  11.942  0.00  0.00    +0.248 C 
ENDROOT
BRANCH  17  19
ATOM      1  F   UNL     1      -6.269  -9.199   7.849  0.00  0.00    -0.205 F 
ATOM     19  C   UNL     1      -3.599 -10.099  10.868  0.00  0.00    +0.037 A 
ATOM     22  C   UNL     1      -4.037  -8.787  10.693  0.00  0.00    +0.016 A 
ATOM     23  C   UNL     1      -4.062 -11.108  10.022  0.00  0.00    +0.016 A 
ATOM     28  C   UNL     1      -4.939  -8.482   9.674  0.00  0.00    +0.039 A 
ATOM     29  C   UNL     1      -4.965 -10.803   9.003  0.00  0.00    +0.039 A 
ATOM     30  C   UNL     1      -5.403  -9.490   8.829  0.00  0.00    +0.123 A 
ENDBRANCH  17  19
BRANCH   9  16
ATOM      3  O   UNL     1      -3.194 -13.337  14.865  0.00  0.00    -0.249 OA
ATOM     16  C   UNL     1      -2.335 -12.719  14.250  0.00  0.00    +0.328 C 
BRANCH  16   2
ATOM      2  O   UNL     1      -1.353 -13.257  13.471  0.00  0.00    -0.467 OA
ATOM     26  C   UNL     1      -1.311 -14.686  13.434  0.00  0.00    +0.280 C 
ENDBRANCH  16   2
ENDBRANCH   9  16
BRANCH   7  14
ATOM     14  C   UNL     1      -7.343 -10.326  15.009  0.00  0.00    +0.158 C 
BRANCH  14  18
ATOM     18  C   UNL     1      -8.442 -10.099  16.018  0.00  0.00    -0.028 A 
ATOM     20  C   UNL     1      -9.125 -11.185  16.562  0.00  0.00    +0.009 A 
ATOM     21  C   UNL     1      -8.772  -8.800  16.406  0.00  0.00    +0.009 A 
ATOM     24  C   UNL     1     -10.141 -10.974  17.495  0.00  0.00    +0.046 A 
ATOM     25  C   UNL     1      -9.787  -8.589  17.340  0.00  0.00    +0.046 A 
ATOM     27  C   UNL     1     -10.472  -9.676  17.883  0.00  0.00    +0.120 A 
BRANCH  27   5
ATOM      5  O   UNL     1     -11.462  -9.470  18.795  0.00  0.00    -0.495 OA
ATOM     31  C   UNL     1     -11.378 -10.198  20.020  0.00  0.00    +0.277 C 
ENDBRANCH  27   5
ENDBRANCH  14  18
ENDBRANCH   7  14
TORSDOF 6
ENDMDL
MODEL 7
REMARK VINA RESULT:      -6.3      3.195      6.885
REMARK  Name = 25338983
REMARK  8 active torsions:
REMARK  status: ('A' for Active; 'I' for Inactive)
REMARK    1  A    between atoms: O_2  and  C_16
REMARK    2  A    between atoms: O_2  and  C_26
REMARK    3  A    between atoms: O_5  and  C_27
REMARK    4  A    between atoms: O_5  and  C_31
REMARK    5  A    between atoms: N_7  and  C_14
REMARK    6  A    between atoms: C_9  and  C_16
REMARK    7  A    between atoms: C_14  and  C_18
REMARK    8  A    between atoms: C_17  and  C_19
REMARK                            x       y       z     vdW  Elec       q    Type
REMARK                         _______ _______ _______ _____ _____    ______ ____
ROOT
ATOM      4  O   UNL     1      13.340  13.499  18.999  0.00  0.00    -0.270 OA
ATOM      6  N   UNL     1      13.016  11.391  19.975  0.00  0.00    -0.278 N 
ATOM      7  N   UNL     1      11.859   7.930  20.819  0.00  0.00    -0.328 N 
ATOM      8  N   UNL     1      10.556   8.955  22.315  0.00  0.00    -0.240 NA
ATOM      9  C   UNL     1      12.599  11.972  21.278  0.00  0.00    +0.191 C 
ATOM     10  C   UNL     1      11.342  11.322  21.895  0.00  0.00    +0.091 C 
ATOM     11  C   UNL     1      12.152   9.259  20.737  0.00  0.00    +0.059 A 
ATOM     12  C   UNL     1      13.139   9.909  19.856  0.00  0.00    +0.164 C 
ATOM     13  C   UNL     1      11.343   9.864  21.666  0.00  0.00    +0.066 A 
ATOM     15  C   UNL     1      10.892   7.797  21.782  0.00  0.00    +0.200 A 
ATOM     17  C   UNL     1      13.418  12.272  18.957  0.00  0.00    +0.248 C 
ENDROOT
BRANCH  17  19
ATOM      1  F   UNL     1      15.581  10.094  14.275  0.00  0.00    -0.205 F 
ATOM     19  C   UNL     1      13.986  11.699  17.728  0.00  0.00    +0.037 A 
ATOM     22  C   UNL     1      13.377  10.600  17.125  0.00  0.00    +0.016 A 
ATOM     23  C   UNL     1      15.133  12.257  17.165  0.00  0.00    +0.016 A 
ATOM     28  C   UNL     1      13.915  10.057  15.958  0.00  0.00    +0.039 A 
ATOM     29  C   UNL     1      15.673  11.714  15.999  0.00  0.00    +0.039 A 
ATOM     30  C   UNL     1      15.063  10.614  15.395  0.00  0.00    +0.123 A 
ENDBRANCH  17  19
BRANCH   9  16
ATOM      3  O   UNL     1      14.949  12.031  21.815  0.00  0.00    -0.249 OA
ATOM     16  C   UNL     1      13.794  11.861  22.182  0.00  0.00    +0.328 C 
BRANCH  16   2
ATOM      2  O   UNL     1      13.384  11.548  23.444  0.00  0.00    -0.467 OA
ATOM     26  C   UNL     1      14.376  11.685  24.465  0.00  0.00    +0.280 C 
ENDBRANCH  16   2
ENDBRANCH   9  16
BRANCH   7  14
ATOM     14  C   UNL     1      12.446   6.858  20.054  0.00  0.00    +0.158 C 
BRANCH  14  18
ATOM     18  C   UNL     1      13.953   6.824  20.128  0.00  0.00    -0.028 A 
ATOM     20  C   UNL     1      14.591   6.844  21.368  0.00  0.00    +0.009 A 
ATOM     21  C   UNL     1      14.706   6.773  18.955  0.00  0.00    +0.009 A 
ATOM     24  C   UNL     1      15.984   6.813  21.436  0.00  0.00    +0.046 A 
ATOM     25  C   UNL     1      16.100   6.742  19.024  0.00  0.00    +0.046 A 
ATOM     27  C   UNL     1      16.738   6.763  20.263  0.00  0.00    +0.120 A 
BRANCH  27   5
ATOM      5  O   UNL     1      18.098   6.731  20.330  0.00  0.00    -0.495 OA
ATOM     31  C   UNL     1      18.686   6.809  21.628  0.00  0.00    +0.277 C 
ENDBRANCH  27   5
ENDBRANCH  14  18
ENDBRANCH   7  14
TORSDOF 6
ENDMDL
MODEL 8
REMARK VINA RESULT:      -6.1     27.237     29.443
REMARK  Name = 25338983
REMARK  8 active torsions:
REMARK  status: ('A' for Active; 'I' for Inactive)
REMARK    1  A    between atoms: O_2  and  C_16
REMARK    2  A    between atoms: O_2  and  C_26
REMARK    3  A    between atoms: O_5  and  C_27
REMARK    4  A    between atoms: O_5  and  C_31
REMARK    5  A    between atoms: N_7  and  C_14
REMARK    6  A    between atoms: C_9  and  C_16
REMARK    7  A    between atoms: C_14  and  C_18
REMARK    8  A    between atoms: C_17  and  C_19
REMARK                            x       y       z     vdW  Elec       q    Type
REMARK                         _______ _______ _______ _____ _____    ______ ____
ROOT
ATOM      4  O   UNL     1      -4.477 -10.654  18.276  0.00  0.00    -0.270 OA
ATOM      6  N   UNL     1      -6.253 -10.692  16.744  0.00  0.00    -0.278 N 
ATOM      7  N   UNL     1      -8.561 -10.074  13.861  0.00  0.00    -0.328 N 
ATOM      8  N   UNL     1      -9.673  -8.775  15.297  0.00  0.00    -0.240 NA
ATOM      9  C   UNL     1      -7.253 -10.310  17.776  0.00  0.00    +0.191 C 
ATOM     10  C   UNL     1      -8.236  -9.204  17.334  0.00  0.00    +0.091 C 
ATOM     11  C   UNL     1      -7.914 -10.182  15.055  0.00  0.00    +0.059 A 
ATOM     12  C   UNL     1      -6.726 -10.999  15.363  0.00  0.00    +0.164 C 
ATOM     13  C   UNL     1      -8.616  -9.379  15.918  0.00  0.00    +0.066 A 
ATOM     15  C   UNL     1      -9.613  -9.215  14.056  0.00  0.00    +0.200 A 
ATOM     17  C   UNL     1      -4.924 -10.889  17.154  0.00  0.00    +0.248 C 
ENDROOT
BRANCH  17  19
ATOM      1  F   UNL     1      -1.282 -12.930  13.423  0.00  0.00    -0.205 F 
ATOM     19  C   UNL     1      -3.967 -11.424  16.174  0.00  0.00    +0.037 A 
ATOM     22  C   UNL     1      -2.832 -10.689  15.834  0.00  0.00    +0.016 A 
ATOM     23  C   UNL     1      -4.195 -12.668  15.586  0.00  0.00    +0.016 A 
ATOM     28  C   UNL     1      -1.925 -11.197  14.905  0.00  0.00    +0.039 A 
ATOM     29  C   UNL     1      -3.288 -13.176  14.656  0.00  0.00    +0.039 A 
ATOM     30  C   UNL     1      -2.152 -12.440  14.315  0.00  0.00    +0.123 A 
ENDBRANCH  17  19
BRANCH   9  16
ATOM      3  O   UNL     1      -7.440 -12.686  18.140  0.00  0.00    -0.249 OA
ATOM     16  C   UNL     1      -7.962 -11.580  18.153  0.00  0.00    +0.328 C 
BRANCH  16   2
ATOM      2  O   UNL     1      -9.249 -11.296  18.503  0.00  0.00    -0.467 OA
ATOM     26  C   UNL     1      -9.597 -11.589  19.859  0.00  0.00    +0.280 C 
ENDBRANCH  16   2
ENDBRANCH   9  16
BRANCH   7  14
ATOM     14  C   UNL     1      -8.224 -10.732  12.622  0.00  0.00    +0.158 C 
BRANCH  14  18
ATOM     18  C   UNL     1      -6.855 -10.367  12.104  0.00  0.00    -0.028 A 
ATOM     20  C   UNL     1      -6.602  -9.071  11.654  0.00  0.00    +0.009 A 
ATOM     21  C   UNL     1      -5.843 -11.326  12.076  0.00  0.00    +0.009 A 
ATOM     24  C   UNL     1      -5.336  -8.734  11.176  0.00  0.00    +0.046 A 
ATOM     25  C   UNL     1      -4.576 -10.988  11.597  0.00  0.00    +0.046 A 
ATOM     27  C   UNL     1      -4.323  -9.693  11.146  0.00  0.00    +0.120 A 
BRANCH  27   5
ATOM      5  O   UNL     1      -3.087  -9.363  10.681  0.00  0.00    -0.495 OA
ATOM     31  C   UNL     1      -1.966  -9.933  11.355  0.00  0.00    +0.277 C 
ENDBRANCH  27   5
ENDBRANCH  14  18
ENDBRANCH   7  14
TORSDOF 6
ENDMDL
MODEL 9
REMARK VINA RESULT:      -6.1     28.336     31.259
REMARK  Name = 25338983
REMARK  8 active torsions:
REMARK  status: ('A' for Active; 'I' for Inactive)
REMARK    1  A    between atoms: O_2  and  C_16
REMARK    2  A    between atoms: O_2  and  C_26
REMARK    3  A    between atoms: O_5  and  C_27
REMARK    4  A    between atoms: O_5  and  C_31
REMARK    5  A    between atoms: N_7  and  C_14
REMARK    6  A    between atoms: C_9  and  C_16
REMARK    7  A    between atoms: C_14  and  C_18
REMARK    8  A    between atoms: C_17  and  C_19
REMARK                            x       y       z     vdW  Elec       q    Type
REMARK                         _______ _______ _______ _____ _____    ______ ____
ROOT
ATOM      4  O   UNL     1      -7.144 -12.613   4.683  0.00  0.00    -0.270 OA
ATOM      6  N   UNL     1      -6.479 -10.929   6.174  0.00  0.00    -0.278 N 
ATOM      7  N   UNL     1      -5.256  -8.992   9.137  0.00  0.00    -0.328 N 
ATOM      8  N   UNL     1      -7.425  -8.678   9.565  0.00  0.00    -0.240 NA
ATOM      9  C   UNL     1      -7.812 -10.273   6.151  0.00  0.00    +0.191 C 
ATOM     10  C   UNL     1      -8.354  -9.877   7.541  0.00  0.00    +0.091 C 
ATOM     11  C   UNL     1      -5.939  -9.587   8.119  0.00  0.00    +0.059 A 
ATOM     12  C   UNL     1      -5.377 -10.290   6.950  0.00  0.00    +0.164 C 
ATOM     13  C   UNL     1      -7.264  -9.378   8.403  0.00  0.00    +0.066 A 
ATOM     15  C   UNL     1      -6.195  -8.459   9.984  0.00  0.00    +0.200 A 
ATOM     17  C   UNL     1      -6.277 -12.045   5.344  0.00  0.00    +0.248 C 
ENDROOT
BRANCH  17  19
ATOM      1  F   UNL     1      -1.099 -14.140   4.952  0.00  0.00    -0.205 F 
ATOM     19  C   UNL     1      -4.917 -12.595   5.241  0.00  0.00    +0.037 A 
ATOM     22  C   UNL     1      -4.070 -12.173   4.216  0.00  0.00    +0.016 A 
ATOM     23  C   UNL     1      -4.475 -13.539   6.168  0.00  0.00    +0.016 A 
ATOM     28  C   UNL     1      -2.781 -12.694   4.118  0.00  0.00    +0.039 A 
ATOM     29  C   UNL     1      -3.185 -14.061   6.069  0.00  0.00    +0.039 A 
ATOM     30  C   UNL     1      -2.338 -13.639   5.044  0.00  0.00    +0.123 A 
ENDBRANCH  17  19
BRANCH   9  16
ATOM      3  O   UNL     1      -7.675  -7.925   5.620  0.00  0.00    -0.249 OA
ATOM     16  C   UNL     1      -7.673  -9.088   5.239  0.00  0.00    +0.328 C 
BRANCH  16   2
ATOM      2  O   UNL     1      -7.549  -9.516   3.950  0.00  0.00    -0.467 OA
ATOM     26  C   UNL     1      -7.939  -8.573   2.948  0.00  0.00    +0.280 C 
ENDBRANCH  16   2
ENDBRANCH   9  16
BRANCH   7  14
ATOM     14  C   UNL     1      -3.825  -8.921   9.306  0.00  0.00    +0.158 C 
BRANCH  14  18
ATOM     18  C   UNL     1      -3.291  -9.919  10.304  0.00  0.00    -0.028 A 
ATOM     20  C   UNL     1      -3.799 -11.216  10.334  0.00  0.00    +0.009 A 
ATOM     21  C   UNL     1      -2.287  -9.541  11.195  0.00  0.00    +0.009 A 
ATOM     24  C   UNL     1      -3.304 -12.139  11.256  0.00  0.00    +0.046 A 
ATOM     25  C   UNL     1      -1.792 -10.463  12.118  0.00  0.00    +0.046 A 
ATOM     27  C   UNL     1      -2.301 -11.761  12.149  0.00  0.00    +0.120 A 
BRANCH  27   5
ATOM      5  O   UNL     1      -1.817 -12.661  13.048  0.00  0.00    -0.495 OA
ATOM     31  C   UNL     1      -1.782 -12.258  14.417  0.00  0.00    +0.277 C 
ENDBRANCH  27   5
ENDBRANCH  14  18
ENDBRANCH   7  14
TORSDOF 6
ENDMDL
MODEL 10
REMARK VINA RESULT:      -6.0      6.507     10.069
REMARK  Name = 25338983
REMARK  8 active torsions:
REMARK  status: ('A' for Active; 'I' for Inactive)
REMARK    1  A    between atoms: O_2  and  C_16
REMARK    2  A    between atoms: O_2  and  C_26
REMARK    3  A    between atoms: O_5  and  C_27
REMARK    4  A    between atoms: O_5  and  C_31
REMARK    5  A    between atoms: N_7  and  C_14
REMARK    6  A    between atoms: C_9  and  C_16
REMARK    7  A    between atoms: C_14  and  C_18
REMARK    8  A    between atoms: C_17  and  C_19
REMARK                            x       y       z     vdW  Elec       q    Type
REMARK                         _______ _______ _______ _____ _____    ______ ____
ROOT
ATOM      4  O   UNL     1      23.713   6.977  23.983  0.00  0.00    -0.270 OA
ATOM      6  N   UNL     1      21.486   7.282  23.313  0.00  0.00    -0.278 N 
ATOM      7  N   UNL     1      18.336   7.868  21.375  0.00  0.00    -0.328 N 
ATOM      8  N   UNL     1      18.533   9.974  22.091  0.00  0.00    -0.240 NA
ATOM      9  C   UNL     1      21.303   8.467  24.191  0.00  0.00    +0.191 C 
ATOM     10  C   UNL     1      20.603   9.664  23.512  0.00  0.00    +0.091 C 
ATOM     11  C   UNL     1      19.433   7.897  22.184  0.00  0.00    +0.059 A 
ATOM     12  C   UNL     1      20.317   6.772  22.540  0.00  0.00    +0.164 C 
ATOM     13  C   UNL     1      19.529   9.197  22.612  0.00  0.00    +0.066 A 
ATOM     15  C   UNL     1      17.828   9.142  21.350  0.00  0.00    +0.200 A 
ATOM     17  C   UNL     1      22.717   6.607  23.365  0.00  0.00    +0.248 C 
ENDROOT
BRANCH  17  19
ATOM      1  F   UNL     1      23.208   1.795  20.544  0.00  0.00    -0.205 F 
ATOM     19  C   UNL     1      22.846   5.343  22.625  0.00  0.00    +0.037 A 
ATOM     22  C   UNL     1      22.472   4.141  23.225  0.00  0.00    +0.016 A 
ATOM     23  C   UNL     1      23.342   5.346  21.321  0.00  0.00    +0.016 A 
ATOM     28  C   UNL     1      22.593   2.943  22.523  0.00  0.00    +0.039 A 
ATOM     29  C   UNL     1      23.465   4.147  20.618  0.00  0.00    +0.039 A 
ATOM     30  C   UNL     1      23.091   2.945  21.219  0.00  0.00    +0.123 A 
ENDBRANCH  17  19
BRANCH   9  16
ATOM      3  O   UNL     1      20.242   6.808  25.582  0.00  0.00    -0.249 OA
ATOM     16  C   UNL     1      20.547   7.978  25.394  0.00  0.00    +0.328 C 
BRANCH  16   2
ATOM      2  O   UNL     1      20.267   9.030  26.215  0.00  0.00    -0.467 OA
ATOM     26  C   UNL     1      19.845   8.682  27.537  0.00  0.00    +0.280 C 
ENDBRANCH  16   2
ENDBRANCH   9  16
BRANCH   7  14
ATOM     14  C   UNL     1      17.795   6.726  20.678  0.00  0.00    +0.158 C 
BRANCH  14  18
ATOM     18  C   UNL     1      16.311   6.828  20.425  0.00  0.00    -0.028 A 
ATOM     20  C   UNL     1      15.825   6.830  19.118  0.00  0.00    +0.009 A 
ATOM     21  C   UNL     1      15.426   6.919  21.499  0.00  0.00    +0.009 A 
ATOM     24  C   UNL     1      14.452   6.924  18.884  0.00  0.00    +0.046 A 
ATOM     25  C   UNL     1      14.054   7.013  21.266  0.00  0.00    +0.046 A 
ATOM     27  C   UNL     1      13.567   7.017  19.959  0.00  0.00    +0.120 A 
BRANCH  27   5
ATOM      5  O   UNL     1      12.228   7.107  19.731  0.00  0.00    -0.495 OA
ATOM     31  C   UNL     1      11.384   7.259  20.872  0.00  0.00    +0.277 C 
ENDBRANCH  27   5
ENDBRANCH  14  18
ENDBRANCH   7  14
TORSDOF 6
ENDMDL
