MODEL 1
REMARK VINA RESULT:      -6.5      0.000      0.000
REMARK  Name = 75536725
REMARK  8 active torsions:
REMARK  status: ('A' for Active; 'I' for Inactive)
REMARK    1  A    between atoms: O_2  and  C_9
REMARK    2  A    between atoms: N_4  and  C_8
REMARK    3  A    between atoms: N_4  and  C_10
REMARK    4  A    between atoms: N_6  and  C_17
REMARK    5  A    between atoms: N_7  and  C_19
REMARK    6  A    between atoms: C_11  and  C_17
REMARK    7  A    between atoms: C_19  and  C_20
REMARK    8  A    between atoms: C_19  and  C_21
REMARK                            x       y       z     vdW  Elec       q    Type
REMARK                         _______ _______ _______ _____ _____    ______ ____
ROOT
ATOM      1  O   UNL     1      11.479   6.917  20.283  0.00  0.00    -0.371 OA
ATOM      8  C   UNL     1      13.852   6.920  20.370  0.00  0.00    +0.111 C 
ATOM      9  C   UNL     1      13.321   7.967  21.331  0.00  0.00    +0.164 C 
ATOM     11  C   UNL     1      11.895   7.476  21.541  0.00  0.00    +0.165 C 
ATOM     12  C   UNL     1      12.646   6.695  19.473  0.00  0.00    +0.181 C 
ENDROOT
BRANCH   9   2
ATOM      2  O   UNL     1      14.047   8.014  22.544  0.00  0.00    -0.388 OA
ATOM     24  H   UNL     1      13.499   8.459  23.212  0.00  0.00    +0.210 HD
ENDBRANCH   9   2
BRANCH   8   4
ATOM      4  N   UNL     1      15.032   7.347  19.635  0.00  0.00    -0.306 NA
ATOM     22  H   UNL     1      15.164   8.353  19.737  0.00  0.00    +0.123 HD
BRANCH   4  10
ATOM      5  N   UNL     1      19.131   6.293  20.074  0.00  0.00    -0.316 NA
ATOM     10  C   UNL     1      16.221   6.642  20.108  0.00  0.00    +0.056 C 
ATOM     13  C   UNL     1      17.166   7.595  20.849  0.00  0.00    +0.034 C 
ATOM     14  C   UNL     1      16.950   5.983  18.932  0.00  0.00    +0.034 C 
ATOM     15  C   UNL     1      18.463   6.882  21.237  0.00  0.00    +0.082 C 
ATOM     16  C   UNL     1      18.255   5.333  19.396  0.00  0.00    +0.082 C 
ATOM     23  H   UNL     1      19.979   5.816  20.379  0.00  0.00    +0.122 HD
ENDBRANCH   4  10
ENDBRANCH   8   4
BRANCH  11  17
ATOM     17  C   UNL     1      10.936   8.578  21.955  0.00  0.00    +0.140 C 
BRANCH  17   6
ATOM      3  O   UNL     1      11.010  11.433  22.372  0.00  0.00    -0.253 OA
ATOM      6  N   UNL     1      11.407   9.269  23.121  0.00  0.00    -0.297 N 
ATOM      7  N   UNL     1      11.919  11.066  24.476  0.00  0.00    -0.297 N 
ATOM     18  C   UNL     1      11.410  10.662  23.244  0.00  0.00    +0.300 C 
ATOM     25  H   UNL     1      11.772   8.717  23.891  0.00  0.00    +0.150 HD
ATOM     26  H   UNL     1      12.153  10.352  25.159  0.00  0.00    +0.150 HD
BRANCH   7  19
ATOM     19  C   UNL     1      12.032  12.453  24.858  0.00  0.00    +0.068 C 
ATOM     20  C   UNL     1      13.203  12.646  25.813  0.00  0.00    +0.027 C 
ATOM     21  C   UNL     1      10.729  12.945  25.476  0.00  0.00    +0.027 C 
ENDBRANCH   7  19
ENDBRANCH  17   6
ENDBRANCH  11  17
TORSDOF 6
ENDMDL
MODEL 2
REMARK VINA RESULT:      -6.3      1.700      7.371
REMARK  Name = 75536725
REMARK  8 active torsions:
REMARK  status: ('A' for Active; 'I' for Inactive)
REMARK    1  A    between atoms: O_2  and  C_9
REMARK    2  A    between atoms: N_4  and  C_8
REMARK    3  A    between atoms: N_4  and  C_10
REMARK    4  A    between atoms: N_6  and  C_17
REMARK    5  A    between atoms: N_7  and  C_19
REMARK    6  A    between atoms: C_11  and  C_17
REMARK    7  A    between atoms: C_19  and  C_20
REMARK    8  A    between atoms: C_19  and  C_21
REMARK                            x       y       z     vdW  Elec       q    Type
REMARK                         _______ _______ _______ _____ _____    ______ ____
ROOT
ATOM      1  O   UNL     1      10.657   7.103  21.179  0.00  0.00    -0.371 OA
ATOM      8  C   UNL     1      11.252   9.211  22.098  0.00  0.00    +0.111 C 
ATOM      9  C   UNL     1      12.347   8.757  21.150  0.00  0.00    +0.164 C 
ATOM     11  C   UNL     1      11.597   7.743  20.298  0.00  0.00    +0.165 C 
ATOM     12  C   UNL     1      10.527   7.903  22.367  0.00  0.00    +0.181 C 
ENDROOT
BRANCH   9   2
ATOM      2  O   UNL     1      12.869   9.817  20.372  0.00  0.00    -0.388 OA
ATOM     24  H   UNL     1      12.328   9.902  19.569  0.00  0.00    +0.210 HD
ENDBRANCH   9   2
BRANCH   8   4
ATOM      4  N   UNL     1      11.752   9.840  23.309  0.00  0.00    -0.306 NA
ATOM     22  H   UNL     1      12.742  10.064  23.206  0.00  0.00    +0.123 HD
BRANCH   4  10
ATOM      5  N   UNL     1      10.975  13.906  24.296  0.00  0.00    -0.316 NA
ATOM     10  C   UNL     1      11.000  11.056  23.609  0.00  0.00    +0.056 C 
ATOM     13  C   UNL     1      11.283  12.148  22.572  0.00  0.00    +0.034 C 
ATOM     14  C   UNL     1      11.346  11.560  25.015  0.00  0.00    +0.034 C 
ATOM     15  C   UNL     1      10.589  13.457  22.955  0.00  0.00    +0.082 C 
ATOM     16  C   UNL     1      10.649  12.892  25.302  0.00  0.00    +0.082 C 
ATOM     23  H   UNL     1      10.479  14.769  24.516  0.00  0.00    +0.122 HD
ENDBRANCH   4  10
ENDBRANCH   8   4
BRANCH  11  17
ATOM     17  C   UNL     1      12.503   6.700  19.670  0.00  0.00    +0.140 C 
BRANCH  17   6
ATOM      3  O   UNL     1      15.088   7.412  18.602  0.00  0.00    -0.253 OA
ATOM      6  N   UNL     1      13.767   6.631  20.346  0.00  0.00    -0.297 N 
ATOM      7  N   UNL     1      16.048   6.831  20.633  0.00  0.00    -0.297 N 
ATOM     18  C   UNL     1      14.980   6.996  19.755  0.00  0.00    +0.300 C 
ATOM     25  H   UNL     1      13.782   6.284  21.300  0.00  0.00    +0.150 HD
ATOM     26  H   UNL     1      15.848   6.553  21.589  0.00  0.00    +0.150 HD
BRANCH   7  19
ATOM     19  C   UNL     1      17.412   7.136  20.272  0.00  0.00    +0.068 C 
ATOM     20  C   UNL     1      18.111   5.891  19.742  0.00  0.00    +0.027 C 
ATOM     21  C   UNL     1      18.160   7.725  21.461  0.00  0.00    +0.027 C 
ENDBRANCH   7  19
ENDBRANCH  17   6
ENDBRANCH  11  17
TORSDOF 6
ENDMDL
MODEL 3
REMARK VINA RESULT:      -6.3     28.320     30.708
REMARK  Name = 75536725
REMARK  8 active torsions:
REMARK  status: ('A' for Active; 'I' for Inactive)
REMARK    1  A    between atoms: O_2  and  C_9
REMARK    2  A    between atoms: N_4  and  C_8
REMARK    3  A    between atoms: N_4  and  C_10
REMARK    4  A    between atoms: N_6  and  C_17
REMARK    5  A    between atoms: N_7  and  C_19
REMARK    6  A    between atoms: C_11  and  C_17
REMARK    7  A    between atoms: C_19  and  C_20
REMARK    8  A    between atoms: C_19  and  C_21
REMARK                            x       y       z     vdW  Elec       q    Type
REMARK                         _______ _______ _______ _____ _____    ______ ____
ROOT
ATOM      1  O   UNL     1     -16.172   0.641  28.100  0.00  0.00    -0.371 OA
ATOM      8  C   UNL     1     -14.943   1.984  29.627  0.00  0.00    +0.111 C 
ATOM      9  C   UNL     1     -15.303   2.819  28.413  0.00  0.00    +0.164 C 
ATOM     11  C   UNL     1     -16.472   2.024  27.846  0.00  0.00    +0.165 C 
ATOM     12  C   UNL     1     -15.129   0.574  29.089  0.00  0.00    +0.181 C 
ENDROOT
BRANCH   9   2
ATOM      2  O   UNL     1     -15.679   4.140  28.751  0.00  0.00    -0.388 OA
ATOM     24  H   UNL     1     -16.234   4.494  28.035  0.00  0.00    +0.210 HD
ENDBRANCH   9   2
BRANCH   8   4
ATOM      4  N   UNL     1     -13.600   2.227  30.125  0.00  0.00    -0.306 NA
ATOM     22  H   UNL     1     -13.191   3.034  29.655  0.00  0.00    +0.123 HD
BRANCH   4  10
ATOM      5  N   UNL     1     -15.109   3.066  34.014  0.00  0.00    -0.316 NA
ATOM     10  C   UNL     1     -13.614   2.451  31.569  0.00  0.00    +0.056 C 
ATOM     13  C   UNL     1     -14.483   1.407  32.278  0.00  0.00    +0.034 C 
ATOM     14  C   UNL     1     -14.124   3.863  31.881  0.00  0.00    +0.034 C 
ATOM     15  C   UNL     1     -14.594   1.715  33.773  0.00  0.00    +0.082 C 
ATOM     16  C   UNL     1     -14.249   4.075  33.391  0.00  0.00    +0.082 C 
ATOM     23  H   UNL     1     -15.151   3.234  35.019  0.00  0.00    +0.122 HD
ENDBRANCH   4  10
ENDBRANCH   8   4
BRANCH  11  17
ATOM     17  C   UNL     1     -16.677   2.239  26.357  0.00  0.00    +0.140 C 
BRANCH  17   6
ATOM      3  O   UNL     1     -16.146   2.917  23.602  0.00  0.00    -0.253 OA
ATOM      6  N   UNL     1     -15.885   3.333  25.873  0.00  0.00    -0.297 N 
ATOM      7  N   UNL     1     -14.871   4.715  24.328  0.00  0.00    -0.297 N 
ATOM     18  C   UNL     1     -15.676   3.594  24.516  0.00  0.00    +0.300 C 
ATOM     25  H   UNL     1     -15.442   3.942  26.554  0.00  0.00    +0.150 HD
ATOM     26  H   UNL     1     -14.594   5.252  25.144  0.00  0.00    +0.150 HD
BRANCH   7  19
ATOM     19  C   UNL     1     -14.501   5.201  23.020  0.00  0.00    +0.068 C 
ATOM     20  C   UNL     1     -13.035   4.900  22.738  0.00  0.00    +0.027 C 
ATOM     21  C   UNL     1     -14.790   6.693  22.904  0.00  0.00    +0.027 C 
ENDBRANCH   7  19
ENDBRANCH  17   6
ENDBRANCH  11  17
TORSDOF 6
ENDMDL
MODEL 4
REMARK VINA RESULT:      -6.2      3.636      7.280
REMARK  Name = 75536725
REMARK  8 active torsions:
REMARK  status: ('A' for Active; 'I' for Inactive)
REMARK    1  A    between atoms: O_2  and  C_9
REMARK    2  A    between atoms: N_4  and  C_8
REMARK    3  A    between atoms: N_4  and  C_10
REMARK    4  A    between atoms: N_6  and  C_17
REMARK    5  A    between atoms: N_7  and  C_19
REMARK    6  A    between atoms: C_11  and  C_17
REMARK    7  A    between atoms: C_19  and  C_20
REMARK    8  A    between atoms: C_19  and  C_21
REMARK                            x       y       z     vdW  Elec       q    Type
REMARK                         _______ _______ _______ _____ _____    ______ ____
ROOT
ATOM      1  O   UNL     1      17.511   6.488  19.269  0.00  0.00    -0.371 OA
ATOM      8  C   UNL     1      15.384   6.907  20.240  0.00  0.00    +0.111 C 
ATOM      9  C   UNL     1      16.445   6.984  21.322  0.00  0.00    +0.164 C 
ATOM     11  C   UNL     1      17.696   7.227  20.488  0.00  0.00    +0.165 C 
ATOM     12  C   UNL     1      16.119   6.144  19.151  0.00  0.00    +0.181 C 
ENDROOT
BRANCH   9   2
ATOM      2  O   UNL     1      16.212   8.033  22.241  0.00  0.00    -0.388 OA
ATOM     24  H   UNL     1      15.504   7.757  22.848  0.00  0.00    +0.210 HD
ENDBRANCH   9   2
BRANCH   8   4
ATOM      4  N   UNL     1      14.162   6.247  20.667  0.00  0.00    -0.306 NA
ATOM     22  H   UNL     1      14.318   5.753  21.546  0.00  0.00    +0.123 HD
BRANCH   4  10
ATOM      5  N   UNL     1      10.330   8.049  20.249  0.00  0.00    -0.316 NA
ATOM     10  C   UNL     1      13.079   7.214  20.829  0.00  0.00    +0.056 C 
ATOM     13  C   UNL     1      11.869   6.574  21.518  0.00  0.00    +0.034 C 
ATOM     14  C   UNL     1      12.670   7.786  19.468  0.00  0.00    +0.034 C 
ATOM     15  C   UNL     1      10.695   7.553  21.578  0.00  0.00    +0.082 C 
ATOM     16  C   UNL     1      11.465   8.718  19.608  0.00  0.00    +0.082 C 
ATOM     23  H   UNL     1       9.557   8.708  20.337  0.00  0.00    +0.122 HD
ENDBRANCH   4  10
ENDBRANCH   8   4
BRANCH  11  17
ATOM     17  C   UNL     1      18.972   6.773  21.175  0.00  0.00    +0.140 C 
BRANCH  17   6
ATOM      3  O   UNL     1      20.757   6.006  23.309  0.00  0.00    -0.253 OA
ATOM      6  N   UNL     1      19.156   7.443  22.430  0.00  0.00    -0.297 N 
ATOM      7  N   UNL     1      20.025   7.838  24.531  0.00  0.00    -0.297 N 
ATOM     18  C   UNL     1      20.045   7.004  23.416  0.00  0.00    +0.300 C 
ATOM     25  H   UNL     1      18.600   8.271  22.618  0.00  0.00    +0.150 HD
ATOM     26  H   UNL     1      19.459   8.680  24.494  0.00  0.00    +0.150 HD
BRANCH   7  19
ATOM     19  C   UNL     1      20.850   7.609  25.694  0.00  0.00    +0.068 C 
ATOM     20  C   UNL     1      20.101   8.000  26.961  0.00  0.00    +0.027 C 
ATOM     21  C   UNL     1      22.165   8.370  25.573  0.00  0.00    +0.027 C 
ENDBRANCH   7  19
ENDBRANCH  17   6
ENDBRANCH  11  17
TORSDOF 6
ENDMDL
MODEL 5
REMARK VINA RESULT:      -6.1      3.613      8.974
REMARK  Name = 75536725
REMARK  8 active torsions:
REMARK  status: ('A' for Active; 'I' for Inactive)
REMARK    1  A    between atoms: O_2  and  C_9
REMARK    2  A    between atoms: N_4  and  C_8
REMARK    3  A    between atoms: N_4  and  C_10
REMARK    4  A    between atoms: N_6  and  C_17
REMARK    5  A    between atoms: N_7  and  C_19
REMARK    6  A    between atoms: C_11  and  C_17
REMARK    7  A    between atoms: C_19  and  C_20
REMARK    8  A    between atoms: C_19  and  C_21
REMARK                            x       y       z     vdW  Elec       q    Type
REMARK                         _______ _______ _______ _____ _____    ______ ____
ROOT
ATOM      1  O   UNL     1      17.985   6.122  19.318  0.00  0.00    -0.371 OA
ATOM      8  C   UNL     1      15.765   6.822  19.789  0.00  0.00    +0.111 C 
ATOM      9  C   UNL     1      16.572   6.838  21.074  0.00  0.00    +0.164 C 
ATOM     11  C   UNL     1      17.992   6.898  20.528  0.00  0.00    +0.165 C 
ATOM     12  C   UNL     1      16.621   5.928  18.907  0.00  0.00    +0.181 C 
ENDROOT
BRANCH   9   2
ATOM      2  O   UNL     1      16.273   7.952  21.893  0.00  0.00    -0.388 OA
ATOM     24  H   UNL     1      15.797   7.635  22.679  0.00  0.00    +0.210 HD
ENDBRANCH   9   2
BRANCH   8   4
ATOM      4  N   UNL     1      14.410   6.323  19.956  0.00  0.00    -0.306 NA
ATOM     22  H   UNL     1      14.323   5.836  20.848  0.00  0.00    +0.123 HD
BRANCH   4  10
ATOM      5  N   UNL     1      10.702   8.340  19.421  0.00  0.00    -0.316 NA
ATOM     10  C   UNL     1      13.443   7.417  19.893  0.00  0.00    +0.056 C 
ATOM     13  C   UNL     1      12.328   7.224  20.927  0.00  0.00    +0.034 C 
ATOM     14  C   UNL     1      12.847   7.517  18.485  0.00  0.00    +0.034 C 
ATOM     15  C   UNL     1      11.255   8.304  20.778  0.00  0.00    +0.082 C 
ATOM     16  C   UNL     1      11.754   8.586  18.432  0.00  0.00    +0.082 C 
ATOM     23  H   UNL     1      10.004   9.082  19.363  0.00  0.00    +0.122 HD
ENDBRANCH   4  10
ENDBRANCH   8   4
BRANCH  11  17
ATOM     17  C   UNL     1      19.028   6.341  21.489  0.00  0.00    +0.140 C 
BRANCH  17   6
ATOM      3  O   UNL     1      21.325   5.027  22.639  0.00  0.00    -0.253 OA
ATOM      6  N   UNL     1      20.128   5.749  20.783  0.00  0.00    -0.297 N 
ATOM      7  N   UNL     1      22.132   4.640  20.498  0.00  0.00    -0.297 N 
ATOM     18  C   UNL     1      21.208   5.129  21.419  0.00  0.00    +0.300 C 
ATOM     25  H   UNL     1      20.129   5.796  19.769  0.00  0.00    +0.150 HD
ATOM     26  H   UNL     1      21.909   4.706  19.509  0.00  0.00    +0.150 HD
BRANCH   7  19
ATOM     19  C   UNL     1      23.340   3.956  20.891  0.00  0.00    +0.068 C 
ATOM     20  C   UNL     1      24.466   4.264  19.912  0.00  0.00    +0.027 C 
ATOM     21  C   UNL     1      23.094   2.455  20.996  0.00  0.00    +0.027 C 
ENDBRANCH   7  19
ENDBRANCH  17   6
ENDBRANCH  11  17
TORSDOF 6
ENDMDL
MODEL 6
REMARK VINA RESULT:      -5.9     26.170     28.322
REMARK  Name = 75536725
REMARK  8 active torsions:
REMARK  status: ('A' for Active; 'I' for Inactive)
REMARK    1  A    between atoms: O_2  and  C_9
REMARK    2  A    between atoms: N_4  and  C_8
REMARK    3  A    between atoms: N_4  and  C_10
REMARK    4  A    between atoms: N_6  and  C_17
REMARK    5  A    between atoms: N_7  and  C_19
REMARK    6  A    between atoms: C_11  and  C_17
REMARK    7  A    between atoms: C_19  and  C_20
REMARK    8  A    between atoms: C_19  and  C_21
REMARK                            x       y       z     vdW  Elec       q    Type
REMARK                         _______ _______ _______ _____ _____    ______ ____
ROOT
ATOM      1  O   UNL     1      -1.389 -11.345  14.960  0.00  0.00    -0.371 OA
ATOM      8  C   UNL     1      -3.564 -10.918  15.815  0.00  0.00    +0.111 C 
ATOM      9  C   UNL     1      -3.631 -10.979  14.300  0.00  0.00    +0.164 C 
ATOM     11  C   UNL     1      -2.360 -11.754  13.981  0.00  0.00    +0.165 C 
ATOM     12  C   UNL     1      -2.078 -10.693  16.041  0.00  0.00    +0.181 C 
ENDROOT
BRANCH   9   2
ATOM      2  O   UNL     1      -4.787 -11.645  13.831  0.00  0.00    -0.388 OA
ATOM     24  H   UNL     1      -5.378 -10.987  13.428  0.00  0.00    +0.210 HD
ENDBRANCH   9   2
BRANCH   8   4
ATOM      4  N   UNL     1      -4.390  -9.871  16.393  0.00  0.00    -0.306 NA
ATOM     22  H   UNL     1      -4.709  -9.232  15.665  0.00  0.00    +0.123 HD
BRANCH   4  10
ATOM      5  N   UNL     1      -7.580 -10.243  19.185  0.00  0.00    -0.316 NA
ATOM     10  C   UNL     1      -5.540 -10.443  17.089  0.00  0.00    +0.056 C 
ATOM     13  C   UNL     1      -6.772  -9.542  16.946  0.00  0.00    +0.034 C 
ATOM     14  C   UNL     1      -5.212 -10.657  18.570  0.00  0.00    +0.034 C 
ATOM     15  C   UNL     1      -7.940 -10.081  17.774  0.00  0.00    +0.082 C 
ATOM     16  C   UNL     1      -6.441 -11.153  19.334  0.00  0.00    +0.082 C 
ATOM     23  H   UNL     1      -8.379 -10.618  19.694  0.00  0.00    +0.122 HD
ENDBRANCH   4  10
ENDBRANCH   8   4
BRANCH  11  17
ATOM     17  C   UNL     1      -1.826 -11.484  12.586  0.00  0.00    +0.140 C 
BRANCH  17   6
ATOM      3  O   UNL     1      -2.184  -9.328  10.700  0.00  0.00    -0.253 OA
ATOM      6  N   UNL     1      -2.893 -11.332  11.639  0.00  0.00    -0.297 N 
ATOM      7  N   UNL     1      -4.124 -10.355   9.949  0.00  0.00    -0.297 N 
ATOM     18  C   UNL     1      -2.994 -10.252  10.756  0.00  0.00    +0.300 C 
ATOM     25  H   UNL     1      -3.621 -12.039  11.620  0.00  0.00    +0.150 HD
ATOM     26  H   UNL     1      -4.693 -11.194  10.019  0.00  0.00    +0.150 HD
BRANCH   7  19
ATOM     19  C   UNL     1      -4.464  -9.370   8.950  0.00  0.00    +0.068 C 
ATOM     20  C   UNL     1      -5.365  -8.297   9.549  0.00  0.00    +0.027 C 
ATOM     21  C   UNL     1      -5.122 -10.035   7.747  0.00  0.00    +0.027 C 
ENDBRANCH   7  19
ENDBRANCH  17   6
ENDBRANCH  11  17
TORSDOF 6
ENDMDL
MODEL 7
REMARK VINA RESULT:      -5.7     26.440     29.315
REMARK  Name = 75536725
REMARK  8 active torsions:
REMARK  status: ('A' for Active; 'I' for Inactive)
REMARK    1  A    between atoms: O_2  and  C_9
REMARK    2  A    between atoms: N_4  and  C_8
REMARK    3  A    between atoms: N_4  and  C_10
REMARK    4  A    between atoms: N_6  and  C_17
REMARK    5  A    between atoms: N_7  and  C_19
REMARK    6  A    between atoms: C_11  and  C_17
REMARK    7  A    between atoms: C_19  and  C_20
REMARK    8  A    between atoms: C_19  and  C_21
REMARK                            x       y       z     vdW  Elec       q    Type
REMARK                         _______ _______ _______ _____ _____    ______ ____
ROOT
ATOM      1  O   UNL     1      -8.681 -11.044  18.674  0.00  0.00    -0.371 OA
ATOM      8  C   UNL     1      -9.252  -9.150  17.359  0.00  0.00    +0.111 C 
ATOM      9  C   UNL     1      -7.743  -9.314  17.362  0.00  0.00    +0.164 C 
ATOM     11  C   UNL     1      -7.608 -10.779  17.755  0.00  0.00    +0.165 C 
ATOM     12  C   UNL     1      -9.647  -9.984  18.566  0.00  0.00    +0.181 C 
ENDROOT
BRANCH   9   2
ATOM      2  O   UNL     1      -7.163  -9.051  16.099  0.00  0.00    -0.388 OA
ATOM     24  H   UNL     1      -7.792  -9.324  15.410  0.00  0.00    +0.210 HD
ENDBRANCH   9   2
BRANCH   8   4
ATOM      4  N   UNL     1      -9.689  -7.768  17.458  0.00  0.00    -0.306 NA
ATOM     22  H   UNL     1      -8.909  -7.172  17.736  0.00  0.00    +0.123 HD
BRANCH   4  10
ATOM      5  N   UNL     1     -12.541  -6.922  14.416  0.00  0.00    -0.316 NA
ATOM     10  C   UNL     1     -10.235  -7.304  16.185  0.00  0.00    +0.056 C 
ATOM     13  C   UNL     1     -11.252  -6.178  16.401  0.00  0.00    +0.034 C 
ATOM     14  C   UNL     1     -10.889  -8.469  15.432  0.00  0.00    +0.034 C 
ATOM     15  C   UNL     1     -11.911  -5.778  15.079  0.00  0.00    +0.082 C 
ATOM     16  C   UNL     1     -11.562  -7.978  14.149  0.00  0.00    +0.082 C 
ATOM     23  H   UNL     1     -12.952  -6.614  13.535  0.00  0.00    +0.122 HD
ENDBRANCH   4  10
ENDBRANCH   8   4
BRANCH  11  17
ATOM     17  C   UNL     1      -6.279 -11.104  18.412  0.00  0.00    +0.140 C 
BRANCH  17   6
ATOM      3  O   UNL     1      -4.397 -12.385  16.637  0.00  0.00    -0.253 OA
ATOM      6  N   UNL     1      -5.187 -10.485  17.715  0.00  0.00    -0.297 N 
ATOM      7  N   UNL     1      -3.351 -10.338  16.325  0.00  0.00    -0.297 N 
ATOM     18  C   UNL     1      -4.317 -11.180  16.870  0.00  0.00    +0.300 C 
ATOM     25  H   UNL     1      -5.030  -9.492  17.856  0.00  0.00    +0.150 HD
ATOM     26  H   UNL     1      -3.414  -9.343  16.519  0.00  0.00    +0.150 HD
BRANCH   7  19
ATOM     19  C   UNL     1      -2.329 -10.804  15.419  0.00  0.00    +0.068 C 
ATOM     20  C   UNL     1      -1.010 -10.095  15.698  0.00  0.00    +0.027 C 
ATOM     21  C   UNL     1      -2.767 -10.604  13.972  0.00  0.00    +0.027 C 
ENDBRANCH   7  19
ENDBRANCH  17   6
ENDBRANCH  11  17
TORSDOF 6
ENDMDL
MODEL 8
REMARK VINA RESULT:      -5.6     26.396     29.176
REMARK  Name = 75536725
REMARK  8 active torsions:
REMARK  status: ('A' for Active; 'I' for Inactive)
REMARK    1  A    between atoms: O_2  and  C_9
REMARK    2  A    between atoms: N_4  and  C_8
REMARK    3  A    between atoms: N_4  and  C_10
REMARK    4  A    between atoms: N_6  and  C_17
REMARK    5  A    between atoms: N_7  and  C_19
REMARK    6  A    between atoms: C_11  and  C_17
REMARK    7  A    between atoms: C_19  and  C_20
REMARK    8  A    between atoms: C_19  and  C_21
REMARK                            x       y       z     vdW  Elec       q    Type
REMARK                         _______ _______ _______ _____ _____    ______ ____
ROOT
ATOM      1  O   UNL     1     -16.730   4.103  22.560  0.00  0.00    -0.371 OA
ATOM      8  C   UNL     1     -14.841   5.540  22.462  0.00  0.00    +0.111 C 
ATOM      9  C   UNL     1     -14.826   4.792  23.782  0.00  0.00    +0.164 C 
ATOM     11  C   UNL     1     -15.723   3.606  23.458  0.00  0.00    +0.165 C 
ATOM     12  C   UNL     1     -16.290   5.368  22.036  0.00  0.00    +0.181 C 
ENDROOT
BRANCH   9   2
ATOM      2  O   UNL     1     -13.526   4.383  24.162  0.00  0.00    -0.388 OA
ATOM     24  H   UNL     1     -13.397   3.464  23.871  0.00  0.00    +0.210 HD
ENDBRANCH   9   2
BRANCH   8   4
ATOM      4  N   UNL     1     -14.447   6.934  22.576  0.00  0.00    -0.306 NA
ATOM     22  H   UNL     1     -13.848   7.064  23.391  0.00  0.00    +0.123 HD
BRANCH   4  10
ATOM      5  N   UNL     1     -11.350   8.501  20.114  0.00  0.00    -0.316 NA
ATOM     10  C   UNL     1     -13.746   7.375  21.372  0.00  0.00    +0.056 C 
ATOM     13  C   UNL     1     -12.480   6.544  21.138  0.00  0.00    +0.034 C 
ATOM     14  C   UNL     1     -13.389   8.862  21.480  0.00  0.00    +0.034 C 
ATOM     15  C   UNL     1     -11.686   7.084  19.947  0.00  0.00    +0.082 C 
ATOM     16  C   UNL     1     -12.560   9.311  20.276  0.00  0.00    +0.082 C 
ATOM     23  H   UNL     1     -10.837   8.823  19.294  0.00  0.00    +0.122 HD
ENDBRANCH   4  10
ENDBRANCH   8   4
BRANCH  11  17
ATOM     17  C   UNL     1     -16.383   3.000  24.684  0.00  0.00    +0.140 C 
BRANCH  17   6
ATOM      3  O   UNL     1     -16.896   2.057  27.363  0.00  0.00    -0.253 OA
ATOM      6  N   UNL     1     -15.739   3.434  25.891  0.00  0.00    -0.297 N 
ATOM      7  N   UNL     1     -15.275   3.519  28.150  0.00  0.00    -0.297 N 
ATOM     18  C   UNL     1     -16.048   2.924  27.156  0.00  0.00    +0.300 C 
ATOM     25  H   UNL     1     -15.033   4.160  25.824  0.00  0.00    +0.150 HD
ATOM     26  H   UNL     1     -14.548   4.172  27.870  0.00  0.00    +0.150 HD
BRANCH   7  19
ATOM     19  C   UNL     1     -15.395   3.174  29.546  0.00  0.00    +0.068 C 
ATOM     20  C   UNL     1     -15.443   4.433  30.402  0.00  0.00    +0.027 C 
ATOM     21  C   UNL     1     -14.250   2.262  29.970  0.00  0.00    +0.027 C 
ENDBRANCH   7  19
ENDBRANCH  17   6
ENDBRANCH  11  17
TORSDOF 6
ENDMDL
MODEL 9
REMARK VINA RESULT:      -5.6     25.894     28.025
REMARK  Name = 75536725
REMARK  8 active torsions:
REMARK  status: ('A' for Active; 'I' for Inactive)
REMARK    1  A    between atoms: O_2  and  C_9
REMARK    2  A    between atoms: N_4  and  C_8
REMARK    3  A    between atoms: N_4  and  C_10
REMARK    4  A    between atoms: N_6  and  C_17
REMARK    5  A    between atoms: N_7  and  C_19
REMARK    6  A    between atoms: C_11  and  C_17
REMARK    7  A    between atoms: C_19  and  C_20
REMARK    8  A    between atoms: C_19  and  C_21
REMARK                            x       y       z     vdW  Elec       q    Type
REMARK                         _______ _______ _______ _____ _____    ______ ____
ROOT
ATOM      1  O   UNL     1      -5.949 -11.716  18.957  0.00  0.00    -0.371 OA
ATOM      8  C   UNL     1      -4.749 -11.419  16.929  0.00  0.00    +0.111 C 
ATOM      9  C   UNL     1      -6.035 -10.616  16.865  0.00  0.00    +0.164 C 
ATOM     11  C   UNL     1      -6.373 -10.487  18.344  0.00  0.00    +0.165 C 
ATOM     12  C   UNL     1      -5.059 -12.394  18.054  0.00  0.00    +0.181 C 
ENDROOT
BRANCH   9   2
ATOM      2  O   UNL     1      -5.859  -9.353  16.252  0.00  0.00    -0.388 OA
ATOM     24  H   UNL     1      -5.712  -8.692  16.949  0.00  0.00    +0.210 HD
ENDBRANCH   9   2
BRANCH   8   4
ATOM      4  N   UNL     1      -4.413 -12.084  15.681  0.00  0.00    -0.306 NA
ATOM     22  H   UNL     1      -5.122 -11.884  14.975  0.00  0.00    +0.123 HD
BRANCH   4  10
ATOM      5  N   UNL     1      -1.238  -9.491  14.542  0.00  0.00    -0.316 NA
ATOM     10  C   UNL     1      -3.102 -11.655  15.200  0.00  0.00    +0.056 C 
ATOM     13  C   UNL     1      -2.353 -10.866  16.280  0.00  0.00    +0.034 C 
ATOM     14  C   UNL     1      -3.253 -10.804  13.934  0.00  0.00    +0.034 C 
ATOM     15  C   UNL     1      -1.033 -10.316  15.736  0.00  0.00    +0.082 C 
ATOM     16  C   UNL     1      -1.898 -10.257  13.482  0.00  0.00    +0.082 C 
ATOM     23  H   UNL     1      -0.334  -9.159  14.205  0.00  0.00    +0.122 HD
ENDBRANCH   4  10
ENDBRANCH   8   4
BRANCH  11  17
ATOM     17  C   UNL     1      -7.853 -10.269  18.603  0.00  0.00    +0.140 C 
BRANCH  17   6
ATOM      3  O   UNL     1     -10.571  -9.846  17.729  0.00  0.00    -0.253 OA
ATOM      6  N   UNL     1      -8.356  -9.154  17.853  0.00  0.00    -0.297 N 
ATOM      7  N   UNL     1      -9.908  -7.850  16.750  0.00  0.00    -0.297 N 
ATOM     18  C   UNL     1      -9.694  -9.024  17.466  0.00  0.00    +0.300 C 
ATOM     25  H   UNL     1      -7.703  -8.429  17.575  0.00  0.00    +0.150 HD
ATOM     26  H   UNL     1      -9.135  -7.198  16.649  0.00  0.00    +0.150 HD
BRANCH   7  19
ATOM     19  C   UNL     1     -11.202  -7.473  16.233  0.00  0.00    +0.068 C 
ATOM     20  C   UNL     1     -11.427  -8.097  14.862  0.00  0.00    +0.027 C 
ATOM     21  C   UNL     1     -11.334  -5.956  16.178  0.00  0.00    +0.027 C 
ENDBRANCH   7  19
ENDBRANCH  17   6
ENDBRANCH  11  17
TORSDOF 6
ENDMDL
MODEL 10
REMARK VINA RESULT:      -5.4     26.577     28.317
REMARK  Name = 75536725
REMARK  8 active torsions:
REMARK  status: ('A' for Active; 'I' for Inactive)
REMARK    1  A    between atoms: O_2  and  C_9
REMARK    2  A    between atoms: N_4  and  C_8
REMARK    3  A    between atoms: N_4  and  C_10
REMARK    4  A    between atoms: N_6  and  C_17
REMARK    5  A    between atoms: N_7  and  C_19
REMARK    6  A    between atoms: C_11  and  C_17
REMARK    7  A    between atoms: C_19  and  C_20
REMARK    8  A    between atoms: C_19  and  C_21
REMARK                            x       y       z     vdW  Elec       q    Type
REMARK                         _______ _______ _______ _____ _____    ______ ____
ROOT
ATOM      1  O   UNL     1      -6.352 -10.378  16.737  0.00  0.00    -0.371 OA
ATOM      8  C   UNL     1      -4.096 -10.837  16.154  0.00  0.00    +0.111 C 
ATOM      9  C   UNL     1      -4.268 -11.021  17.651  0.00  0.00    +0.164 C 
ATOM     11  C   UNL     1      -5.774 -11.217  17.751  0.00  0.00    +0.165 C 
ATOM     12  C   UNL     1      -5.317 -10.000  15.812  0.00  0.00    +0.181 C 
ENDROOT
BRANCH   9   2
ATOM      2  O   UNL     1      -3.556 -12.138  18.149  0.00  0.00    -0.388 OA
ATOM     24  H   UNL     1      -3.626 -12.859  17.501  0.00  0.00    +0.210 HD
ENDBRANCH   9   2
BRANCH   8   4
ATOM      4  N   UNL     1      -2.846 -10.192  15.786  0.00  0.00    -0.306 NA
ATOM     22  H   UNL     1      -2.239 -10.111  16.601  0.00  0.00    +0.123 HD
BRANCH   4  10
ATOM      5  N   UNL     1      -2.301 -12.584  12.309  0.00  0.00    -0.316 NA
ATOM     10  C   UNL     1      -2.165 -10.944  14.735  0.00  0.00    +0.056 C 
ATOM     13  C   UNL     1      -2.446 -10.339  13.355  0.00  0.00    +0.034 C 
ATOM     14  C   UNL     1      -2.601 -12.413  14.766  0.00  0.00    +0.034 C 
ATOM     15  C   UNL     1      -1.831 -11.197  12.248  0.00  0.00    +0.082 C 
ATOM     16  C   UNL     1      -1.980 -13.190  13.603  0.00  0.00    +0.082 C 
ATOM     23  H   UNL     1      -1.856 -13.122  11.566  0.00  0.00    +0.122 HD
ENDBRANCH   4  10
ENDBRANCH   8   4
BRANCH  11  17
ATOM     17  C   UNL     1      -6.339 -10.843  19.110  0.00  0.00    +0.140 C 
BRANCH  17   6
ATOM      3  O   UNL     1      -9.017 -11.917  19.176  0.00  0.00    -0.253 OA
ATOM      6  N   UNL     1      -7.567 -10.112  18.981  0.00  0.00    -0.297 N 
ATOM      7  N   UNL     1      -9.847  -9.771  18.874  0.00  0.00    -0.297 N 
ATOM     18  C   UNL     1      -8.830 -10.710  19.024  0.00  0.00    +0.300 C 
ATOM     25  H   UNL     1      -7.515  -9.109  18.837  0.00  0.00    +0.150 HD
ATOM     26  H   UNL     1      -9.594  -8.788  18.830  0.00  0.00    +0.150 HD
BRANCH   7  19
ATOM     19  C   UNL     1     -11.246 -10.125  18.881  0.00  0.00    +0.068 C 
ATOM     20  C   UNL     1     -12.015  -9.269  17.884  0.00  0.00    +0.027 C 
ATOM     21  C   UNL     1     -11.824  -9.991  20.285  0.00  0.00    +0.027 C 
ENDBRANCH   7  19
ENDBRANCH  17   6
ENDBRANCH  11  17
TORSDOF 6
ENDMDL
