MODEL 1
REMARK VINA RESULT:      -7.1      0.000      0.000
REMARK  Name = 26743960
REMARK  6 active torsions:
REMARK  status: ('A' for Active; 'I' for Inactive)
REMARK    1  A    between atoms: O_1  and  C_10
REMARK    2  A    between atoms: N_3  and  C_12
REMARK    3  A    between atoms: C_8  and  C_13
REMARK    4  A    between atoms: C_12  and  C_14
REMARK    5  A    between atoms: C_17  and  C_20
REMARK    6  A    between atoms: C_18  and  C_24
REMARK                            x       y       z     vdW  Elec       q    Type
REMARK                         _______ _______ _______ _____ _____    ______ ____
ROOT
ATOM      3  N   UNL     1      12.326   8.951  20.632  0.00  0.00    -0.285 NA
ATOM      8  C   UNL     1      13.033   8.125  21.631  0.00  0.00    +0.149 C 
ATOM      9  C   UNL     1      12.025   7.028  22.019  0.00  0.00    +0.061 C 
ATOM     10  C   UNL     1      10.767   7.347  21.219  0.00  0.00    +0.130 C 
ATOM     11  C   UNL     1      10.900   8.829  20.926  0.00  0.00    +0.116 C 
ENDROOT
BRANCH   8  13
ATOM      2  O   UNL     1      14.254   6.739  20.032  0.00  0.00    -0.336 OA
ATOM      4  N   UNL     1      15.558   7.757  21.542  0.00  0.00    -0.190 NA
ATOM      5  N   UNL     1      15.568   6.354  19.736  0.00  0.00    -0.056 NA
ATOM     13  C   UNL     1      14.338   7.564  21.108  0.00  0.00    +0.245 A 
ATOM     17  C   UNL     1      16.277   6.995  20.669  0.00  0.00    +0.204 A 
BRANCH  17  20
ATOM      6  N   UNL     1      19.796   7.817  21.544  0.00  0.00    -0.263 NA
ATOM     20  C   UNL     1      17.705   6.895  20.756  0.00  0.00    +0.041 A 
ATOM     22  C   UNL     1      18.386   5.831  20.173  0.00  0.00    +0.014 A 
ATOM     23  C   UNL     1      18.450   7.853  21.425  0.00  0.00    +0.122 A 
ATOM     25  C   UNL     1      19.771   5.760  20.274  0.00  0.00    +0.020 A 
ATOM     26  C   UNL     1      20.424   6.769  20.964  0.00  0.00    +0.111 A 
ENDBRANCH  17  20
ENDBRANCH   8  13
BRANCH  10   1
ATOM      1  O   UNL     1       9.606   7.062  21.975  0.00  0.00    -0.390 OA
ATOM     27  H   UNL     1       9.379   6.129  21.821  0.00  0.00    +0.210 HD
ENDBRANCH  10   1
BRANCH   3  12
ATOM     12  C   UNL     1      12.766  10.340  20.618  0.00  0.00    +0.120 C 
BRANCH  12  14
ATOM     14  C   UNL     1      13.253  10.761  19.256  0.00  0.00    -0.032 A 
ATOM     15  C   UNL     1      13.315   9.831  18.219  0.00  0.00    +0.023 A 
ATOM     16  C   UNL     1      13.642  12.081  19.034  0.00  0.00    +0.005 A 
ATOM     18  C   UNL     1      13.766  10.222  16.958  0.00  0.00    +0.052 A 
ATOM     19  C   UNL     1      14.094  12.473  17.774  0.00  0.00    +0.002 A 
ATOM     21  C   UNL     1      14.156  11.543  16.736  0.00  0.00    +0.019 A 
BRANCH  18  24
ATOM      7  N   UNL     1      13.876   8.499  15.029  0.00  0.00    -0.191 NA
ATOM     24  C   UNL     1      13.827   9.271  15.894  0.00  0.00    +0.099 C 
ENDBRANCH  18  24
ENDBRANCH  12  14
ENDBRANCH   3  12
TORSDOF 6
ENDMDL
MODEL 2
REMARK VINA RESULT:      -7.1      3.133      7.106
REMARK  Name = 26743960
REMARK  6 active torsions:
REMARK  status: ('A' for Active; 'I' for Inactive)
REMARK    1  A    between atoms: O_1  and  C_10
REMARK    2  A    between atoms: N_3  and  C_12
REMARK    3  A    between atoms: C_8  and  C_13
REMARK    4  A    between atoms: C_12  and  C_14
REMARK    5  A    between atoms: C_17  and  C_20
REMARK    6  A    between atoms: C_18  and  C_24
REMARK                            x       y       z     vdW  Elec       q    Type
REMARK                         _______ _______ _______ _____ _____    ______ ____
ROOT
ATOM      3  N   UNL     1      13.258   8.079  20.504  0.00  0.00    -0.285 NA
ATOM      8  C   UNL     1      11.948   8.728  20.299  0.00  0.00    +0.149 C 
ATOM      9  C   UNL     1      10.919   7.714  20.829  0.00  0.00    +0.061 C 
ATOM     10  C   UNL     1      11.742   6.509  21.270  0.00  0.00    +0.130 C 
ATOM     11  C   UNL     1      13.019   6.638  20.460  0.00  0.00    +0.116 C 
ENDROOT
BRANCH   8  13
ATOM      2  O   UNL     1      12.314  11.144  20.286  0.00  0.00    -0.336 OA
ATOM      4  N   UNL     1      11.380  10.371  22.169  0.00  0.00    -0.190 NA
ATOM      5  N   UNL     1      12.121  12.260  21.111  0.00  0.00    -0.056 NA
ATOM     13  C   UNL     1      11.851  10.075  20.984  0.00  0.00    +0.245 A 
ATOM     17  C   UNL     1      11.566  11.723  22.201  0.00  0.00    +0.204 A 
BRANCH  17  20
ATOM      6  N   UNL     1      10.489  12.590  25.653  0.00  0.00    -0.263 NA
ATOM     20  C   UNL     1      11.187  12.508  23.340  0.00  0.00    +0.041 A 
ATOM     22  C   UNL     1      11.144  13.897  23.270  0.00  0.00    +0.014 A 
ATOM     23  C   UNL     1      10.854  11.909  24.544  0.00  0.00    +0.122 A 
ATOM     25  C   UNL     1      10.773  14.633  24.390  0.00  0.00    +0.020 A 
ATOM     26  C   UNL     1      10.458  13.938  25.547  0.00  0.00    +0.111 A 
ENDBRANCH  17  20
ENDBRANCH   8  13
BRANCH  10   1
ATOM      1  O   UNL     1      11.059   5.304  20.986  0.00  0.00    -0.390 OA
ATOM     27  H   UNL     1      10.894   4.855  21.833  0.00  0.00    +0.210 HD
ENDBRANCH  10   1
BRANCH   3  12
ATOM     12  C   UNL     1      14.266   8.497  19.538  0.00  0.00    +0.120 C 
BRANCH  12  14
ATOM     14  C   UNL     1      15.550   7.726  19.696  0.00  0.00    -0.032 A 
ATOM     15  C   UNL     1      16.496   8.133  20.637  0.00  0.00    +0.023 A 
ATOM     16  C   UNL     1      15.793   6.607  18.902  0.00  0.00    +0.005 A 
ATOM     18  C   UNL     1      17.686   7.419  20.783  0.00  0.00    +0.052 A 
ATOM     19  C   UNL     1      16.983   5.893  19.046  0.00  0.00    +0.002 A 
ATOM     21  C   UNL     1      17.929   6.299  19.988  0.00  0.00    +0.019 A 
BRANCH  18  24
ATOM      7  N   UNL     1      19.441   8.168  22.532  0.00  0.00    -0.191 NA
ATOM     24  C   UNL     1      18.654   7.833  21.748  0.00  0.00    +0.099 C 
ENDBRANCH  18  24
ENDBRANCH  12  14
ENDBRANCH   3  12
TORSDOF 6
ENDMDL
MODEL 3
REMARK VINA RESULT:      -6.8      1.989      5.918
REMARK  Name = 26743960
REMARK  6 active torsions:
REMARK  status: ('A' for Active; 'I' for Inactive)
REMARK    1  A    between atoms: O_1  and  C_10
REMARK    2  A    between atoms: N_3  and  C_12
REMARK    3  A    between atoms: C_8  and  C_13
REMARK    4  A    between atoms: C_12  and  C_14
REMARK    5  A    between atoms: C_17  and  C_20
REMARK    6  A    between atoms: C_18  and  C_24
REMARK                            x       y       z     vdW  Elec       q    Type
REMARK                         _______ _______ _______ _____ _____    ______ ____
ROOT
ATOM      3  N   UNL     1      13.310   7.843  20.398  0.00  0.00    -0.285 NA
ATOM      8  C   UNL     1      12.417   7.758  19.225  0.00  0.00    +0.149 C 
ATOM      9  C   UNL     1      11.110   8.433  19.676  0.00  0.00    +0.061 C 
ATOM     10  C   UNL     1      11.348   8.824  21.130  0.00  0.00    +0.130 C 
ATOM     11  C   UNL     1      12.446   7.877  21.576  0.00  0.00    +0.116 C 
ENDROOT
BRANCH   8  13
ATOM      2  O   UNL     1      12.989   7.662  16.851  0.00  0.00    -0.336 OA
ATOM      4  N   UNL     1      13.559   9.583  17.852  0.00  0.00    -0.190 NA
ATOM      5  N   UNL     1      13.586   8.454  15.862  0.00  0.00    -0.056 NA
ATOM     13  C   UNL     1      13.013   8.401  17.991  0.00  0.00    +0.245 A 
ATOM     17  C   UNL     1      13.895   9.569  16.529  0.00  0.00    +0.204 A 
BRANCH  17  20
ATOM      6  N   UNL     1      14.880  13.079  15.798  0.00  0.00    -0.263 NA
ATOM     20  C   UNL     1      14.538  10.688  15.904  0.00  0.00    +0.041 A 
ATOM     22  C   UNL     1      15.414  10.508  14.839  0.00  0.00    +0.014 A 
ATOM     23  C   UNL     1      14.307  11.983  16.342  0.00  0.00    +0.122 A 
ATOM     25  C   UNL     1      16.023  11.612  14.252  0.00  0.00    +0.020 A 
ATOM     26  C   UNL     1      15.726  12.865  14.764  0.00  0.00    +0.111 A 
ENDBRANCH  17  20
ENDBRANCH   8  13
BRANCH  10   1
ATOM      1  O   UNL     1      10.169   8.659  21.894  0.00  0.00    -0.390 OA
ATOM     27  H   UNL     1      10.280   7.858  22.434  0.00  0.00    +0.210 HD
ENDBRANCH  10   1
BRANCH   3  12
ATOM     12  C   UNL     1      14.281   6.759  20.462  0.00  0.00    +0.120 C 
BRANCH  12  14
ATOM     14  C   UNL     1      15.675   7.267  20.724  0.00  0.00    -0.032 A 
ATOM     15  C   UNL     1      16.770   6.422  20.549  0.00  0.00    +0.023 A 
ATOM     16  C   UNL     1      15.868   8.583  21.143  0.00  0.00    +0.005 A 
ATOM     18  C   UNL     1      18.060   6.894  20.792  0.00  0.00    +0.052 A 
ATOM     19  C   UNL     1      17.158   9.055  21.387  0.00  0.00    +0.002 A 
ATOM     21  C   UNL     1      18.254   8.210  21.211  0.00  0.00    +0.019 A 
BRANCH  18  24
ATOM      7  N   UNL     1      20.096   5.329  20.463  0.00  0.00    -0.191 NA
ATOM     24  C   UNL     1      19.184   6.030  20.610  0.00  0.00    +0.099 C 
ENDBRANCH  18  24
ENDBRANCH  12  14
ENDBRANCH   3  12
TORSDOF 6
ENDMDL
MODEL 4
REMARK VINA RESULT:      -6.7      2.147      2.856
REMARK  Name = 26743960
REMARK  6 active torsions:
REMARK  status: ('A' for Active; 'I' for Inactive)
REMARK    1  A    between atoms: O_1  and  C_10
REMARK    2  A    between atoms: N_3  and  C_12
REMARK    3  A    between atoms: C_8  and  C_13
REMARK    4  A    between atoms: C_12  and  C_14
REMARK    5  A    between atoms: C_17  and  C_20
REMARK    6  A    between atoms: C_18  and  C_24
REMARK                            x       y       z     vdW  Elec       q    Type
REMARK                         _______ _______ _______ _____ _____    ______ ____
ROOT
ATOM      3  N   UNL     1      12.254  11.581  21.275  0.00  0.00    -0.285 NA
ATOM      8  C   UNL     1      13.071  10.971  22.343  0.00  0.00    +0.149 C 
ATOM      9  C   UNL     1      12.117  10.844  23.544  0.00  0.00    +0.061 C 
ATOM     10  C   UNL     1      10.801  11.449  23.069  0.00  0.00    +0.130 C 
ATOM     11  C   UNL     1      11.222  12.373  21.942  0.00  0.00    +0.116 C 
ENDROOT
BRANCH   8  13
ATOM      2  O   UNL     1      12.941   8.535  22.200  0.00  0.00    -0.336 OA
ATOM      4  N   UNL     1      14.819   9.402  21.342  0.00  0.00    -0.190 NA
ATOM      5  N   UNL     1      13.693   7.449  21.735  0.00  0.00    -0.056 NA
ATOM     13  C   UNL     1      13.675   9.646  21.930  0.00  0.00    +0.245 A 
ATOM     17  C   UNL     1      14.785   8.042  21.243  0.00  0.00    +0.204 A 
BRANCH  17  20
ATOM      6  N   UNL     1      16.626   5.821  18.896  0.00  0.00    -0.263 NA
ATOM     20  C   UNL     1      15.860   7.303  20.646  0.00  0.00    +0.041 A 
ATOM     22  C   UNL     1      17.140   7.333  21.191  0.00  0.00    +0.014 A 
ATOM     23  C   UNL     1      15.657   6.539  19.508  0.00  0.00    +0.122 A 
ATOM     25  C   UNL     1      18.162   6.606  20.590  0.00  0.00    +0.020 A 
ATOM     26  C   UNL     1      17.857   5.873  19.455  0.00  0.00    +0.111 A 
ENDBRANCH  17  20
ENDBRANCH   8  13
BRANCH  10   1
ATOM      1  O   UNL     1      10.166  12.155  24.118  0.00  0.00    -0.390 OA
ATOM     27  H   UNL     1      10.726  12.069  24.909  0.00  0.00    +0.210 HD
ENDBRANCH  10   1
BRANCH   3  12
ATOM     12  C   UNL     1      13.034  12.377  20.336  0.00  0.00    +0.120 C 
BRANCH  12  14
ATOM     14  C   UNL     1      13.253  11.655  19.033  0.00  0.00    -0.032 A 
ATOM     15  C   UNL     1      12.672  10.404  18.822  0.00  0.00    +0.023 A 
ATOM     16  C   UNL     1      14.038  12.236  18.039  0.00  0.00    +0.005 A 
ATOM     18  C   UNL     1      12.876   9.736  17.615  0.00  0.00    +0.052 A 
ATOM     19  C   UNL     1      14.244  11.568  16.831  0.00  0.00    +0.002 A 
ATOM     21  C   UNL     1      13.662  10.318  16.620  0.00  0.00    +0.019 A 
BRANCH  18  24
ATOM      7  N   UNL     1      11.794   7.418  17.220  0.00  0.00    -0.191 NA
ATOM     24  C   UNL     1      12.279   8.457  17.396  0.00  0.00    +0.099 C 
ENDBRANCH  18  24
ENDBRANCH  12  14
ENDBRANCH   3  12
TORSDOF 6
ENDMDL
MODEL 5
REMARK VINA RESULT:      -6.5      2.958      4.193
REMARK  Name = 26743960
REMARK  6 active torsions:
REMARK  status: ('A' for Active; 'I' for Inactive)
REMARK    1  A    between atoms: O_1  and  C_10
REMARK    2  A    between atoms: N_3  and  C_12
REMARK    3  A    between atoms: C_8  and  C_13
REMARK    4  A    between atoms: C_12  and  C_14
REMARK    5  A    between atoms: C_17  and  C_20
REMARK    6  A    between atoms: C_18  and  C_24
REMARK                            x       y       z     vdW  Elec       q    Type
REMARK                         _______ _______ _______ _____ _____    ______ ____
ROOT
ATOM      3  N   UNL     1      11.926  10.749  23.076  0.00  0.00    -0.285 NA
ATOM      8  C   UNL     1      13.003  11.747  22.923  0.00  0.00    +0.149 C 
ATOM      9  C   UNL     1      13.130  12.406  24.308  0.00  0.00    +0.061 C 
ATOM     10  C   UNL     1      12.054  11.744  25.160  0.00  0.00    +0.130 C 
ATOM     11  C   UNL     1      11.051  11.243  24.138  0.00  0.00    +0.116 C 
ENDROOT
BRANCH   8  13
ATOM      2  O   UNL     1      15.272  12.000  22.051  0.00  0.00    -0.336 OA
ATOM      4  N   UNL     1      14.639   9.873  22.347  0.00  0.00    -0.190 NA
ATOM      5  N   UNL     1      16.360  11.212  21.656  0.00  0.00    -0.056 NA
ATOM     13  C   UNL     1      14.302  11.134  22.443  0.00  0.00    +0.245 A 
ATOM     17  C   UNL     1      15.910   9.971  21.861  0.00  0.00    +0.204 A 
BRANCH  17  20
ATOM      6  N   UNL     1      18.894   7.808  21.368  0.00  0.00    -0.263 NA
ATOM     20  C   UNL     1      16.704   8.808  21.589  0.00  0.00    +0.041 A 
ATOM     22  C   UNL     1      16.108   7.586  21.292  0.00  0.00    +0.014 A 
ATOM     23  C   UNL     1      18.088   8.865  21.614  0.00  0.00    +0.122 A 
ATOM     25  C   UNL     1      16.904   6.476  21.033  0.00  0.00    +0.020 A 
ATOM     26  C   UNL     1      18.280   6.637  21.083  0.00  0.00    +0.111 A 
ENDBRANCH  17  20
ENDBRANCH   8  13
BRANCH  10   1
ATOM      1  O   UNL     1      11.474  12.678  26.051  0.00  0.00    -0.390 OA
ATOM     27  H   UNL     1      10.516  12.685  25.884  0.00  0.00    +0.210 HD
ENDBRANCH  10   1
BRANCH   3  12
ATOM     12  C   UNL     1      11.197  10.494  21.841  0.00  0.00    +0.120 C 
BRANCH  12  14
ATOM     14  C   UNL     1      11.525   9.141  21.265  0.00  0.00    -0.032 A 
ATOM     15  C   UNL     1      12.019   9.038  19.964  0.00  0.00    +0.023 A 
ATOM     16  C   UNL     1      11.334   7.993  22.032  0.00  0.00    +0.005 A 
ATOM     18  C   UNL     1      12.322   7.784  19.431  0.00  0.00    +0.052 A 
ATOM     19  C   UNL     1      11.636   6.739  21.500  0.00  0.00    +0.002 A 
ATOM     21  C   UNL     1      12.130   6.636  20.200  0.00  0.00    +0.019 A 
BRANCH  18  24
ATOM      7  N   UNL     1      13.244   7.590  17.021  0.00  0.00    -0.191 NA
ATOM     24  C   UNL     1      12.830   7.677  18.101  0.00  0.00    +0.099 C 
ENDBRANCH  18  24
ENDBRANCH  12  14
ENDBRANCH   3  12
TORSDOF 6
ENDMDL
MODEL 6
REMARK VINA RESULT:      -6.4     25.487     28.492
REMARK  Name = 26743960
REMARK  6 active torsions:
REMARK  status: ('A' for Active; 'I' for Inactive)
REMARK    1  A    between atoms: O_1  and  C_10
REMARK    2  A    between atoms: N_3  and  C_12
REMARK    3  A    between atoms: C_8  and  C_13
REMARK    4  A    between atoms: C_12  and  C_14
REMARK    5  A    between atoms: C_17  and  C_20
REMARK    6  A    between atoms: C_18  and  C_24
REMARK                            x       y       z     vdW  Elec       q    Type
REMARK                         _______ _______ _______ _____ _____    ______ ____
ROOT
ATOM      3  N   UNL     1      -3.178 -10.614  14.151  0.00  0.00    -0.285 NA
ATOM      8  C   UNL     1      -3.538 -11.218  15.449  0.00  0.00    +0.149 C 
ATOM      9  C   UNL     1      -2.399 -10.813  16.402  0.00  0.00    +0.061 C 
ATOM     10  C   UNL     1      -1.425 -10.022  15.537  0.00  0.00    +0.130 C 
ATOM     11  C   UNL     1      -1.720 -10.510  14.132  0.00  0.00    +0.116 C 
ENDROOT
BRANCH   8  13
ATOM      2  O   UNL     1      -5.476  -9.739  15.277  0.00  0.00    -0.336 OA
ATOM      4  N   UNL     1      -5.620 -11.246  16.927  0.00  0.00    -0.190 NA
ATOM      5  N   UNL     1      -6.708  -9.514  15.904  0.00  0.00    -0.056 NA
ATOM     13  C   UNL     1      -4.900 -10.775  15.941  0.00  0.00    +0.245 A 
ATOM     17  C   UNL     1      -6.720 -10.442  16.865  0.00  0.00    +0.204 A 
BRANCH  17  20
ATOM      6  N   UNL     1      -8.586 -11.101  20.013  0.00  0.00    -0.263 NA
ATOM     20  C   UNL     1      -7.815 -10.591  17.779  0.00  0.00    +0.041 A 
ATOM     22  C   UNL     1      -9.127 -10.382  17.366  0.00  0.00    +0.014 A 
ATOM     23  C   UNL     1      -7.600 -10.945  19.102  0.00  0.00    +0.122 A 
ATOM     25  C   UNL     1     -10.169 -10.534  18.275  0.00  0.00    +0.020 A 
ATOM     26  C   UNL     1      -9.848 -10.891  19.575  0.00  0.00    +0.111 A 
ENDBRANCH  17  20
ENDBRANCH   8  13
BRANCH  10   1
ATOM      1  O   UNL     1      -0.088 -10.288  15.916  0.00  0.00    -0.390 OA
ATOM     27  H   UNL     1       0.488  -9.726  15.370  0.00  0.00    +0.210 HD
ENDBRANCH  10   1
BRANCH   3  12
ATOM     12  C   UNL     1      -3.689 -11.359  13.007  0.00  0.00    +0.120 C 
BRANCH  12  14
ATOM     14  C   UNL     1      -4.006 -10.456  11.845  0.00  0.00    -0.032 A 
ATOM     15  C   UNL     1      -5.328 -10.098  11.579  0.00  0.00    +0.023 A 
ATOM     16  C   UNL     1      -2.977  -9.979  11.033  0.00  0.00    +0.005 A 
ATOM     18  C   UNL     1      -5.620  -9.262  10.502  0.00  0.00    +0.052 A 
ATOM     19  C   UNL     1      -3.269  -9.143   9.955  0.00  0.00    +0.002 A 
ATOM     21  C   UNL     1      -4.591  -8.785   9.690  0.00  0.00    +0.019 A 
BRANCH  18  24
ATOM      7  N   UNL     1      -8.072  -8.593  10.012  0.00  0.00    -0.191 NA
ATOM     24  C   UNL     1      -6.973  -8.892  10.231  0.00  0.00    +0.099 C 
ENDBRANCH  18  24
ENDBRANCH  12  14
ENDBRANCH   3  12
TORSDOF 6
ENDMDL
MODEL 7
REMARK VINA RESULT:      -6.3     25.482     28.425
REMARK  Name = 26743960
REMARK  6 active torsions:
REMARK  status: ('A' for Active; 'I' for Inactive)
REMARK    1  A    between atoms: O_1  and  C_10
REMARK    2  A    between atoms: N_3  and  C_12
REMARK    3  A    between atoms: C_8  and  C_13
REMARK    4  A    between atoms: C_12  and  C_14
REMARK    5  A    between atoms: C_17  and  C_20
REMARK    6  A    between atoms: C_18  and  C_24
REMARK                            x       y       z     vdW  Elec       q    Type
REMARK                         _______ _______ _______ _____ _____    ______ ____
ROOT
ATOM      3  N   UNL     1      -3.182 -10.619  14.249  0.00  0.00    -0.285 NA
ATOM      8  C   UNL     1      -3.543 -11.197  15.560  0.00  0.00    +0.149 C 
ATOM      9  C   UNL     1      -2.383 -10.808  16.494  0.00  0.00    +0.061 C 
ATOM     10  C   UNL     1      -1.398 -10.054  15.609  0.00  0.00    +0.130 C 
ATOM     11  C   UNL     1      -1.722 -10.553  14.213  0.00  0.00    +0.116 C 
ENDROOT
BRANCH   8  13
ATOM      2  O   UNL     1      -5.104 -10.803  17.398  0.00  0.00    -0.336 OA
ATOM      4  N   UNL     1      -5.891 -10.210  15.387  0.00  0.00    -0.190 NA
ATOM      5  N   UNL     1      -6.394 -10.302  17.617  0.00  0.00    -0.056 NA
ATOM     13  C   UNL     1      -4.887 -10.712  16.060  0.00  0.00    +0.245 A 
ATOM     17  C   UNL     1      -6.791  -9.973  16.385  0.00  0.00    +0.204 A 
BRANCH  17  20
ATOM      6  N   UNL     1      -9.884  -9.023  14.552  0.00  0.00    -0.263 NA
ATOM     20  C   UNL     1      -8.082  -9.407  16.117  0.00  0.00    +0.041 A 
ATOM     22  C   UNL     1      -8.780  -8.717  17.102  0.00  0.00    +0.014 A 
ATOM     23  C   UNL     1      -8.673  -9.531  14.870  0.00  0.00    +0.122 A 
ATOM     25  C   UNL     1     -10.029  -8.178  16.813  0.00  0.00    +0.020 A 
ATOM     26  C   UNL     1     -10.533  -8.357  15.535  0.00  0.00    +0.111 A 
ENDBRANCH  17  20
ENDBRANCH   8  13
BRANCH  10   1
ATOM      1  O   UNL     1      -0.065 -10.349  15.976  0.00  0.00    -0.390 OA
ATOM     27  H   UNL     1       0.514  -9.732  15.497  0.00  0.00    +0.210 HD
ENDBRANCH  10   1
BRANCH   3  12
ATOM     12  C   UNL     1      -3.724 -11.366  13.122  0.00  0.00    +0.120 C 
BRANCH  12  14
ATOM     14  C   UNL     1      -4.013 -10.474  11.944  0.00  0.00    -0.032 A 
ATOM     15  C   UNL     1      -5.329 -10.123  11.640  0.00  0.00    +0.023 A 
ATOM     16  C   UNL     1      -2.965  -9.999  11.157  0.00  0.00    +0.005 A 
ATOM     18  C   UNL     1      -5.595  -9.296  10.548  0.00  0.00    +0.052 A 
ATOM     19  C   UNL     1      -3.231  -9.173  10.064  0.00  0.00    +0.002 A 
ATOM     21  C   UNL     1      -4.546  -8.821   9.761  0.00  0.00    +0.019 A 
BRANCH  18  24
ATOM      7  N   UNL     1      -8.035  -8.639   9.986  0.00  0.00    -0.191 NA
ATOM     24  C   UNL     1      -6.942  -8.934  10.238  0.00  0.00    +0.099 C 
ENDBRANCH  18  24
ENDBRANCH  12  14
ENDBRANCH   3  12
TORSDOF 6
ENDMDL
MODEL 8
REMARK VINA RESULT:      -6.1      2.746      5.856
REMARK  Name = 26743960
REMARK  6 active torsions:
REMARK  status: ('A' for Active; 'I' for Inactive)
REMARK    1  A    between atoms: O_1  and  C_10
REMARK    2  A    between atoms: N_3  and  C_12
REMARK    3  A    between atoms: C_8  and  C_13
REMARK    4  A    between atoms: C_12  and  C_14
REMARK    5  A    between atoms: C_17  and  C_20
REMARK    6  A    between atoms: C_18  and  C_24
REMARK                            x       y       z     vdW  Elec       q    Type
REMARK                         _______ _______ _______ _____ _____    ______ ____
ROOT
ATOM      3  N   UNL     1      15.869   7.079  19.808  0.00  0.00    -0.285 NA
ATOM      8  C   UNL     1      16.125   7.286  21.247  0.00  0.00    +0.149 C 
ATOM      9  C   UNL     1      17.646   7.107  21.405  0.00  0.00    +0.061 C 
ATOM     10  C   UNL     1      18.150   6.758  20.010  0.00  0.00    +0.130 C 
ATOM     11  C   UNL     1      16.923   6.191  19.322  0.00  0.00    +0.116 C 
ENDROOT
BRANCH   8  13
ATOM      2  O   UNL     1      16.587   9.584  21.937  0.00  0.00    -0.336 OA
ATOM      4  N   UNL     1      14.419   9.026  22.008  0.00  0.00    -0.190 NA
ATOM      5  N   UNL     1      15.907  10.724  22.384  0.00  0.00    -0.056 NA
ATOM     13  C   UNL     1      15.639   8.632  21.739  0.00  0.00    +0.245 A 
ATOM     17  C   UNL     1      14.634  10.316  22.399  0.00  0.00    +0.204 A 
BRANCH  17  20
ATOM      6  N   UNL     1      12.662  12.765  24.383  0.00  0.00    -0.263 NA
ATOM     20  C   UNL     1      13.555  11.171  22.800  0.00  0.00    +0.041 A 
ATOM     22  C   UNL     1      12.390  11.257  22.045  0.00  0.00    +0.014 A 
ATOM     23  C   UNL     1      13.641  11.940  23.950  0.00  0.00    +0.122 A 
ATOM     25  C   UNL     1      11.360  12.096  22.458  0.00  0.00    +0.020 A 
ATOM     26  C   UNL     1      11.544  12.822  23.623  0.00  0.00    +0.111 A 
ENDBRANCH  17  20
ENDBRANCH   8  13
BRANCH  10   1
ATOM      1  O   UNL     1      19.200   5.812  20.078  0.00  0.00    -0.390 OA
ATOM     27  H   UNL     1      18.945   5.140  20.733  0.00  0.00    +0.210 HD
ENDBRANCH  10   1
BRANCH   3  12
ATOM     12  C   UNL     1      14.538   6.553  19.530  0.00  0.00    +0.120 C 
BRANCH  12  14
ATOM     14  C   UNL     1      13.725   7.498  18.686  0.00  0.00    -0.032 A 
ATOM     15  C   UNL     1      14.311   8.138  17.594  0.00  0.00    +0.023 A 
ATOM     16  C   UNL     1      12.387   7.734  18.997  0.00  0.00    +0.005 A 
ATOM     18  C   UNL     1      13.558   9.014  16.813  0.00  0.00    +0.052 A 
ATOM     19  C   UNL     1      11.633   8.611  18.217  0.00  0.00    +0.002 A 
ATOM     21  C   UNL     1      12.218   9.250  17.125  0.00  0.00    +0.019 A 
BRANCH  18  24
ATOM      7  N   UNL     1      14.640  10.198  14.781  0.00  0.00    -0.191 NA
ATOM     24  C   UNL     1      14.155   9.668  15.692  0.00  0.00    +0.099 C 
ENDBRANCH  18  24
ENDBRANCH  12  14
ENDBRANCH   3  12
TORSDOF 6
ENDMDL
MODEL 9
REMARK VINA RESULT:      -6.1     25.585     28.375
REMARK  Name = 26743960
REMARK  6 active torsions:
REMARK  status: ('A' for Active; 'I' for Inactive)
REMARK    1  A    between atoms: O_1  and  C_10
REMARK    2  A    between atoms: N_3  and  C_12
REMARK    3  A    between atoms: C_8  and  C_13
REMARK    4  A    between atoms: C_12  and  C_14
REMARK    5  A    between atoms: C_17  and  C_20
REMARK    6  A    between atoms: C_18  and  C_24
REMARK                            x       y       z     vdW  Elec       q    Type
REMARK                         _______ _______ _______ _____ _____    ______ ____
ROOT
ATOM      3  N   UNL     1      -5.485 -10.855  16.745  0.00  0.00    -0.285 NA
ATOM      8  C   UNL     1      -6.882 -11.103  16.337  0.00  0.00    +0.149 C 
ATOM      9  C   UNL     1      -7.734 -10.547  17.492  0.00  0.00    +0.061 C 
ATOM     10  C   UNL     1      -6.727 -10.049  18.522  0.00  0.00    +0.130 C 
ATOM     11  C   UNL     1      -5.475 -10.846  18.207  0.00  0.00    +0.116 C 
ENDROOT
BRANCH   8  13
ATOM      2  O   UNL     1      -8.511 -10.090  14.824  0.00  0.00    -0.336 OA
ATOM      4  N   UNL     1      -6.444 -10.240  13.975  0.00  0.00    -0.190 NA
ATOM      5  N   UNL     1      -8.579  -9.545  13.535  0.00  0.00    -0.056 NA
ATOM     13  C   UNL     1      -7.221 -10.474  15.003  0.00  0.00    +0.245 A 
ATOM     17  C   UNL     1      -7.322  -9.669  13.100  0.00  0.00    +0.204 A 
BRANCH  17  20
ATOM      6  N   UNL     1      -7.489  -8.774   9.495  0.00  0.00    -0.263 NA
ATOM     20  C   UNL     1      -6.911  -9.233  11.797  0.00  0.00    +0.041 A 
ATOM     22  C   UNL     1      -5.596  -8.851  11.551  0.00  0.00    +0.014 A 
ATOM     23  C   UNL     1      -7.811  -9.176  10.745  0.00  0.00    +0.122 A 
ATOM     25  C   UNL     1      -5.226  -8.433  10.277  0.00  0.00    +0.020 A 
ATOM     26  C   UNL     1      -6.201  -8.412   9.293  0.00  0.00    +0.111 A 
ENDBRANCH  17  20
ENDBRANCH   8  13
BRANCH  10   1
ATOM      1  O   UNL     1      -7.190 -10.294  19.836  0.00  0.00    -0.390 OA
ATOM     27  H   UNL     1      -8.014 -10.805  19.765  0.00  0.00    +0.210 HD
ENDBRANCH  10   1
BRANCH   3  12
ATOM     12  C   UNL     1      -4.544 -11.824  16.198  0.00  0.00    +0.120 C 
BRANCH  12  14
ATOM     14  C   UNL     1      -3.340 -11.156  15.589  0.00  0.00    -0.032 A 
ATOM     15  C   UNL     1      -3.281 -10.944  14.212  0.00  0.00    +0.023 A 
ATOM     16  C   UNL     1      -2.284 -10.749  16.404  0.00  0.00    +0.005 A 
ATOM     18  C   UNL     1      -2.164 -10.325  13.649  0.00  0.00    +0.052 A 
ATOM     19  C   UNL     1      -1.167 -10.131  15.842  0.00  0.00    +0.002 A 
ATOM     21  C   UNL     1      -1.108  -9.919  14.464  0.00  0.00    +0.019 A 
BRANCH  18  24
ATOM      7  N   UNL     1      -2.054  -9.927  11.094  0.00  0.00    -0.191 NA
ATOM     24  C   UNL     1      -2.104 -10.105  12.239  0.00  0.00    +0.099 C 
ENDBRANCH  18  24
ENDBRANCH  12  14
ENDBRANCH   3  12
TORSDOF 6
ENDMDL
MODEL 10
REMARK VINA RESULT:      -6.0     26.657     28.800
REMARK  Name = 26743960
REMARK  6 active torsions:
REMARK  status: ('A' for Active; 'I' for Inactive)
REMARK    1  A    between atoms: O_1  and  C_10
REMARK    2  A    between atoms: N_3  and  C_12
REMARK    3  A    between atoms: C_8  and  C_13
REMARK    4  A    between atoms: C_12  and  C_14
REMARK    5  A    between atoms: C_17  and  C_20
REMARK    6  A    between atoms: C_18  and  C_24
REMARK                            x       y       z     vdW  Elec       q    Type
REMARK                         _______ _______ _______ _____ _____    ______ ____
ROOT
ATOM      3  N   UNL     1      -8.160  -9.810  16.329  0.00  0.00    -0.285 NA
ATOM      8  C   UNL     1      -8.936  -9.729  15.076  0.00  0.00    +0.149 C 
ATOM      9  C   UNL     1      -9.745  -8.425  15.198  0.00  0.00    +0.061 C 
ATOM     10  C   UNL     1      -9.391  -7.867  16.572  0.00  0.00    +0.130 C 
ATOM     11  C   UNL     1      -8.930  -9.090  17.342  0.00  0.00    +0.116 C 
ENDROOT
BRANCH   8  13
ATOM      2  O   UNL     1      -8.693  -9.908  12.651  0.00  0.00    -0.336 OA
ATOM      4  N   UNL     1      -6.756  -9.669  13.749  0.00  0.00    -0.190 NA
ATOM      5  N   UNL     1      -7.690  -9.910  11.674  0.00  0.00    -0.056 NA
ATOM     13  C   UNL     1      -8.059  -9.762  13.843  0.00  0.00    +0.245 A 
ATOM     17  C   UNL     1      -6.577  -9.765  12.400  0.00  0.00    +0.204 A 
BRANCH  17  20
ATOM      6  N   UNL     1      -2.938 -10.336  11.892  0.00  0.00    -0.263 NA
ATOM     20  C   UNL     1      -5.272  -9.712  11.807  0.00  0.00    +0.041 A 
ATOM     22  C   UNL     1      -5.052  -9.021  10.620  0.00  0.00    +0.014 A 
ATOM     23  C   UNL     1      -4.192 -10.347  12.398  0.00  0.00    +0.122 A 
ATOM     25  C   UNL     1      -3.775  -8.987  10.069  0.00  0.00    +0.020 A 
ATOM     26  C   UNL     1      -2.762  -9.655  10.737  0.00  0.00    +0.111 A 
ENDBRANCH  17  20
ENDBRANCH   8  13
BRANCH  10   1
ATOM      1  O   UNL     1     -10.518  -7.261  17.173  0.00  0.00    -0.390 OA
ATOM     27  H   UNL     1     -10.845  -6.580  16.561  0.00  0.00    +0.210 HD
ENDBRANCH  10   1
BRANCH   3  12
ATOM     12  C   UNL     1      -7.865 -11.178  16.736  0.00  0.00    +0.120 C 
BRANCH  12  14
ATOM     14  C   UNL     1      -6.498 -11.297  17.356  0.00  0.00    -0.032 A 
ATOM     15  C   UNL     1      -5.361 -11.022  16.597  0.00  0.00    +0.023 A 
ATOM     16  C   UNL     1      -6.370 -11.684  18.690  0.00  0.00    +0.005 A 
ATOM     18  C   UNL     1      -4.095 -11.133  17.173  0.00  0.00    +0.052 A 
ATOM     19  C   UNL     1      -5.105 -11.796  19.266  0.00  0.00    +0.002 A 
ATOM     21  C   UNL     1      -3.967 -11.520  18.507  0.00  0.00    +0.019 A 
BRANCH  18  24
ATOM      7  N   UNL     1      -1.983 -10.616  15.768  0.00  0.00    -0.191 NA
ATOM     24  C   UNL     1      -2.930 -10.848  16.397  0.00  0.00    +0.099 C 
ENDBRANCH  18  24
ENDBRANCH  12  14
ENDBRANCH   3  12
TORSDOF 6
ENDMDL
