MODEL 1
REMARK VINA RESULT:      -7.8      0.000      0.000
REMARK  Name = 51137242
REMARK  4 active torsions:
REMARK  status: ('A' for Active; 'I' for Inactive)
REMARK    1  A    between atoms: N_3  and  C_11
REMARK    2  A    between atoms: C_7  and  C_12
REMARK    3  A    between atoms: C_11  and  C_13
REMARK    4  A    between atoms: C_17  and  C_21
REMARK                            x       y       z     vdW  Elec       q    Type
REMARK                         _______ _______ _______ _____ _____    ______ ____
ROOT
ATOM      3  N   UNL     1      16.785   7.613  20.580  0.00  0.00    -0.297 NA
ATOM      7  C   UNL     1      19.013   6.915  20.794  0.00  0.00    +0.092 C 
ATOM      8  C   UNL     1      17.916   7.721  21.504  0.00  0.00    +0.097 C 
ATOM      9  C   UNL     1      18.251   5.932  19.889  0.00  0.00    +0.029 C 
ATOM     10  C   UNL     1      16.778   6.213  20.155  0.00  0.00    +0.085 C 
ENDROOT
BRANCH   7  12
ATOM      2  O   UNL     1      20.712   5.221  21.283  0.00  0.00    -0.420 OA
ATOM      4  N   UNL     1      20.246   6.568  23.007  0.00  0.00    -0.112 NA
ATOM      6  N   UNL     1      21.211   5.668  23.418  0.00  0.00    -0.107 NA
ATOM     12  C   UNL     1      19.985   6.270  21.756  0.00  0.00    +0.222 A 
ATOM     17  C   UNL     1      21.453   4.901  22.380  0.00  0.00    +0.248 A 
BRANCH  17  21
ATOM      1 CL   UNL     1      25.208   0.337  21.746  0.00  0.00    -0.084 Cl
ATOM     21  C   UNL     1      22.359   3.801  22.228  0.00  0.00    +0.039 A 
ATOM     23  C   UNL     1      22.891   3.505  20.973  0.00  0.00    +0.014 A 
ATOM     24  C   UNL     1      22.708   3.026  23.334  0.00  0.00    +0.014 A 
ATOM     25  C   UNL     1      23.772   2.433  20.824  0.00  0.00    +0.021 A 
ATOM     26  C   UNL     1      23.589   1.955  23.185  0.00  0.00    +0.021 A 
ATOM     27  C   UNL     1      24.121   1.659  21.931  0.00  0.00    +0.041 A 
ENDBRANCH  17  21
ENDBRANCH   7  12
BRANCH   3  11
ATOM     11  C   UNL     1      15.528   8.012  21.194  0.00  0.00    +0.121 C 
BRANCH  11  13
ATOM      5  N   UNL     1      12.516   6.712  19.527  0.00  0.00    -0.360 N 
ATOM     13  C   UNL     1      14.347   7.685  20.319  0.00  0.00    -0.008 A 
ATOM     14  C   UNL     1      13.976   8.347  19.114  0.00  0.00    +0.004 A 
ATOM     15  C   UNL     1      13.430   6.685  20.544  0.00  0.00    +0.088 A 
ATOM     16  C   UNL     1      12.825   7.717  18.637  0.00  0.00    +0.047 A 
ATOM     18  C   UNL     1      14.512   9.426  18.382  0.00  0.00    +0.010 A 
ATOM     19  C   UNL     1      12.180   8.113  17.460  0.00  0.00    +0.026 A 
ATOM     20  C   UNL     1      13.877   9.832  17.203  0.00  0.00    +0.001 A 
ATOM     22  C   UNL     1      12.728   9.185  16.751  0.00  0.00    +0.002 A 
ATOM     28  H   UNL     1      11.728   6.085  19.438  0.00  0.00    +0.165 HD
ENDBRANCH  11  13
ENDBRANCH   3  11
TORSDOF 4
ENDMDL
MODEL 2
REMARK VINA RESULT:      -7.7      1.207      1.923
REMARK  Name = 51137242
REMARK  4 active torsions:
REMARK  status: ('A' for Active; 'I' for Inactive)
REMARK    1  A    between atoms: N_3  and  C_11
REMARK    2  A    between atoms: C_7  and  C_12
REMARK    3  A    between atoms: C_11  and  C_13
REMARK    4  A    between atoms: C_17  and  C_21
REMARK                            x       y       z     vdW  Elec       q    Type
REMARK                         _______ _______ _______ _____ _____    ______ ____
ROOT
ATOM      3  N   UNL     1      17.273   7.945  20.690  0.00  0.00    -0.297 NA
ATOM      7  C   UNL     1      19.364   6.899  20.870  0.00  0.00    +0.092 C 
ATOM      8  C   UNL     1      18.466   7.947  21.540  0.00  0.00    +0.097 C 
ATOM      9  C   UNL     1      18.391   5.977  20.115  0.00  0.00    +0.029 C 
ATOM     10  C   UNL     1      17.006   6.532  20.420  0.00  0.00    +0.085 C 
ENDROOT
BRANCH   7  12
ATOM      2  O   UNL     1      21.003   5.148  21.366  0.00  0.00    -0.420 OA
ATOM      4  N   UNL     1      20.487   6.438  23.120  0.00  0.00    -0.112 NA
ATOM      6  N   UNL     1      21.413   5.500  23.537  0.00  0.00    -0.107 NA
ATOM     12  C   UNL     1      20.278   6.195  21.847  0.00  0.00    +0.222 A 
ATOM     17  C   UNL     1      21.686   4.770  22.482  0.00  0.00    +0.248 A 
BRANCH  17  21
ATOM      1 CL   UNL     1      25.369   0.149  21.834  0.00  0.00    -0.084 Cl
ATOM     21  C   UNL     1      22.574   3.656  22.325  0.00  0.00    +0.039 A 
ATOM     23  C   UNL     1      22.731   3.058  21.075  0.00  0.00    +0.014 A 
ATOM     24  C   UNL     1      23.282   3.168  23.424  0.00  0.00    +0.014 A 
ATOM     25  C   UNL     1      23.595   1.973  20.923  0.00  0.00    +0.021 A 
ATOM     26  C   UNL     1      24.146   2.084  23.273  0.00  0.00    +0.021 A 
ATOM     27  C   UNL     1      24.303   1.487  22.022  0.00  0.00    +0.041 A 
ENDBRANCH  17  21
ENDBRANCH   7  12
BRANCH   3  11
ATOM     11  C   UNL     1      16.143   8.612  21.317  0.00  0.00    +0.121 C 
BRANCH  11  13
ATOM      5  N   UNL     1      13.765   9.105  18.553  0.00  0.00    -0.360 N 
ATOM     13  C   UNL     1      14.972   8.737  20.379  0.00  0.00    -0.008 A 
ATOM     14  C   UNL     1      13.606   8.489  20.691  0.00  0.00    +0.004 A 
ATOM     15  C   UNL     1      15.037   9.114  19.057  0.00  0.00    +0.088 A 
ATOM     16  C   UNL     1      12.869   8.729  19.529  0.00  0.00    +0.047 A 
ATOM     18  C   UNL     1      12.923   8.084  21.855  0.00  0.00    +0.010 A 
ATOM     19  C   UNL     1      11.479   8.582  19.472  0.00  0.00    +0.026 A 
ATOM     20  C   UNL     1      11.532   7.933  21.812  0.00  0.00    +0.001 A 
ATOM     22  C   UNL     1      10.823   8.178  20.638  0.00  0.00    +0.002 A 
ATOM     28  H   UNL     1      13.517   9.342  17.602  0.00  0.00    +0.165 HD
ENDBRANCH  11  13
ENDBRANCH   3  11
TORSDOF 4
ENDMDL
MODEL 3
REMARK VINA RESULT:      -7.4     27.781     31.315
REMARK  Name = 51137242
REMARK  4 active torsions:
REMARK  status: ('A' for Active; 'I' for Inactive)
REMARK    1  A    between atoms: N_3  and  C_11
REMARK    2  A    between atoms: C_7  and  C_12
REMARK    3  A    between atoms: C_11  and  C_13
REMARK    4  A    between atoms: C_17  and  C_21
REMARK                            x       y       z     vdW  Elec       q    Type
REMARK                         _______ _______ _______ _____ _____    ______ ____
ROOT
ATOM      3  N   UNL     1      -4.492 -11.689  17.239  0.00  0.00    -0.297 NA
ATOM      7  C   UNL     1      -6.099 -10.683  18.619  0.00  0.00    +0.092 C 
ATOM      8  C   UNL     1      -5.700 -10.867  17.148  0.00  0.00    +0.097 C 
ATOM      9  C   UNL     1      -5.483 -11.893  19.343  0.00  0.00    +0.029 C 
ATOM     10  C   UNL     1      -4.800 -12.702  18.249  0.00  0.00    +0.085 C 
ENDROOT
BRANCH   7  12
ATOM      2  O   UNL     1      -8.233  -9.687  17.946  0.00  0.00    -0.420 OA
ATOM      4  N   UNL     1      -8.385 -11.070  19.697  0.00  0.00    -0.112 NA
ATOM      6  N   UNL     1      -9.650 -10.583  19.427  0.00  0.00    -0.107 NA
ATOM     12  C   UNL     1      -7.590 -10.521  18.809  0.00  0.00    +0.222 A 
ATOM     17  C   UNL     1      -9.514  -9.780  18.397  0.00  0.00    +0.248 A 
BRANCH  17  21
ATOM      1 CL   UNL     1     -13.550  -6.550  15.465  0.00  0.00    -0.084 Cl
ATOM     21  C   UNL     1     -10.487  -9.001  17.690  0.00  0.00    +0.039 A 
ATOM     23  C   UNL     1     -10.137  -7.758  17.164  0.00  0.00    +0.014 A 
ATOM     24  C   UNL     1     -11.785  -9.487  17.528  0.00  0.00    +0.014 A 
ATOM     25  C   UNL     1     -11.085  -6.999  16.476  0.00  0.00    +0.021 A 
ATOM     26  C   UNL     1     -12.732  -8.729  16.840  0.00  0.00    +0.021 A 
ATOM     27  C   UNL     1     -12.382  -7.486  16.313  0.00  0.00    +0.041 A 
ENDBRANCH  17  21
ENDBRANCH   7  12
BRANCH   3  11
ATOM     11  C   UNL     1      -4.122 -12.275  15.960  0.00  0.00    +0.121 C 
BRANCH  11  13
ATOM      5  N   UNL     1      -1.554  -9.952  14.717  0.00  0.00    -0.360 N 
ATOM     13  C   UNL     1      -3.172 -11.395  15.193  0.00  0.00    -0.008 A 
ATOM     14  C   UNL     1      -3.112 -11.244  13.779  0.00  0.00    +0.004 A 
ATOM     15  C   UNL     1      -2.203 -10.587  15.740  0.00  0.00    +0.088 A 
ATOM     16  C   UNL     1      -2.089 -10.332  13.506  0.00  0.00    +0.047 A 
ATOM     18  C   UNL     1      -3.833 -11.796  12.701  0.00  0.00    +0.010 A 
ATOM     19  C   UNL     1      -1.749  -9.945  12.205  0.00  0.00    +0.026 A 
ATOM     20  C   UNL     1      -3.503 -11.418  11.394  0.00  0.00    +0.001 A 
ATOM     22  C   UNL     1      -2.477 -10.507  11.152  0.00  0.00    +0.002 A 
ATOM     28  H   UNL     1      -0.793  -9.296  14.831  0.00  0.00    +0.165 HD
ENDBRANCH  11  13
ENDBRANCH   3  11
TORSDOF 4
ENDMDL
MODEL 4
REMARK VINA RESULT:      -7.3      4.231      5.614
REMARK  Name = 51137242
REMARK  4 active torsions:
REMARK  status: ('A' for Active; 'I' for Inactive)
REMARK    1  A    between atoms: N_3  and  C_11
REMARK    2  A    between atoms: C_7  and  C_12
REMARK    3  A    between atoms: C_11  and  C_13
REMARK    4  A    between atoms: C_17  and  C_21
REMARK                            x       y       z     vdW  Elec       q    Type
REMARK                         _______ _______ _______ _____ _____    ______ ____
ROOT
ATOM      3  N   UNL     1      13.083  10.183  20.625  0.00  0.00    -0.297 NA
ATOM      7  C   UNL     1      15.244   9.324  20.321  0.00  0.00    +0.092 C 
ATOM      8  C   UNL     1      13.925   9.067  21.063  0.00  0.00    +0.097 C 
ATOM      9  C   UNL     1      14.843  10.156  19.090  0.00  0.00    +0.029 C 
ATOM     10  C   UNL     1      13.330  10.299  19.187  0.00  0.00    +0.085 C 
ENDROOT
BRANCH   7  12
ATOM      2  O   UNL     1      17.176   7.860  20.668  0.00  0.00    -0.420 OA
ATOM      4  N   UNL     1      15.698   7.081  19.181  0.00  0.00    -0.112 NA
ATOM      6  N   UNL     1      16.728   6.165  19.279  0.00  0.00    -0.107 NA
ATOM     12  C   UNL     1      16.001   8.053  20.009  0.00  0.00    +0.222 A 
ATOM     17  C   UNL     1      17.568   6.660  20.158  0.00  0.00    +0.248 A 
BRANCH  17  21
ATOM      1 CL   UNL     1      22.718   4.516  22.210  0.00  0.00    -0.084 Cl
ATOM     21  C   UNL     1      18.809   6.142  20.653  0.00  0.00    +0.039 A 
ATOM     23  C   UNL     1      19.393   6.699  21.790  0.00  0.00    +0.014 A 
ATOM     24  C   UNL     1      19.435   5.082  19.996  0.00  0.00    +0.014 A 
ATOM     25  C   UNL     1      20.603   6.197  22.272  0.00  0.00    +0.021 A 
ATOM     26  C   UNL     1      20.643   4.579  20.478  0.00  0.00    +0.021 A 
ATOM     27  C   UNL     1      21.227   5.135  21.616  0.00  0.00    +0.041 A 
ENDBRANCH  17  21
ENDBRANCH   7  12
BRANCH   3  11
ATOM     11  C   UNL     1      11.677   9.969  20.930  0.00  0.00    +0.121 C 
BRANCH  11  13
ATOM      5  N   UNL     1      10.494  11.413  24.101  0.00  0.00    -0.360 N 
ATOM     13  C   UNL     1      11.222  10.811  22.093  0.00  0.00    -0.008 A 
ATOM     14  C   UNL     1      11.111  12.230  22.119  0.00  0.00    +0.004 A 
ATOM     15  C   UNL     1      10.835  10.339  23.326  0.00  0.00    +0.088 A 
ATOM     16  C   UNL     1      10.652  12.582  23.390  0.00  0.00    +0.047 A 
ATOM     18  C   UNL     1      11.357  13.251  21.181  0.00  0.00    +0.010 A 
ATOM     19  C   UNL     1      10.427  13.909  23.771  0.00  0.00    +0.026 A 
ATOM     20  C   UNL     1      11.136  14.583  21.548  0.00  0.00    +0.001 A 
ATOM     22  C   UNL     1      10.679  14.905  22.824  0.00  0.00    +0.002 A 
ATOM     28  H   UNL     1      10.172  11.359  25.058  0.00  0.00    +0.165 HD
ENDBRANCH  11  13
ENDBRANCH   3  11
TORSDOF 4
ENDMDL
MODEL 5
REMARK VINA RESULT:      -7.3      5.006      9.247
REMARK  Name = 51137242
REMARK  4 active torsions:
REMARK  status: ('A' for Active; 'I' for Inactive)
REMARK    1  A    between atoms: N_3  and  C_11
REMARK    2  A    between atoms: C_7  and  C_12
REMARK    3  A    between atoms: C_11  and  C_13
REMARK    4  A    between atoms: C_17  and  C_21
REMARK                            x       y       z     vdW  Elec       q    Type
REMARK                         _______ _______ _______ _____ _____    ______ ____
ROOT
ATOM      3  N   UNL     1      12.985   8.095  18.750  0.00  0.00    -0.297 NA
ATOM      7  C   UNL     1      13.404   9.927  17.348  0.00  0.00    +0.092 C 
ATOM      8  C   UNL     1      14.106   8.861  18.200  0.00  0.00    +0.097 C 
ATOM      9  C   UNL     1      12.042   9.306  16.991  0.00  0.00    +0.029 C 
ATOM     10  C   UNL     1      12.059   7.924  17.630  0.00  0.00    +0.085 C 
ENDROOT
BRANCH   7  12
ATOM      2  O   UNL     1      15.349  11.097  16.430  0.00  0.00    -0.420 OA
ATOM      4  N   UNL     1      14.034  10.162  14.881  0.00  0.00    -0.112 NA
ATOM      6  N   UNL     1      15.084  10.784  14.231  0.00  0.00    -0.107 NA
ATOM     12  C   UNL     1      14.230  10.371  16.162  0.00  0.00    +0.222 A 
ATOM     17  C   UNL     1      15.826  11.316  15.174  0.00  0.00    +0.248 A 
BRANCH  17  21
ATOM      1 CL   UNL     1      20.850  14.471  14.808  0.00  0.00    -0.084 Cl
ATOM     21  C   UNL     1      17.037  12.077  15.085  0.00  0.00    +0.039 A 
ATOM     23  C   UNL     1      17.785  12.064  13.908  0.00  0.00    +0.014 A 
ATOM     24  C   UNL     1      17.469  12.830  16.178  0.00  0.00    +0.014 A 
ATOM     25  C   UNL     1      18.965  12.804  13.822  0.00  0.00    +0.021 A 
ATOM     26  C   UNL     1      18.648  13.570  16.092  0.00  0.00    +0.021 A 
ATOM     27  C   UNL     1      19.396  13.558  14.915  0.00  0.00    +0.041 A 
ENDBRANCH  17  21
ENDBRANCH   7  12
BRANCH   3  11
ATOM     11  C   UNL     1      13.408   6.824  19.319  0.00  0.00    +0.121 C 
BRANCH  11  13
ATOM      5  N   UNL     1      15.743   7.533  22.072  0.00  0.00    -0.360 N 
ATOM     13  C   UNL     1      14.559   6.993  20.275  0.00  0.00    -0.008 A 
ATOM     14  C   UNL     1      15.907   6.590  20.057  0.00  0.00    +0.004 A 
ATOM     15  C   UNL     1      14.491   7.569  21.522  0.00  0.00    +0.088 A 
ATOM     16  C   UNL     1      16.629   6.941  21.200  0.00  0.00    +0.047 A 
ATOM     18  C   UNL     1      16.583   5.959  18.995  0.00  0.00    +0.010 A 
ATOM     19  C   UNL     1      17.999   6.691  21.333  0.00  0.00    +0.026 A 
ATOM     20  C   UNL     1      17.954   5.704  19.114  0.00  0.00    +0.001 A 
ATOM     22  C   UNL     1      18.649   6.064  20.267  0.00  0.00    +0.002 A 
ATOM     28  H   UNL     1      15.985   7.890  22.987  0.00  0.00    +0.165 HD
ENDBRANCH  11  13
ENDBRANCH   3  11
TORSDOF 4
ENDMDL
MODEL 6
REMARK VINA RESULT:      -7.2      6.096      9.905
REMARK  Name = 51137242
REMARK  4 active torsions:
REMARK  status: ('A' for Active; 'I' for Inactive)
REMARK    1  A    between atoms: N_3  and  C_11
REMARK    2  A    between atoms: C_7  and  C_12
REMARK    3  A    between atoms: C_11  and  C_13
REMARK    4  A    between atoms: C_17  and  C_21
REMARK                            x       y       z     vdW  Elec       q    Type
REMARK                         _______ _______ _______ _____ _____    ______ ____
ROOT
ATOM      3  N   UNL     1      14.710   6.615  19.196  0.00  0.00    -0.297 NA
ATOM      7  C   UNL     1      12.589   6.703  20.192  0.00  0.00    +0.092 C 
ATOM      8  C   UNL     1      14.088   6.799  20.509  0.00  0.00    +0.097 C 
ATOM      9  C   UNL     1      12.479   7.098  18.709  0.00  0.00    +0.029 C 
ATOM     10  C   UNL     1      13.904   7.421  18.280  0.00  0.00    +0.085 C 
ENDROOT
BRANCH   7  12
ATOM      2  O   UNL     1      12.054   8.837  21.266  0.00  0.00    -0.420 OA
ATOM      4  N   UNL     1      10.707   7.154  21.862  0.00  0.00    -0.112 NA
ATOM      6  N   UNL     1      10.296   8.288  22.536  0.00  0.00    -0.107 NA
ATOM     12  C   UNL     1      11.734   7.521  21.133  0.00  0.00    +0.222 A 
ATOM     17  C   UNL     1      11.110   9.246  22.158  0.00  0.00    +0.248 A 
BRANCH  17  21
ATOM      1 CL   UNL     1      11.305  14.980  23.711  0.00  0.00    -0.084 Cl
ATOM     21  C   UNL     1      11.157  10.629  22.532  0.00  0.00    +0.039 A 
ATOM     23  C   UNL     1      10.871  11.006  23.844  0.00  0.00    +0.014 A 
ATOM     24  C   UNL     1      11.489  11.597  21.585  0.00  0.00    +0.014 A 
ATOM     25  C   UNL     1      10.917  12.352  24.209  0.00  0.00    +0.021 A 
ATOM     26  C   UNL     1      11.534  12.943  21.949  0.00  0.00    +0.021 A 
ATOM     27  C   UNL     1      11.249  13.320  23.261  0.00  0.00    +0.041 A 
ENDBRANCH  17  21
ENDBRANCH   7  12
BRANCH   3  11
ATOM     11  C   UNL     1      16.112   7.002  19.188  0.00  0.00    +0.121 C 
BRANCH  11  13
ATOM      5  N   UNL     1      17.269   8.821  22.171  0.00  0.00    -0.360 N 
ATOM     13  C   UNL     1      16.435   7.965  20.300  0.00  0.00    -0.008 A 
ATOM     14  C   UNL     1      15.986   9.311  20.413  0.00  0.00    +0.004 A 
ATOM     15  C   UNL     1      17.220   7.693  21.396  0.00  0.00    +0.088 A 
ATOM     16  C   UNL     1      16.523   9.825  21.595  0.00  0.00    +0.047 A 
ATOM     18  C   UNL     1      15.172  10.143  19.619  0.00  0.00    +0.010 A 
ATOM     19  C   UNL     1      16.286  11.135  22.025  0.00  0.00    +0.026 A 
ATOM     20  C   UNL     1      14.926  11.456  20.038  0.00  0.00    +0.001 A 
ATOM     22  C   UNL     1      15.476  11.943  21.222  0.00  0.00    +0.002 A 
ATOM     28  H   UNL     1      17.777   8.905  23.041  0.00  0.00    +0.165 HD
ENDBRANCH  11  13
ENDBRANCH   3  11
TORSDOF 4
ENDMDL
MODEL 7
REMARK VINA RESULT:      -7.1     27.597     30.207
REMARK  Name = 51137242
REMARK  4 active torsions:
REMARK  status: ('A' for Active; 'I' for Inactive)
REMARK    1  A    between atoms: N_3  and  C_11
REMARK    2  A    between atoms: C_7  and  C_12
REMARK    3  A    between atoms: C_11  and  C_13
REMARK    4  A    between atoms: C_17  and  C_21
REMARK                            x       y       z     vdW  Elec       q    Type
REMARK                         _______ _______ _______ _____ _____    ______ ____
ROOT
ATOM      3  N   UNL     1      -3.364 -11.060  16.289  0.00  0.00    -0.297 NA
ATOM      7  C   UNL     1      -2.821 -11.372  14.029  0.00  0.00    +0.092 C 
ATOM      8  C   UNL     1      -3.908 -10.806  14.953  0.00  0.00    +0.097 C 
ATOM      9  C   UNL     1      -1.531 -11.315  14.866  0.00  0.00    +0.029 C 
ATOM     10  C   UNL     1      -1.949 -10.700  16.194  0.00  0.00    +0.085 C 
ENDROOT
BRANCH   7  12
ATOM      2  O   UNL     1      -3.909 -10.539  11.999  0.00  0.00    -0.420 OA
ATOM      4  N   UNL     1      -1.714 -10.117  12.096  0.00  0.00    -0.112 NA
ATOM      6  N   UNL     1      -2.197  -9.598  10.909  0.00  0.00    -0.107 NA
ATOM     12  C   UNL     1      -2.747 -10.657  12.699  0.00  0.00    +0.222 A 
ATOM     17  C   UNL     1      -3.481  -9.867  10.895  0.00  0.00    +0.248 A 
BRANCH  17  21
ATOM      1 CL   UNL     1      -7.637  -8.627   6.830  0.00  0.00    -0.084 Cl
ATOM     21  C   UNL     1      -4.483  -9.568   9.915  0.00  0.00    +0.039 A 
ATOM     23  C   UNL     1      -4.467 -10.217   8.681  0.00  0.00    +0.014 A 
ATOM     24  C   UNL     1      -5.475  -8.628  10.196  0.00  0.00    +0.014 A 
ATOM     25  C   UNL     1      -5.442  -9.926   7.726  0.00  0.00    +0.021 A 
ATOM     26  C   UNL     1      -6.450  -8.337   9.242  0.00  0.00    +0.021 A 
ATOM     27  C   UNL     1      -6.435  -8.986   8.007  0.00  0.00    +0.041 A 
ENDBRANCH  17  21
ENDBRANCH   7  12
BRANCH   3  11
ATOM     11  C   UNL     1      -4.059 -10.309  17.323  0.00  0.00    +0.121 C 
BRANCH  11  13
ATOM      5  N   UNL     1      -6.388 -12.666  18.922  0.00  0.00    -0.360 N 
ATOM     13  C   UNL     1      -5.213 -11.085  17.900  0.00  0.00    -0.008 A 
ATOM     14  C   UNL     1      -6.586 -10.709  17.870  0.00  0.00    +0.004 A 
ATOM     15  C   UNL     1      -5.125 -12.293  18.552  0.00  0.00    +0.088 A 
ATOM     16  C   UNL     1      -7.302 -11.719  18.517  0.00  0.00    +0.047 A 
ATOM     18  C   UNL     1      -7.290  -9.604  17.352  0.00  0.00    +0.010 A 
ATOM     19  C   UNL     1      -8.692 -11.677  18.674  0.00  0.00    +0.026 A 
ATOM     20  C   UNL     1      -8.680  -9.550  17.501  0.00  0.00    +0.001 A 
ATOM     22  C   UNL     1      -9.369 -10.571  18.153  0.00  0.00    +0.002 A 
ATOM     28  H   UNL     1      -6.620 -13.516  19.419  0.00  0.00    +0.165 HD
ENDBRANCH  11  13
ENDBRANCH   3  11
TORSDOF 4
ENDMDL
MODEL 8
REMARK VINA RESULT:      -7.1     28.489     31.247
REMARK  Name = 51137242
REMARK  4 active torsions:
REMARK  status: ('A' for Active; 'I' for Inactive)
REMARK    1  A    between atoms: N_3  and  C_11
REMARK    2  A    between atoms: C_7  and  C_12
REMARK    3  A    between atoms: C_11  and  C_13
REMARK    4  A    between atoms: C_17  and  C_21
REMARK                            x       y       z     vdW  Elec       q    Type
REMARK                         _______ _______ _______ _____ _____    ______ ____
ROOT
ATOM      3  N   UNL     1      -4.289 -10.824  15.315  0.00  0.00    -0.297 NA
ATOM      7  C   UNL     1      -5.773  -9.696  16.739  0.00  0.00    +0.092 C 
ATOM      8  C   UNL     1      -5.638 -10.252  15.315  0.00  0.00    +0.097 C 
ATOM      9  C   UNL     1      -4.788 -10.530  17.577  0.00  0.00    +0.029 C 
ATOM     10  C   UNL     1      -4.176 -11.521  16.596  0.00  0.00    +0.085 C 
ENDROOT
BRANCH   7  12
ATOM      2  O   UNL     1      -8.088  -8.916  16.578  0.00  0.00    -0.420 OA
ATOM      4  N   UNL     1      -7.729 -10.366  18.242  0.00  0.00    -0.112 NA
ATOM      6  N   UNL     1      -9.064 -10.011  18.267  0.00  0.00    -0.107 NA
ATOM     12  C   UNL     1      -7.199  -9.704  17.242  0.00  0.00    +0.222 A 
ATOM     17  C   UNL     1      -9.229  -9.163  17.278  0.00  0.00    +0.248 A 
BRANCH  17  21
ATOM      1 CL   UNL     1     -14.095  -6.293  15.428  0.00  0.00    -0.084 Cl
ATOM     21  C   UNL     1     -10.402  -8.472  16.832  0.00  0.00    +0.039 A 
ATOM     23  C   UNL     1     -10.285  -7.227  16.213  0.00  0.00    +0.014 A 
ATOM     24  C   UNL     1     -11.662  -9.042  17.017  0.00  0.00    +0.014 A 
ATOM     25  C   UNL     1     -11.427  -6.553  15.779  0.00  0.00    +0.021 A 
ATOM     26  C   UNL     1     -12.804  -8.369  16.583  0.00  0.00    +0.021 A 
ATOM     27  C   UNL     1     -12.687  -7.125  15.964  0.00  0.00    +0.041 A 
ENDBRANCH  17  21
ENDBRANCH   7  12
BRANCH   3  11
ATOM     11  C   UNL     1      -4.061 -11.706  14.182  0.00  0.00    +0.121 C 
BRANCH  11  13
ATOM      5  N   UNL     1      -1.677 -10.225  11.802  0.00  0.00    -0.360 N 
ATOM     13  C   UNL     1      -3.320 -11.011  13.070  0.00  0.00    -0.008 A 
ATOM     14  C   UNL     1      -3.899 -10.313  11.973  0.00  0.00    +0.004 A 
ATOM     15  C   UNL     1      -1.953 -10.938  12.936  0.00  0.00    +0.088 A 
ATOM     16  C   UNL     1      -2.847  -9.828  11.193  0.00  0.00    +0.047 A 
ATOM     18  C   UNL     1      -5.222 -10.045  11.568  0.00  0.00    +0.010 A 
ATOM     19  C   UNL     1      -3.052  -9.088  10.024  0.00  0.00    +0.026 A 
ATOM     20  C   UNL     1      -5.442  -9.305  10.401  0.00  0.00    +0.001 A 
ATOM     22  C   UNL     1      -4.372  -8.835   9.642  0.00  0.00    +0.002 A 
ATOM     28  H   UNL     1      -0.749 -10.016  11.460  0.00  0.00    +0.165 HD
ENDBRANCH  11  13
ENDBRANCH   3  11
TORSDOF 4
ENDMDL
MODEL 9
REMARK VINA RESULT:      -7.1     28.311     30.281
REMARK  Name = 51137242
REMARK  4 active torsions:
REMARK  status: ('A' for Active; 'I' for Inactive)
REMARK    1  A    between atoms: N_3  and  C_11
REMARK    2  A    between atoms: C_7  and  C_12
REMARK    3  A    between atoms: C_11  and  C_13
REMARK    4  A    between atoms: C_17  and  C_21
REMARK                            x       y       z     vdW  Elec       q    Type
REMARK                         _______ _______ _______ _____ _____    ______ ____
ROOT
ATOM      3  N   UNL     1      -5.182 -10.626   9.837  0.00  0.00    -0.297 NA
ATOM      7  C   UNL     1      -3.365 -10.502  11.315  0.00  0.00    +0.092 C 
ATOM      8  C   UNL     1      -4.757  -9.913  11.044  0.00  0.00    +0.097 C 
ATOM      9  C   UNL     1      -3.392 -11.887  10.646  0.00  0.00    +0.029 C 
ATOM     10  C   UNL     1      -4.793 -12.017  10.064  0.00  0.00    +0.085 C 
ENDROOT
BRANCH   7  12
ATOM      2  O   UNL     1      -4.037 -10.565  13.669  0.00  0.00    -0.420 OA
ATOM      4  N   UNL     1      -1.824 -10.476  13.354  0.00  0.00    -0.112 NA
ATOM      6  N   UNL     1      -2.061 -10.507  14.716  0.00  0.00    -0.107 NA
ATOM     12  C   UNL     1      -3.005 -10.512  12.783  0.00  0.00    +0.222 A 
ATOM     17  C   UNL     1      -3.366 -10.559  14.853  0.00  0.00    +0.248 A 
BRANCH  17  21
ATOM      1 CL   UNL     1      -6.725 -10.761  19.752  0.00  0.00    -0.084 Cl
ATOM     21  C   UNL     1      -4.176 -10.608  16.034  0.00  0.00    +0.039 A 
ATOM     23  C   UNL     1      -5.427  -9.993  16.048  0.00  0.00    +0.014 A 
ATOM     24  C   UNL     1      -3.712 -11.271  17.171  0.00  0.00    +0.014 A 
ATOM     25  C   UNL     1      -6.216 -10.040  17.198  0.00  0.00    +0.021 A 
ATOM     26  C   UNL     1      -4.500 -11.318  18.321  0.00  0.00    +0.021 A 
ATOM     27  C   UNL     1      -5.752 -10.704  18.334  0.00  0.00    +0.041 A 
ENDBRANCH  17  21
ENDBRANCH   7  12
BRANCH   3  11
ATOM     11  C   UNL     1      -6.607 -10.483   9.582  0.00  0.00    +0.121 C 
BRANCH  11  13
ATOM      5  N   UNL     1      -6.775  -8.777   6.326  0.00  0.00    -0.360 N 
ATOM     13  C   UNL     1      -6.878  -9.626   8.375  0.00  0.00    -0.008 A 
ATOM     14  C   UNL     1      -7.822  -8.564   8.284  0.00  0.00    +0.004 A 
ATOM     15  C   UNL     1      -6.250  -9.731   7.155  0.00  0.00    +0.088 A 
ATOM     16  C   UNL     1      -7.737  -8.048   6.989  0.00  0.00    +0.047 A 
ATOM     18  C   UNL     1      -8.743  -7.990   9.183  0.00  0.00    +0.010 A 
ATOM     19  C   UNL     1      -8.530  -6.984   6.546  0.00  0.00    +0.026 A 
ATOM     20  C   UNL     1      -9.543  -6.925   8.753  0.00  0.00    +0.001 A 
ATOM     22  C   UNL     1      -9.437  -6.431   7.454  0.00  0.00    +0.002 A 
ATOM     28  H   UNL     1      -6.497  -8.627   5.366  0.00  0.00    +0.165 HD
ENDBRANCH  11  13
ENDBRANCH   3  11
TORSDOF 4
ENDMDL
MODEL 10
REMARK VINA RESULT:      -7.0     28.341     30.372
REMARK  Name = 51137242
REMARK  4 active torsions:
REMARK  status: ('A' for Active; 'I' for Inactive)
REMARK    1  A    between atoms: N_3  and  C_11
REMARK    2  A    between atoms: C_7  and  C_12
REMARK    3  A    between atoms: C_11  and  C_13
REMARK    4  A    between atoms: C_17  and  C_21
REMARK                            x       y       z     vdW  Elec       q    Type
REMARK                         _______ _______ _______ _____ _____    ______ ____
ROOT
ATOM      3  N   UNL     1      -5.485  -9.783   9.766  0.00  0.00    -0.297 NA
ATOM      7  C   UNL     1      -3.576 -10.011  11.108  0.00  0.00    +0.092 C 
ATOM      8  C   UNL     1      -4.939  -9.308  11.040  0.00  0.00    +0.097 C 
ATOM      9  C   UNL     1      -3.737 -11.261  10.225  0.00  0.00    +0.029 C 
ATOM     10  C   UNL     1      -5.177 -11.212   9.733  0.00  0.00    +0.085 C 
ENDROOT
BRANCH   7  12
ATOM      2  O   UNL     1      -4.088 -10.272  13.489  0.00  0.00    -0.420 OA
ATOM      4  N   UNL     1      -1.926 -10.548  12.986  0.00  0.00    -0.112 NA
ATOM      6  N   UNL     1      -2.073 -10.721  14.350  0.00  0.00    -0.107 NA
ATOM     12  C   UNL     1      -3.127 -10.288  12.525  0.00  0.00    +0.222 A 
ATOM     17  C   UNL     1      -3.350 -10.551  14.599  0.00  0.00    +0.248 A 
BRANCH  17  21
ATOM      1 CL   UNL     1      -6.351 -10.805  19.723  0.00  0.00    -0.084 Cl
ATOM     21  C   UNL     1      -4.074 -10.612  15.834  0.00  0.00    +0.039 A 
ATOM     23  C   UNL     1      -3.523 -11.271  16.933  0.00  0.00    +0.014 A 
ATOM     24  C   UNL     1      -5.329 -10.012  15.938  0.00  0.00    +0.014 A 
ATOM     25  C   UNL     1      -4.227 -11.331  18.136  0.00  0.00    +0.021 A 
ATOM     26  C   UNL     1      -6.033 -10.072  17.141  0.00  0.00    +0.021 A 
ATOM     27  C   UNL     1      -5.482 -10.730  18.240  0.00  0.00    +0.041 A 
ENDBRANCH  17  21
ENDBRANCH   7  12
BRANCH   3  11
ATOM     11  C   UNL     1      -6.910  -9.519   9.642  0.00  0.00    +0.121 C 
BRANCH  11  13
ATOM      5  N   UNL     1      -7.786  -7.037   7.070  0.00  0.00    -0.360 N 
ATOM     13  C   UNL     1      -7.227  -8.720   8.406  0.00  0.00    -0.008 A 
ATOM     14  C   UNL     1      -7.221  -9.195   7.064  0.00  0.00    +0.004 A 
ATOM     15  C   UNL     1      -7.580  -7.390   8.376  0.00  0.00    +0.088 A 
ATOM     16  C   UNL     1      -7.575  -8.120   6.246  0.00  0.00    +0.047 A 
ATOM     18  C   UNL     1      -6.946 -10.441   6.466  0.00  0.00    +0.010 A 
ATOM     19  C   UNL     1      -7.668  -8.229   4.854  0.00  0.00    +0.026 A 
ATOM     20  C   UNL     1      -7.036 -10.564   5.075  0.00  0.00    +0.001 A 
ATOM     22  C   UNL     1      -7.391  -9.474   4.283  0.00  0.00    +0.002 A 
ATOM     28  H   UNL     1      -8.056  -6.116   6.754  0.00  0.00    +0.165 HD
ENDBRANCH  11  13
ENDBRANCH   3  11
TORSDOF 4
ENDMDL
