MODEL 1
REMARK VINA RESULT:      -6.9      0.000      0.000
REMARK  Name = 9424320
REMARK  4 active torsions:
REMARK  status: ('A' for Active; 'I' for Inactive)
REMARK    1  A    between atoms: N_6  and  C_10
REMARK    2  A    between atoms: N_8  and  C_24
REMARK    3  A    between atoms: C_21  and  C_23
REMARK    4  A    between atoms: C_24  and  C_27
REMARK                            x       y       z     vdW  Elec       q    Type
REMARK                         _______ _______ _______ _____ _____    ______ ____
ROOT
ATOM      2  O   UNL     1      20.612   8.721  21.189  0.00  0.00    -0.273 OA
ATOM      3  O   UNL     1      16.476   6.035  19.496  0.00  0.00    -0.270 OA
ATOM      5  N   UNL     1      18.422   6.348  20.722  0.00  0.00    -0.286 N 
ATOM      7  N   UNL     1      18.392   9.263  21.226  0.00  0.00    -0.283 N 
ATOM      9  C   UNL     1      19.072   6.989  21.858  0.00  0.00    +0.164 C 
ATOM     10  C   UNL     1      21.138   5.531  21.413  0.00  0.00    +0.078 C 
ATOM     11  C   UNL     1      20.242   6.198  22.456  0.00  0.00    +0.054 C 
ATOM     12  C   UNL     1      20.279   4.704  20.463  0.00  0.00    +0.041 C 
ATOM     13  C   UNL     1      19.245   5.585  19.781  0.00  0.00    +0.111 C 
ATOM     14  C   UNL     1      19.444   8.379  21.375  0.00  0.00    +0.238 C 
ATOM     15  C   UNL     1      17.098   6.624  20.380  0.00  0.00    +0.249 C 
ATOM     16  C   UNL     1      16.403   7.747  21.067  0.00  0.00    +0.059 A 
ATOM     17  C   UNL     1      17.010   8.987  21.337  0.00  0.00    +0.046 A 
ATOM     19  C   UNL     1      15.019   7.593  21.256  0.00  0.00    +0.023 A 
ATOM     20  C   UNL     1      16.199  10.067  21.726  0.00  0.00    +0.024 A 
ATOM     21  C   UNL     1      14.240   8.664  21.693  0.00  0.00    -0.017 A 
ATOM     22  C   UNL     1      14.827   9.904  21.915  0.00  0.00    +0.010 A 
ATOM     31  H   UNL     1      18.647  10.242  21.125  0.00  0.00    +0.155 HD
ENDROOT
BRANCH  10   6
ATOM      4  O   UNL     1      23.757   4.876  20.395  0.00  0.00    -0.253 OA
ATOM      6  N   UNL     1      22.138   4.707  22.050  0.00  0.00    -0.296 N 
ATOM      8  N   UNL     1      24.150   3.622  22.307  0.00  0.00    -0.296 N 
ATOM     18  C   UNL     1      23.383   4.441  21.483  0.00  0.00    +0.300 C 
ATOM     30  H   UNL     1      21.955   4.361  22.986  0.00  0.00    +0.151 HD
ATOM     32  H   UNL     1      23.765   3.328  23.199  0.00  0.00    +0.151 HD
BRANCH   8  24
ATOM     24  C   UNL     1      25.484   3.192  21.960  0.00  0.00    +0.132 C 
BRANCH  24  27
ATOM     27  C   UNL     1      25.414   1.834  21.343  0.00  0.00    -0.016 C 
ATOM     29  C   UNL     1      24.438   0.953  21.589  0.00  0.00    +0.005 C 
ENDBRANCH  24  27
ENDBRANCH   8  24
ENDBRANCH  10   6
BRANCH  21  23
ATOM      1  S   UNL     1      10.535   7.327  21.941  0.00  0.00    -0.104 S 
ATOM     23  C   UNL     1      12.827   8.493  21.886  0.00  0.00    -0.011 A 
ATOM     25  C   UNL     1      11.892   9.473  22.331  0.00  0.00    +0.016 A 
ATOM     26  C   UNL     1      12.219   7.280  21.638  0.00  0.00    +0.053 A 
ATOM     28  C   UNL     1      10.611   8.973  22.406  0.00  0.00    +0.046 A 
ENDBRANCH  21  23
TORSDOF 4
ENDMDL
MODEL 2
REMARK VINA RESULT:      -6.9      3.643      9.525
REMARK  Name = 9424320
REMARK  4 active torsions:
REMARK  status: ('A' for Active; 'I' for Inactive)
REMARK    1  A    between atoms: N_6  and  C_10
REMARK    2  A    between atoms: N_8  and  C_24
REMARK    3  A    between atoms: C_21  and  C_23
REMARK    4  A    between atoms: C_24  and  C_27
REMARK                            x       y       z     vdW  Elec       q    Type
REMARK                         _______ _______ _______ _____ _____    ______ ____
ROOT
ATOM      2  O   UNL     1      17.682   6.000  18.987  0.00  0.00    -0.273 OA
ATOM      3  O   UNL     1      21.150   8.142  22.239  0.00  0.00    -0.270 OA
ATOM      5  N   UNL     1      19.027   7.504  21.552  0.00  0.00    -0.286 N 
ATOM      7  N   UNL     1      19.588   5.120  19.892  0.00  0.00    -0.283 N 
ATOM      9  C   UNL     1      18.079   6.419  21.330  0.00  0.00    +0.164 C 
ATOM     10  C   UNL     1      16.260   8.184  20.914  0.00  0.00    +0.078 C 
ATOM     11  C   UNL     1      16.606   6.813  21.495  0.00  0.00    +0.054 C 
ATOM     12  C   UNL     1      17.225   9.226  21.470  0.00  0.00    +0.041 C 
ATOM     13  C   UNL     1      18.659   8.856  21.127  0.00  0.00    +0.111 C 
ATOM     14  C   UNL     1      18.422   5.861  19.961  0.00  0.00    +0.238 C 
ATOM     15  C   UNL     1      20.345   7.260  21.941  0.00  0.00    +0.249 C 
ATOM     16  C   UNL     1      20.844   5.858  21.931  0.00  0.00    +0.059 A 
ATOM     17  C   UNL     1      20.558   4.939  20.904  0.00  0.00    +0.046 A 
ATOM     19  C   UNL     1      21.808   5.538  22.902  0.00  0.00    +0.023 A 
ATOM     20  C   UNL     1      21.297   3.746  20.839  0.00  0.00    +0.024 A 
ATOM     21  C   UNL     1      22.494   4.326  22.849  0.00  0.00    -0.017 A 
ATOM     22  C   UNL     1      22.249   3.436  21.810  0.00  0.00    +0.010 A 
ATOM     31  H   UNL     1      19.708   4.561  19.051  0.00  0.00    +0.155 HD
ENDROOT
BRANCH  10   6
ATOM      4  O   UNL     1      13.875   7.067  19.736  0.00  0.00    -0.253 OA
ATOM      6  N   UNL     1      14.893   8.537  21.216  0.00  0.00    -0.296 N 
ATOM      8  N   UNL     1      12.599   8.471  21.072  0.00  0.00    -0.296 N 
ATOM     18  C   UNL     1      13.796   7.944  20.594  0.00  0.00    +0.300 C 
ATOM     30  H   UNL     1      14.720   9.200  21.964  0.00  0.00    +0.151 HD
ATOM     32  H   UNL     1      12.632   9.180  21.797  0.00  0.00    +0.151 HD
BRANCH   8  24
ATOM     24  C   UNL     1      11.307   8.032  20.597  0.00  0.00    +0.132 C 
BRANCH  24  27
ATOM     27  C   UNL     1      10.724   7.074  21.583  0.00  0.00    -0.016 C 
ATOM     29  C   UNL     1      11.000   5.765  21.603  0.00  0.00    +0.005 C 
ENDBRANCH  24  27
ENDBRANCH   8  24
ENDBRANCH  10   6
BRANCH  21  23
ATOM      1  S   UNL     1      25.555   4.270  25.338  0.00  0.00    -0.104 S 
ATOM     23  C   UNL     1      23.474   4.009  23.850  0.00  0.00    -0.011 A 
ATOM     25  C   UNL     1      23.518   2.851  24.679  0.00  0.00    +0.016 A 
ATOM     26  C   UNL     1      24.526   4.865  24.107  0.00  0.00    +0.053 A 
ATOM     28  C   UNL     1      24.597   2.864  25.535  0.00  0.00    +0.046 A 
ENDBRANCH  21  23
TORSDOF 4
ENDMDL
MODEL 3
REMARK VINA RESULT:      -6.9     16.439     18.261
REMARK  Name = 9424320
REMARK  4 active torsions:
REMARK  status: ('A' for Active; 'I' for Inactive)
REMARK    1  A    between atoms: N_6  and  C_10
REMARK    2  A    between atoms: N_8  and  C_24
REMARK    3  A    between atoms: C_21  and  C_23
REMARK    4  A    between atoms: C_24  and  C_27
REMARK                            x       y       z     vdW  Elec       q    Type
REMARK                         _______ _______ _______ _____ _____    ______ ____
ROOT
ATOM      2  O   UNL     1       9.261   8.194   3.103  0.00  0.00    -0.273 OA
ATOM      3  O   UNL     1       8.434   7.186   8.152  0.00  0.00    -0.270 OA
ATOM      5  N   UNL     1       9.544   6.990   6.123  0.00  0.00    -0.286 N 
ATOM      7  N   UNL     1       9.050   9.625   4.873  0.00  0.00    -0.283 N 
ATOM      9  C   UNL     1      10.422   7.605   5.135  0.00  0.00    +0.164 C 
ATOM     10  C   UNL     1      10.549   5.338   3.935  0.00  0.00    +0.078 C 
ATOM     11  C   UNL     1      11.283   6.615   4.340  0.00  0.00    +0.054 C 
ATOM     12  C   UNL     1       9.902   4.715   5.168  0.00  0.00    +0.041 C 
ATOM     13  C   UNL     1       8.935   5.695   5.812  0.00  0.00    +0.111 C 
ATOM     14  C   UNL     1       9.515   8.468   4.276  0.00  0.00    +0.238 C 
ATOM     15  C   UNL     1       9.090   7.691   7.241  0.00  0.00    +0.249 C 
ATOM     16  C   UNL     1       9.345   9.155   7.316  0.00  0.00    +0.059 A 
ATOM     17  C   UNL     1       9.205  10.026   6.220  0.00  0.00    +0.046 A 
ATOM     19  C   UNL     1       9.532   9.684   8.605  0.00  0.00    +0.023 A 
ATOM     20  C   UNL     1       9.189  11.411   6.453  0.00  0.00    +0.024 A 
ATOM     21  C   UNL     1       9.566  11.063   8.808  0.00  0.00    -0.017 A 
ATOM     22  C   UNL     1       9.380  11.927   7.734  0.00  0.00    +0.010 A 
ATOM     31  H   UNL     1       8.637  10.311   4.246  0.00  0.00    +0.155 HD
ENDROOT
BRANCH  10   6
ATOM      4  O   UNL     1      11.212   5.191   1.131  0.00  0.00    -0.253 OA
ATOM      6  N   UNL     1      11.452   4.407   3.303  0.00  0.00    -0.296 N 
ATOM      8  N   UNL     1      12.621   3.406   1.593  0.00  0.00    -0.296 N 
ATOM     18  C   UNL     1      11.715   4.406   1.934  0.00  0.00    +0.300 C 
ATOM     30  H   UNL     1      11.975   3.765   3.891  0.00  0.00    +0.151 HD
ATOM     32  H   UNL     1      12.999   2.818   2.329  0.00  0.00    +0.151 HD
BRANCH   8  24
ATOM     24  C   UNL     1      13.068   3.185   0.238  0.00  0.00    +0.132 C 
BRANCH  24  27
ATOM     27  C   UNL     1      14.371   3.883   0.033  0.00  0.00    -0.016 C 
ATOM     29  C   UNL     1      15.406   3.793   0.877  0.00  0.00    +0.005 C 
ENDBRANCH  24  27
ENDBRANCH   8  24
ENDBRANCH  10   6
BRANCH  21  23
ATOM      1  S   UNL     1      11.002  12.453  12.210  0.00  0.00    -0.104 S 
ATOM     23  C   UNL     1       9.761  11.591  10.129  0.00  0.00    -0.011 A 
ATOM     25  C   UNL     1       8.755  11.936  11.078  0.00  0.00    +0.016 A 
ATOM     26  C   UNL     1      11.030  11.824  10.618  0.00  0.00    +0.053 A 
ATOM     28  C   UNL     1       9.291  12.417  12.252  0.00  0.00    +0.046 A 
ENDBRANCH  21  23
TORSDOF 4
ENDMDL
MODEL 4
REMARK VINA RESULT:      -6.5     29.203     33.713
REMARK  Name = 9424320
REMARK  4 active torsions:
REMARK  status: ('A' for Active; 'I' for Inactive)
REMARK    1  A    between atoms: N_6  and  C_10
REMARK    2  A    between atoms: N_8  and  C_24
REMARK    3  A    between atoms: C_21  and  C_23
REMARK    4  A    between atoms: C_24  and  C_27
REMARK                            x       y       z     vdW  Elec       q    Type
REMARK                         _______ _______ _______ _____ _____    ______ ____
ROOT
ATOM      2  O   UNL     1      -9.559 -12.015  20.466  0.00  0.00    -0.273 OA
ATOM      3  O   UNL     1      -7.952 -12.502  15.528  0.00  0.00    -0.270 OA
ATOM      5  N   UNL     1      -9.169 -11.547  17.260  0.00  0.00    -0.286 N 
ATOM      7  N   UNL     1      -7.441 -12.059  19.606  0.00  0.00    -0.283 N 
ATOM      9  C   UNL     1      -9.160 -10.727  18.464  0.00  0.00    +0.164 C 
ATOM     10  C   UNL     1     -11.727 -10.748  18.417  0.00  0.00    +0.078 C 
ATOM     11  C   UNL     1     -10.459  -9.952  18.720  0.00  0.00    +0.054 C 
ATOM     12  C   UNL     1     -11.639 -11.321  17.006  0.00  0.00    +0.041 C 
ATOM     13  C   UNL     1     -10.415 -12.211  16.871  0.00  0.00    +0.111 C 
ATOM     14  C   UNL     1      -8.767 -11.669  19.588  0.00  0.00    +0.238 C 
ATOM     15  C   UNL     1      -7.990 -11.900  16.601  0.00  0.00    +0.249 C 
ATOM     16  C   UNL     1      -6.689 -11.602  17.260  0.00  0.00    +0.059 A 
ATOM     17  C   UNL     1      -6.450 -11.797  18.633  0.00  0.00    +0.046 A 
ATOM     19  C   UNL     1      -5.616 -11.307  16.402  0.00  0.00    +0.023 A 
ATOM     20  C   UNL     1      -5.126 -11.758  19.101  0.00  0.00    +0.024 A 
ATOM     21  C   UNL     1      -4.315 -11.222  16.896  0.00  0.00    -0.017 A 
ATOM     22  C   UNL     1      -4.068 -11.462  18.243  0.00  0.00    +0.010 A 
ATOM     31  H   UNL     1      -7.120 -12.498  20.466  0.00  0.00    +0.155 HD
ENDROOT
BRANCH  10   6
ATOM      4  O   UNL     1     -13.766 -10.956  20.449  0.00  0.00    -0.253 OA
ATOM      6  N   UNL     1     -12.899  -9.917  18.561  0.00  0.00    -0.296 N 
ATOM      8  N   UNL     1     -14.864  -9.155  19.482  0.00  0.00    -0.296 N 
ATOM     18  C   UNL     1     -13.837 -10.090  19.578  0.00  0.00    +0.300 C 
ATOM     30  H   UNL     1     -13.011  -9.126  17.936  0.00  0.00    +0.151 HD
ATOM     32  H   UNL     1     -14.829  -8.464  18.740  0.00  0.00    +0.151 HD
BRANCH   8  24
ATOM     24  C   UNL     1     -15.969  -9.109  20.412  0.00  0.00    +0.132 C 
BRANCH  24  27
ATOM     27  C   UNL     1     -15.725  -8.023  21.406  0.00  0.00    -0.016 C 
ATOM     29  C   UNL     1     -16.448  -6.899  21.475  0.00  0.00    +0.005 C 
ENDBRANCH  24  27
ENDBRANCH   8  24
ENDBRANCH  10   6
BRANCH  21  23
ATOM      1  S   UNL     1      -1.992 -10.410  13.811  0.00  0.00    -0.104 S 
ATOM     23  C   UNL     1      -3.227 -10.917  16.009  0.00  0.00    -0.011 A 
ATOM     25  C   UNL     1      -1.857 -10.728  16.356  0.00  0.00    +0.016 A 
ATOM     26  C   UNL     1      -3.438 -10.771  14.654  0.00  0.00    +0.053 A 
ATOM     28  C   UNL     1      -1.076 -10.447  15.258  0.00  0.00    +0.046 A 
ENDBRANCH  21  23
TORSDOF 4
ENDMDL
MODEL 5
REMARK VINA RESULT:      -6.5     32.242     35.204
REMARK  Name = 9424320
REMARK  4 active torsions:
REMARK  status: ('A' for Active; 'I' for Inactive)
REMARK    1  A    between atoms: N_6  and  C_10
REMARK    2  A    between atoms: N_8  and  C_24
REMARK    3  A    between atoms: C_21  and  C_23
REMARK    4  A    between atoms: C_24  and  C_27
REMARK                            x       y       z     vdW  Elec       q    Type
REMARK                         _______ _______ _______ _____ _____    ______ ____
ROOT
ATOM      2  O   UNL     1     -14.583   3.713  34.259  0.00  0.00    -0.273 OA
ATOM      3  O   UNL     1     -17.423   5.811  30.422  0.00  0.00    -0.270 OA
ATOM      5  N   UNL     1     -15.643   5.713  31.908  0.00  0.00    -0.286 N 
ATOM      7  N   UNL     1     -15.294   2.800  32.288  0.00  0.00    -0.283 N 
ATOM      9  C   UNL     1     -14.384   5.081  32.281  0.00  0.00    +0.164 C 
ATOM     10  C   UNL     1     -14.070   6.908  34.058  0.00  0.00    +0.078 C 
ATOM     11  C   UNL     1     -13.406   5.996  33.029  0.00  0.00    +0.054 C 
ATOM     12  C   UNL     1     -15.215   7.667  33.396  0.00  0.00    +0.041 C 
ATOM     13  C   UNL     1     -16.232   6.696  32.820  0.00  0.00    +0.111 C 
ATOM     14  C   UNL     1     -14.774   3.831  33.049  0.00  0.00    +0.238 C 
ATOM     15  C   UNL     1     -16.409   5.250  30.838  0.00  0.00    +0.249 C 
ATOM     16  C   UNL     1     -16.032   3.962  30.195  0.00  0.00    +0.059 A 
ATOM     17  C   UNL     1     -15.629   2.822  30.915  0.00  0.00    +0.046 A 
ATOM     19  C   UNL     1     -16.299   3.857  28.819  0.00  0.00    +0.023 A 
ATOM     20  C   UNL     1     -15.569   1.587  30.250  0.00  0.00    +0.024 A 
ATOM     21  C   UNL     1     -16.183   2.631  28.166  0.00  0.00    -0.017 A 
ATOM     22  C   UNL     1     -15.833   1.493  28.883  0.00  0.00    +0.010 A 
ATOM     31  H   UNL     1     -15.346   1.894  32.748  0.00  0.00    +0.155 HD
ENDROOT
BRANCH  10   6
ATOM      4  O   UNL     1     -12.706   6.642  36.587  0.00  0.00    -0.253 OA
ATOM      6  N   UNL     1     -13.110   7.822  34.629  0.00  0.00    -0.296 N 
ATOM      8  N   UNL     1     -11.616   8.647  36.171  0.00  0.00    -0.296 N 
ATOM     18  C   UNL     1     -12.497   7.614  35.864  0.00  0.00    +0.300 C 
ATOM     30  H   UNL     1     -12.813   8.619  34.075  0.00  0.00    +0.151 HD
ATOM     32  H   UNL     1     -11.493   9.400  35.502  0.00  0.00    +0.151 HD
BRANCH   8  24
ATOM     24  C   UNL     1     -10.848   8.682  37.394  0.00  0.00    +0.132 C 
BRANCH  24  27
ATOM     27  C   UNL     1      -9.591   7.898  37.202  0.00  0.00    -0.016 C 
ATOM     29  C   UNL     1      -8.397   8.452  36.964  0.00  0.00    +0.005 C 
ENDBRANCH  24  27
ENDBRANCH   8  24
ENDBRANCH  10   6
BRANCH  21  23
ATOM      1  S   UNL     1     -16.515   3.204  24.275  0.00  0.00    -0.104 S 
ATOM     23  C   UNL     1     -16.456   2.537  26.759  0.00  0.00    -0.011 A 
ATOM     25  C   UNL     1     -17.104   1.468  26.074  0.00  0.00    +0.016 A 
ATOM     26  C   UNL     1     -16.083   3.547  25.896  0.00  0.00    +0.053 A 
ATOM     28  C   UNL     1     -17.203   1.700  24.721  0.00  0.00    +0.046 A 
ENDBRANCH  21  23
TORSDOF 4
ENDMDL
MODEL 6
REMARK VINA RESULT:      -6.4     28.987     33.050
REMARK  Name = 9424320
REMARK  4 active torsions:
REMARK  status: ('A' for Active; 'I' for Inactive)
REMARK    1  A    between atoms: N_6  and  C_10
REMARK    2  A    between atoms: N_8  and  C_24
REMARK    3  A    between atoms: C_21  and  C_23
REMARK    4  A    between atoms: C_24  and  C_27
REMARK                            x       y       z     vdW  Elec       q    Type
REMARK                         _______ _______ _______ _____ _____    ______ ____
ROOT
ATOM      2  O   UNL     1     -10.898  -8.630  18.117  0.00  0.00    -0.273 OA
ATOM      3  O   UNL     1      -8.447 -10.794  14.054  0.00  0.00    -0.270 OA
ATOM      5  N   UNL     1      -9.620  -9.119  15.155  0.00  0.00    -0.286 N 
ATOM      7  N   UNL     1      -8.795  -9.512  17.968  0.00  0.00    -0.283 N 
ATOM      9  C   UNL     1      -9.607  -8.063  16.159  0.00  0.00    +0.164 C 
ATOM     10  C   UNL     1     -11.925  -7.336  15.328  0.00  0.00    +0.078 C 
ATOM     11  C   UNL     1     -10.568  -6.901  15.878  0.00  0.00    +0.054 C 
ATOM     12  C   UNL     1     -11.714  -8.245  14.121  0.00  0.00    +0.041 C 
ATOM     13  C   UNL     1     -10.890  -9.461  14.511  0.00  0.00    +0.111 C 
ATOM     14  C   UNL     1      -9.852  -8.765  17.482  0.00  0.00    +0.238 C 
ATOM     15  C   UNL     1      -8.523  -9.958  14.955  0.00  0.00    +0.249 C 
ATOM     16  C   UNL     1      -7.396  -9.902  15.926  0.00  0.00    +0.059 A 
ATOM     17  C   UNL     1      -7.574  -9.807  17.319  0.00  0.00    +0.046 A 
ATOM     19  C   UNL     1      -6.117 -10.163  15.405  0.00  0.00    +0.023 A 
ATOM     20  C   UNL     1      -6.475 -10.045  18.160  0.00  0.00    +0.024 A 
ATOM     21  C   UNL     1      -5.028 -10.345  16.255  0.00  0.00    -0.017 A 
ATOM     22  C   UNL     1      -5.208 -10.300  17.633  0.00  0.00    +0.010 A 
ATOM     31  H   UNL     1      -8.864  -9.795  18.943  0.00  0.00    +0.155 HD
ENDROOT
BRANCH  10   6
ATOM      4  O   UNL     1     -11.753  -5.779  12.904  0.00  0.00    -0.253 OA
ATOM      6  N   UNL     1     -12.725  -6.188  14.973  0.00  0.00    -0.296 N 
ATOM      8  N   UNL     1     -13.470  -4.431  13.689  0.00  0.00    -0.296 N 
ATOM     18  C   UNL     1     -12.573  -5.492  13.775  0.00  0.00    +0.300 C 
ATOM     30  H   UNL     1     -13.481  -5.916  15.593  0.00  0.00    +0.151 HD
ATOM     32  H   UNL     1     -14.125  -4.282  14.450  0.00  0.00    +0.151 HD
BRANCH   8  24
ATOM     24  C   UNL     1     -13.528  -3.545  12.551  0.00  0.00    +0.132 C 
BRANCH  24  27
ATOM     27  C   UNL     1     -14.957  -3.257  12.227  0.00  0.00    -0.016 C 
ATOM     29  C   UNL     1     -15.352  -2.556  11.159  0.00  0.00    +0.005 C 
ENDBRANCH  24  27
ENDBRANCH   8  24
ENDBRANCH  10   6
BRANCH  21  23
ATOM      1  S   UNL     1      -1.914 -11.104  13.952  0.00  0.00    -0.104 S 
ATOM     23  C   UNL     1      -3.725 -10.608  15.710  0.00  0.00    -0.011 A 
ATOM     25  C   UNL     1      -2.493 -10.693  16.421  0.00  0.00    +0.016 A 
ATOM     26  C   UNL     1      -3.552 -10.811  14.356  0.00  0.00    +0.053 A 
ATOM     28  C   UNL     1      -1.429 -10.959  15.588  0.00  0.00    +0.046 A 
ENDBRANCH  21  23
TORSDOF 4
ENDMDL
MODEL 7
REMARK VINA RESULT:      -6.3     16.537     19.440
REMARK  Name = 9424320
REMARK  4 active torsions:
REMARK  status: ('A' for Active; 'I' for Inactive)
REMARK    1  A    between atoms: N_6  and  C_10
REMARK    2  A    between atoms: N_8  and  C_24
REMARK    3  A    between atoms: C_21  and  C_23
REMARK    4  A    between atoms: C_24  and  C_27
REMARK                            x       y       z     vdW  Elec       q    Type
REMARK                         _______ _______ _______ _____ _____    ______ ____
ROOT
ATOM      2  O   UNL     1       8.524   7.584   8.362  0.00  0.00    -0.273 OA
ATOM      3  O   UNL     1       9.049   8.540   3.262  0.00  0.00    -0.270 OA
ATOM      5  N   UNL     1       9.488   8.863   5.519  0.00  0.00    -0.286 N 
ATOM      7  N   UNL     1       9.039   6.165   6.645  0.00  0.00    -0.283 N 
ATOM      9  C   UNL     1      10.123   8.367   6.733  0.00  0.00    +0.164 C 
ATOM     10  C   UNL     1       9.573  10.609   7.857  0.00  0.00    +0.078 C 
ATOM     11  C   UNL     1      10.568   9.459   7.714  0.00  0.00    +0.054 C 
ATOM     12  C   UNL     1       9.225  11.151   6.475  0.00  0.00    +0.041 C 
ATOM     13  C   UNL     1       8.636  10.051   5.607  0.00  0.00    +0.111 C 
ATOM     14  C   UNL     1       9.142   7.368   7.319  0.00  0.00    +0.238 C 
ATOM     15  C   UNL     1       9.480   8.122   4.337  0.00  0.00    +0.249 C 
ATOM     16  C   UNL     1       9.953   6.711   4.378  0.00  0.00    +0.059 A 
ATOM     17  C   UNL     1       9.630   5.812   5.411  0.00  0.00    +0.046 A 
ATOM     19  C   UNL     1      10.578   6.235   3.212  0.00  0.00    +0.023 A 
ATOM     20  C   UNL     1       9.881   4.443   5.221  0.00  0.00    +0.024 A 
ATOM     21  C   UNL     1      10.866   4.879   3.064  0.00  0.00    -0.017 A 
ATOM     22  C   UNL     1      10.505   3.981   4.062  0.00  0.00    +0.010 A 
ATOM     31  H   UNL     1       8.566   5.416   7.146  0.00  0.00    +0.155 HD
ENDROOT
BRANCH  10   6
ATOM      4  O   UNL     1       8.234  11.965  10.025  0.00  0.00    -0.253 OA
ATOM      6  N   UNL     1      10.113  11.652   8.697  0.00  0.00    -0.296 N 
ATOM      8  N   UNL     1      10.150  13.226  10.374  0.00  0.00    -0.296 N 
ATOM     18  C   UNL     1       9.392  12.255   9.726  0.00  0.00    +0.300 C 
ATOM     30  H   UNL     1      11.087  11.912   8.578  0.00  0.00    +0.151 HD
ATOM     32  H   UNL     1      11.106  13.383  10.069  0.00  0.00    +0.151 HD
BRANCH   8  24
ATOM     24  C   UNL     1       9.644  14.004  11.480  0.00  0.00    +0.132 C 
BRANCH  24  27
ATOM     27  C   UNL     1       9.904  13.269  12.753  0.00  0.00    -0.016 C 
ATOM     29  C   UNL     1       8.953  12.655  13.466  0.00  0.00    +0.005 C 
ENDBRANCH  24  27
ENDBRANCH   8  24
ENDBRANCH  10   6
BRANCH  21  23
ATOM      1  S   UNL     1      11.938   4.039  -0.640  0.00  0.00    -0.104 S 
ATOM     23  C   UNL     1      11.507   4.406   1.869  0.00  0.00    -0.011 A 
ATOM     25  C   UNL     1      12.682   3.603   1.780  0.00  0.00    +0.016 A 
ATOM     26  C   UNL     1      11.001   4.715   0.624  0.00  0.00    +0.053 A 
ATOM     28  C   UNL     1      13.027   3.330   0.475  0.00  0.00    +0.046 A 
ENDBRANCH  21  23
TORSDOF 4
ENDMDL
MODEL 8
REMARK VINA RESULT:      -6.2     29.386     32.234
REMARK  Name = 9424320
REMARK  4 active torsions:
REMARK  status: ('A' for Active; 'I' for Inactive)
REMARK    1  A    between atoms: N_6  and  C_10
REMARK    2  A    between atoms: N_8  and  C_24
REMARK    3  A    between atoms: C_21  and  C_23
REMARK    4  A    between atoms: C_24  and  C_27
REMARK                            x       y       z     vdW  Elec       q    Type
REMARK                         _______ _______ _______ _____ _____    ______ ____
ROOT
ATOM      2  O   UNL     1      -5.420 -14.056  16.516  0.00  0.00    -0.273 OA
ATOM      3  O   UNL     1      -7.061 -10.671  20.127  0.00  0.00    -0.270 OA
ATOM      5  N   UNL     1      -6.341 -11.307  18.014  0.00  0.00    -0.286 N 
ATOM      7  N   UNL     1      -7.284 -14.106  17.840  0.00  0.00    -0.283 N 
ATOM      9  C   UNL     1      -6.645 -11.992  16.764  0.00  0.00    +0.164 C 
ATOM     10  C   UNL     1      -4.465 -11.045  15.793  0.00  0.00    +0.078 C 
ATOM     11  C   UNL     1      -5.921 -11.430  15.534  0.00  0.00    +0.054 C 
ATOM     12  C   UNL     1      -4.394 -10.121  17.004  0.00  0.00    +0.041 C 
ATOM     13  C   UNL     1      -4.982 -10.805  18.228  0.00  0.00    +0.111 C 
ATOM     14  C   UNL     1      -6.366 -13.459  17.033  0.00  0.00    +0.238 C 
ATOM     15  C   UNL     1      -7.227 -11.317  19.093  0.00  0.00    +0.249 C 
ATOM     16  C   UNL     1      -8.413 -12.214  19.033  0.00  0.00    +0.059 A 
ATOM     17  C   UNL     1      -8.365 -13.534  18.548  0.00  0.00    +0.046 A 
ATOM     19  C   UNL     1      -9.568 -11.755  19.689  0.00  0.00    +0.023 A 
ATOM     20  C   UNL     1      -9.455 -14.385  18.793  0.00  0.00    +0.024 A 
ATOM     21  C   UNL     1     -10.660 -12.601  19.877  0.00  0.00    -0.017 A 
ATOM     22  C   UNL     1     -10.599 -13.920  19.442  0.00  0.00    +0.010 A 
ATOM     31  H   UNL     1      -7.234 -15.122  17.841  0.00  0.00    +0.155 HD
ENDROOT
BRANCH  10   6
ATOM      4  O   UNL     1      -3.718 -12.316  13.312  0.00  0.00    -0.253 OA
ATOM      6  N   UNL     1      -3.889 -10.412  14.630  0.00  0.00    -0.296 N 
ATOM      8  N   UNL     1      -3.021 -10.255  12.506  0.00  0.00    -0.296 N 
ATOM     18  C   UNL     1      -3.557 -11.106  13.468  0.00  0.00    +0.300 C 
ATOM     30  H   UNL     1      -3.785  -9.402  14.631  0.00  0.00    +0.151 HD
ATOM     32  H   UNL     1      -2.943  -9.265  12.718  0.00  0.00    +0.151 HD
BRANCH   8  24
ATOM     24  C   UNL     1      -2.591 -10.715  11.206  0.00  0.00    +0.132 C 
BRANCH  24  27
ATOM     27  C   UNL     1      -3.631 -10.362  10.195  0.00  0.00    -0.016 C 
ATOM     29  C   UNL     1      -3.708  -9.172   9.589  0.00  0.00    +0.005 C 
ENDBRANCH  24  27
ENDBRANCH   8  24
ENDBRANCH  10   6
BRANCH  21  23
ATOM      1  S   UNL     1     -13.892 -12.127  22.091  0.00  0.00    -0.104 S 
ATOM     23  C   UNL     1     -11.836 -12.119  20.546  0.00  0.00    -0.011 A 
ATOM     25  C   UNL     1     -12.429 -10.828  20.426  0.00  0.00    +0.016 A 
ATOM     26  C   UNL     1     -12.534 -12.925  21.422  0.00  0.00    +0.053 A 
ATOM     28  C   UNL     1     -13.553 -10.697  21.211  0.00  0.00    +0.046 A 
ENDBRANCH  21  23
TORSDOF 4
ENDMDL
MODEL 9
REMARK VINA RESULT:      -6.2     29.207     32.466
REMARK  Name = 9424320
REMARK  4 active torsions:
REMARK  status: ('A' for Active; 'I' for Inactive)
REMARK    1  A    between atoms: N_6  and  C_10
REMARK    2  A    between atoms: N_8  and  C_24
REMARK    3  A    between atoms: C_21  and  C_23
REMARK    4  A    between atoms: C_24  and  C_27
REMARK                            x       y       z     vdW  Elec       q    Type
REMARK                         _______ _______ _______ _____ _____    ______ ____
ROOT
ATOM      2  O   UNL     1      -7.145 -11.383  19.932  0.00  0.00    -0.273 OA
ATOM      3  O   UNL     1      -9.746  -7.971  16.968  0.00  0.00    -0.270 OA
ATOM      5  N   UNL     1      -8.434  -9.846  17.358  0.00  0.00    -0.286 N 
ATOM      7  N   UNL     1      -9.320 -10.690  20.051  0.00  0.00    -0.283 N 
ATOM      9  C   UNL     1      -8.358 -11.215  17.853  0.00  0.00    +0.164 C 
ATOM     10  C   UNL     1      -5.974 -11.354  16.909  0.00  0.00    +0.078 C 
ATOM     11  C   UNL     1      -7.291 -12.082  17.175  0.00  0.00    +0.054 C 
ATOM     12  C   UNL     1      -6.257 -10.056  16.159  0.00  0.00    +0.041 C 
ATOM     13  C   UNL     1      -7.194  -9.171  16.966  0.00  0.00    +0.111 C 
ATOM     14  C   UNL     1      -8.193 -11.089  19.356  0.00  0.00    +0.238 C 
ATOM     15  C   UNL     1      -9.602  -9.090  17.461  0.00  0.00    +0.249 C 
ATOM     16  C   UNL     1     -10.728  -9.625  18.274  0.00  0.00    +0.059 A 
ATOM     17  C   UNL     1     -10.556 -10.258  19.519  0.00  0.00    +0.046 A 
ATOM     19  C   UNL     1     -12.020  -9.280  17.842  0.00  0.00    +0.023 A 
ATOM     20  C   UNL     1     -11.681 -10.470  20.332  0.00  0.00    +0.024 A 
ATOM     21  C   UNL     1     -13.130  -9.546  18.643  0.00  0.00    -0.017 A 
ATOM     22  C   UNL     1     -12.960 -10.128  19.893  0.00  0.00    +0.010 A 
ATOM     31  H   UNL     1      -9.287 -10.820  21.060  0.00  0.00    +0.155 HD
ENDROOT
BRANCH  10   6
ATOM      4  O   UNL     1      -3.357 -10.639  15.926  0.00  0.00    -0.253 OA
ATOM      6  N   UNL     1      -5.067 -12.191  16.161  0.00  0.00    -0.296 N 
ATOM      8  N   UNL     1      -3.151 -12.768  15.028  0.00  0.00    -0.296 N 
ATOM     18  C   UNL     1      -3.816 -11.762  15.723  0.00  0.00    +0.300 C 
ATOM     30  H   UNL     1      -5.322 -13.161  16.005  0.00  0.00    +0.151 HD
ATOM     32  H   UNL     1      -3.601 -13.672  14.927  0.00  0.00    +0.151 HD
BRANCH   8  24
ATOM     24  C   UNL     1      -1.833 -12.590  14.464  0.00  0.00    +0.132 C 
BRANCH  24  27
ATOM     27  C   UNL     1      -1.962 -12.281  13.009  0.00  0.00    -0.016 C 
ATOM     29  C   UNL     1      -1.944 -11.041  12.506  0.00  0.00    +0.005 C 
ENDBRANCH  24  27
ENDBRANCH   8  24
ENDBRANCH  10   6
BRANCH  21  23
ATOM      1  S   UNL     1     -16.307  -8.421  16.589  0.00  0.00    -0.104 S 
ATOM     23  C   UNL     1     -14.446  -9.192  18.188  0.00  0.00    -0.011 A 
ATOM     25  C   UNL     1     -15.653  -9.202  18.947  0.00  0.00    +0.016 A 
ATOM     26  C   UNL     1     -14.661  -8.786  16.887  0.00  0.00    +0.053 A 
ATOM     28  C   UNL     1     -16.740  -8.805  18.200  0.00  0.00    +0.046 A 
ENDBRANCH  21  23
TORSDOF 4
ENDMDL
MODEL 10
REMARK VINA RESULT:      -6.1     29.275     33.876
REMARK  Name = 9424320
REMARK  4 active torsions:
REMARK  status: ('A' for Active; 'I' for Inactive)
REMARK    1  A    between atoms: N_6  and  C_10
REMARK    2  A    between atoms: N_8  and  C_24
REMARK    3  A    between atoms: C_21  and  C_23
REMARK    4  A    between atoms: C_24  and  C_27
REMARK                            x       y       z     vdW  Elec       q    Type
REMARK                         _______ _______ _______ _____ _____    ______ ____
ROOT
ATOM      2  O   UNL     1     -12.942   8.570  35.169  0.00  0.00    -0.273 OA
ATOM      3  O   UNL     1     -15.822   7.134  31.065  0.00  0.00    -0.270 OA
ATOM      5  N   UNL     1     -13.981   8.083  32.114  0.00  0.00    -0.286 N 
ATOM      7  N   UNL     1     -13.809   6.526  34.623  0.00  0.00    -0.283 N 
ATOM      9  C   UNL     1     -12.750   7.876  32.866  0.00  0.00    +0.164 C 
ATOM     10  C   UNL     1     -12.230  10.374  32.572  0.00  0.00    +0.078 C 
ATOM     11  C   UNL     1     -11.678   8.951  32.646  0.00  0.00    +0.054 C 
ATOM     12  C   UNL     1     -13.352  10.428  31.542  0.00  0.00    +0.041 C 
ATOM     13  C   UNL     1     -14.459   9.453  31.912  0.00  0.00    +0.111 C 
ATOM     14  C   UNL     1     -13.185   7.720  34.312  0.00  0.00    +0.238 C 
ATOM     15  C   UNL     1     -14.828   7.025  31.783  0.00  0.00    +0.249 C 
ATOM     16  C   UNL     1     -14.569   5.690  32.387  0.00  0.00    +0.059 A 
ATOM     17  C   UNL     1     -14.208   5.502  33.734  0.00  0.00    +0.046 A 
ATOM     19  C   UNL     1     -14.909   4.578  31.597  0.00  0.00    +0.023 A 
ATOM     20  C   UNL     1     -14.263   4.207  34.276  0.00  0.00    +0.024 A 
ATOM     21  C   UNL     1     -14.908   3.294  32.140  0.00  0.00    -0.017 A 
ATOM     22  C   UNL     1     -14.599   3.110  33.483  0.00  0.00    +0.010 A 
ATOM     31  H   UNL     1     -13.898   6.318  35.615  0.00  0.00    +0.155 HD
ENDROOT
BRANCH  10   6
ATOM      4  O   UNL     1     -10.180  11.385  34.334  0.00  0.00    -0.253 OA
ATOM      6  N   UNL     1     -11.183  11.312  32.242  0.00  0.00    -0.296 N 
ATOM      8  N   UNL     1      -9.342  12.649  32.578  0.00  0.00    -0.296 N 
ATOM     18  C   UNL     1     -10.231  11.749  33.160  0.00  0.00    +0.300 C 
ATOM     30  H   UNL     1     -11.094  11.616  31.278  0.00  0.00    +0.151 HD
ATOM     32  H   UNL     1      -9.450  12.875  31.595  0.00  0.00    +0.151 HD
BRANCH   8  24
ATOM     24  C   UNL     1      -8.254  13.257  33.308  0.00  0.00    +0.132 C 
BRANCH  24  27
ATOM     27  C   UNL     1      -6.972  12.977  32.596  0.00  0.00    -0.016 C 
ATOM     29  C   UNL     1      -6.898  12.607  31.312  0.00  0.00    +0.005 C 
ENDBRANCH  24  27
ENDBRANCH   8  24
ENDBRANCH  10   6
BRANCH  21  23
ATOM      1  S   UNL     1     -16.235   0.846  29.344  0.00  0.00    -0.104 S 
ATOM     23  C   UNL     1     -15.254   2.166  31.322  0.00  0.00    -0.011 A 
ATOM     25  C   UNL     1     -14.967   0.793  31.577  0.00  0.00    +0.016 A 
ATOM     26  C   UNL     1     -15.941   2.335  30.137  0.00  0.00    +0.053 A 
ATOM     28  C   UNL     1     -15.444  -0.032  30.582  0.00  0.00    +0.046 A 
ENDBRANCH  21  23
TORSDOF 4
ENDMDL
