MODEL 1
REMARK VINA RESULT:      -7.5      0.000      0.000
REMARK  Name = 75536755
REMARK  7 active torsions:
REMARK  status: ('A' for Active; 'I' for Inactive)
REMARK    1  A    between atoms: O_2  and  C_10
REMARK    2  A    between atoms: O_5  and  C_21
REMARK    3  A    between atoms: N_6  and  C_9
REMARK    4  A    between atoms: N_6  and  C_14
REMARK    5  A    between atoms: N_7  and  C_13
REMARK    6  A    between atoms: C_11  and  C_13
REMARK    7  A    between atoms: C_14  and  C_16
REMARK                            x       y       z     vdW  Elec       q    Type
REMARK                         _______ _______ _______ _____ _____    ______ ____
ROOT
ATOM      1  O   UNL     1      11.380   8.764  20.130  0.00  0.00    -0.371 OA
ATOM      9  C   UNL     1      12.706   6.826  19.776  0.00  0.00    +0.111 C 
ATOM     10  C   UNL     1      12.227   6.842  21.217  0.00  0.00    +0.164 C 
ATOM     11  C   UNL     1      11.031   7.779  21.118  0.00  0.00    +0.165 C 
ATOM     12  C   UNL     1      12.504   8.278  19.377  0.00  0.00    +0.181 C 
ENDROOT
BRANCH  10   2
ATOM      2  O   UNL     1      11.854   5.560  21.682  0.00  0.00    -0.388 OA
ATOM     28  H   UNL     1      12.442   5.318  22.418  0.00  0.00    +0.210 HD
ENDBRANCH  10   2
BRANCH   9   6
ATOM      6  N   UNL     1      14.082   6.383  19.624  0.00  0.00    -0.305 NA
ATOM     26  H   UNL     1      14.143   5.757  18.820  0.00  0.00    +0.123 HD
BRANCH   6  14
ATOM     14  C   UNL     1      14.977   7.514  19.412  0.00  0.00    +0.120 C 
BRANCH  14  16
ATOM     16  C   UNL     1      16.360   7.242  19.944  0.00  0.00    +0.008 A 
ATOM     21  C   UNL     1      17.133   6.205  19.422  0.00  0.00    +0.121 A 
ATOM     22  C   UNL     1      16.863   8.040  20.972  0.00  0.00    +0.008 A 
ATOM     23  C   UNL     1      18.411   5.966  19.928  0.00  0.00    +0.046 A 
ATOM     24  C   UNL     1      18.142   7.801  21.476  0.00  0.00    +0.001 A 
ATOM     25  C   UNL     1      18.915   6.763  20.954  0.00  0.00    +0.004 A 
BRANCH  21   5
ATOM      5  O   UNL     1      16.655   5.416  18.420  0.00  0.00    -0.506 OA
ATOM     29  H   UNL     1      15.915   5.870  17.983  0.00  0.00    +0.292 HD
ENDBRANCH  21   5
ENDBRANCH  14  16
ENDBRANCH   6  14
ENDBRANCH   9   6
BRANCH  11  13
ATOM     13  C   UNL     1      10.696   8.465  22.430  0.00  0.00    +0.140 C 
BRANCH  13   7
ATOM      3  O   UNL     1      14.663  12.826  24.969  0.00  0.00    -0.377 OA
ATOM      4  O   UNL     1      10.264  10.898  23.776  0.00  0.00    -0.253 OA
ATOM      7  N   UNL     1      11.720   9.412  22.811  0.00  0.00    -0.297 N 
ATOM      8  N   UNL     1      12.525  11.416  23.772  0.00  0.00    -0.281 N 
ATOM     15  C   UNL     1      11.423  10.596  23.475  0.00  0.00    +0.302 C 
ATOM     17  C   UNL     1      12.303  12.686  24.466  0.00  0.00    +0.137 C 
ATOM     18  C   UNL     1      13.908  11.206  23.320  0.00  0.00    +0.137 C 
ATOM     19  C   UNL     1      13.355  12.912  25.540  0.00  0.00    +0.179 C 
ATOM     20  C   UNL     1      14.897  11.521  24.437  0.00  0.00    +0.179 C 
ATOM     27  H   UNL     1      12.665   9.171  22.548  0.00  0.00    +0.150 HD
ENDBRANCH  13   7
ENDBRANCH  11  13
TORSDOF 7
ENDMDL
MODEL 2
REMARK VINA RESULT:      -7.4      3.107      7.698
REMARK  Name = 75536755
REMARK  7 active torsions:
REMARK  status: ('A' for Active; 'I' for Inactive)
REMARK    1  A    between atoms: O_2  and  C_10
REMARK    2  A    between atoms: O_5  and  C_21
REMARK    3  A    between atoms: N_6  and  C_9
REMARK    4  A    between atoms: N_6  and  C_14
REMARK    5  A    between atoms: N_7  and  C_13
REMARK    6  A    between atoms: C_11  and  C_13
REMARK    7  A    between atoms: C_14  and  C_16
REMARK                            x       y       z     vdW  Elec       q    Type
REMARK                         _______ _______ _______ _____ _____    ______ ____
ROOT
ATOM      1  O   UNL     1      13.124   7.825  21.825  0.00  0.00    -0.371 OA
ATOM      9  C   UNL     1      11.156   8.823  22.703  0.00  0.00    +0.111 C 
ATOM     10  C   UNL     1      10.769   7.836  21.616  0.00  0.00    +0.164 C 
ATOM     11  C   UNL     1      12.010   6.955  21.564  0.00  0.00    +0.165 C 
ATOM     12  C   UNL     1      12.626   9.049  22.392  0.00  0.00    +0.181 C 
ENDROOT
BRANCH  10   2
ATOM      2  O   UNL     1       9.609   7.093  21.941  0.00  0.00    -0.388 OA
ATOM     28  H   UNL     1       9.886   6.217  22.260  0.00  0.00    +0.210 HD
ENDBRANCH  10   2
BRANCH   9   6
ATOM      6  N   UNL     1      10.377  10.050  22.680  0.00  0.00    -0.305 NA
ATOM     26  H   UNL     1       9.898  10.157  23.574  0.00  0.00    +0.123 HD
BRANCH   6  14
ATOM     14  C   UNL     1      11.232  11.211  22.460  0.00  0.00    +0.120 C 
BRANCH  14  16
ATOM     16  C   UNL     1      10.921  12.326  23.423  0.00  0.00    +0.008 A 
ATOM     21  C   UNL     1      11.018  12.128  24.800  0.00  0.00    +0.121 A 
ATOM     22  C   UNL     1      10.530  13.568  22.922  0.00  0.00    +0.008 A 
ATOM     23  C   UNL     1      10.725  13.172  25.677  0.00  0.00    +0.046 A 
ATOM     24  C   UNL     1      10.238  14.613  23.800  0.00  0.00    +0.001 A 
ATOM     25  C   UNL     1      10.335  14.414  25.178  0.00  0.00    +0.004 A 
BRANCH  21   5
ATOM      5  O   UNL     1      11.397  10.920  25.305  0.00  0.00    -0.506 OA
ATOM     29  H   UNL     1      11.213  10.229  24.647  0.00  0.00    +0.292 HD
ENDBRANCH  21   5
ENDBRANCH  14  16
ENDBRANCH   6  14
ENDBRANCH   9   6
BRANCH  11  13
ATOM     13  C   UNL     1      12.200   6.265  20.226  0.00  0.00    +0.140 C 
BRANCH  13   7
ATOM      3  O   UNL     1      12.946   9.974  15.040  0.00  0.00    -0.377 OA
ATOM      4  O   UNL     1      14.457   7.406  18.991  0.00  0.00    -0.253 OA
ATOM      7  N   UNL     1      12.176   7.211  19.132  0.00  0.00    -0.297 N 
ATOM      8  N   UNL     1      13.153   8.644  17.526  0.00  0.00    -0.281 N 
ATOM     15  C   UNL     1      13.340   7.730  18.577  0.00  0.00    +0.302 C 
ATOM     17  C   UNL     1      14.325   9.245  16.887  0.00  0.00    +0.137 C 
ATOM     18  C   UNL     1      11.867   9.196  17.075  0.00  0.00    +0.137 C 
ATOM     19  C   UNL     1      14.157   9.293  15.376  0.00  0.00    +0.179 C 
ATOM     20  C   UNL     1      11.813   9.272  15.554  0.00  0.00    +0.179 C 
ATOM     27  H   UNL     1      11.260   7.489  18.808  0.00  0.00    +0.150 HD
ENDBRANCH  13   7
ENDBRANCH  11  13
TORSDOF 7
ENDMDL
MODEL 3
REMARK VINA RESULT:      -6.9      3.024      7.318
REMARK  Name = 75536755
REMARK  7 active torsions:
REMARK  status: ('A' for Active; 'I' for Inactive)
REMARK    1  A    between atoms: O_2  and  C_10
REMARK    2  A    between atoms: O_5  and  C_21
REMARK    3  A    between atoms: N_6  and  C_9
REMARK    4  A    between atoms: N_6  and  C_14
REMARK    5  A    between atoms: N_7  and  C_13
REMARK    6  A    between atoms: C_11  and  C_13
REMARK    7  A    between atoms: C_14  and  C_16
REMARK                            x       y       z     vdW  Elec       q    Type
REMARK                         _______ _______ _______ _____ _____    ______ ____
ROOT
ATOM      1  O   UNL     1      12.402   6.805  21.572  0.00  0.00    -0.371 OA
ATOM      9  C   UNL     1      10.650   8.404  21.447  0.00  0.00    +0.111 C 
ATOM     10  C   UNL     1      11.430   8.419  20.144  0.00  0.00    +0.164 C 
ATOM     11  C   UNL     1      12.103   7.055  20.189  0.00  0.00    +0.165 C 
ATOM     12  C   UNL     1      11.636   7.717  22.377  0.00  0.00    +0.181 C 
ENDROOT
BRANCH  10   2
ATOM      2  O   UNL     1      10.596   8.558  19.010  0.00  0.00    -0.388 OA
ATOM     28  H   UNL     1      10.951   9.272  18.454  0.00  0.00    +0.210 HD
ENDBRANCH  10   2
BRANCH   9   6
ATOM      6  N   UNL     1      10.261   9.726  21.909  0.00  0.00    -0.305 NA
ATOM     26  H   UNL     1       9.740   9.633  22.781  0.00  0.00    +0.123 HD
BRANCH   6  14
ATOM     14  C   UNL     1      11.430  10.565  22.143  0.00  0.00    +0.120 C 
BRANCH  14  16
ATOM     16  C   UNL     1      11.120  11.710  23.071  0.00  0.00    +0.008 A 
ATOM     21  C   UNL     1      11.063  11.515  24.451  0.00  0.00    +0.121 A 
ATOM     22  C   UNL     1      10.889  12.978  22.535  0.00  0.00    +0.008 A 
ATOM     23  C   UNL     1      10.774  12.586  25.295  0.00  0.00    +0.046 A 
ATOM     24  C   UNL     1      10.600  14.049  23.381  0.00  0.00    +0.001 A 
ATOM     25  C   UNL     1      10.543  13.853  24.761  0.00  0.00    +0.004 A 
BRANCH  21   5
ATOM      5  O   UNL     1      11.285  10.283  24.990  0.00  0.00    -0.506 OA
ATOM     29  H   UNL     1      12.243  10.115  25.015  0.00  0.00    +0.292 HD
ENDBRANCH  21   5
ENDBRANCH  14  16
ENDBRANCH   6  14
ENDBRANCH   9   6
BRANCH  11  13
ATOM     13  C   UNL     1      13.379   6.987  19.368  0.00  0.00    +0.140 C 
BRANCH  13   7
ATOM      3  O   UNL     1      14.399  12.502  16.247  0.00  0.00    -0.377 OA
ATOM      4  O   UNL     1      13.818   7.605  16.658  0.00  0.00    -0.253 OA
ATOM      7  N   UNL     1      13.744   8.285  18.848  0.00  0.00    -0.297 N 
ATOM      8  N   UNL     1      14.302   9.822  17.140  0.00  0.00    -0.281 N 
ATOM     15  C   UNL     1      13.944   8.508  17.491  0.00  0.00    +0.302 C 
ATOM     17  C   UNL     1      14.539  10.144  15.731  0.00  0.00    +0.137 C 
ATOM     18  C   UNL     1      14.620  10.912  18.073  0.00  0.00    +0.137 C 
ATOM     19  C   UNL     1      13.917  11.484  15.368  0.00  0.00    +0.179 C 
ATOM     20  C   UNL     1      14.016  12.228  17.595  0.00  0.00    +0.179 C 
ATOM     27  H   UNL     1      13.864   9.019  19.532  0.00  0.00    +0.150 HD
ENDBRANCH  13   7
ENDBRANCH  11  13
TORSDOF 7
ENDMDL
MODEL 4
REMARK VINA RESULT:      -6.8     27.196     30.199
REMARK  Name = 75536755
REMARK  7 active torsions:
REMARK  status: ('A' for Active; 'I' for Inactive)
REMARK    1  A    between atoms: O_2  and  C_10
REMARK    2  A    between atoms: O_5  and  C_21
REMARK    3  A    between atoms: N_6  and  C_9
REMARK    4  A    between atoms: N_6  and  C_14
REMARK    5  A    between atoms: N_7  and  C_13
REMARK    6  A    between atoms: C_11  and  C_13
REMARK    7  A    between atoms: C_14  and  C_16
REMARK                            x       y       z     vdW  Elec       q    Type
REMARK                         _______ _______ _______ _____ _____    ______ ____
ROOT
ATOM      1  O   UNL     1     -17.641   3.845  26.516  0.00  0.00    -0.371 OA
ATOM      9  C   UNL     1     -16.520   4.745  24.625  0.00  0.00    +0.111 C 
ATOM     10  C   UNL     1     -15.967   3.361  24.917  0.00  0.00    +0.164 C 
ATOM     11  C   UNL     1     -17.097   2.762  25.742  0.00  0.00    +0.165 C 
ATOM     12  C   UNL     1     -17.188   5.085  25.947  0.00  0.00    +0.181 C 
ENDROOT
BRANCH  10   2
ATOM      2  O   UNL     1     -15.719   2.614  23.742  0.00  0.00    -0.388 OA
ATOM     28  H   UNL     1     -15.568   3.235  23.009  0.00  0.00    +0.210 HD
ENDBRANCH  10   2
BRANCH   9   6
ATOM      6  N   UNL     1     -15.503   5.710  24.240  0.00  0.00    -0.305 NA
ATOM     26  H   UNL     1     -14.587   5.263  24.283  0.00  0.00    +0.123 HD
BRANCH   6  14
ATOM     14  C   UNL     1     -15.728   6.196  22.884  0.00  0.00    +0.120 C 
BRANCH  14  16
ATOM     16  C   UNL     1     -14.440   6.583  22.206  0.00  0.00    +0.008 A 
ATOM     21  C   UNL     1     -13.502   5.614  21.852  0.00  0.00    +0.121 A 
ATOM     22  C   UNL     1     -14.191   7.929  21.936  0.00  0.00    +0.008 A 
ATOM     23  C   UNL     1     -12.313   5.991  21.226  0.00  0.00    +0.046 A 
ATOM     24  C   UNL     1     -13.002   8.305  21.309  0.00  0.00    +0.001 A 
ATOM     25  C   UNL     1     -12.064   7.335  20.954  0.00  0.00    +0.004 A 
BRANCH  21   5
ATOM      5  O   UNL     1     -13.729   4.296  22.110  0.00  0.00    -0.506 OA
ATOM     29  H   UNL     1     -13.886   3.830  21.271  0.00  0.00    +0.292 HD
ENDBRANCH  21   5
ENDBRANCH  14  16
ENDBRANCH   6  14
ENDBRANCH   9   6
BRANCH  11  13
ATOM     13  C   UNL     1     -16.640   1.649  26.668  0.00  0.00    +0.140 C 
BRANCH  13   7
ATOM      3  O   UNL     1     -14.586   3.256  32.533  0.00  0.00    -0.377 OA
ATOM      4  O   UNL     1     -15.472   0.176  28.762  0.00  0.00    -0.253 OA
ATOM      7  N   UNL     1     -16.369   2.145  27.999  0.00  0.00    -0.297 N 
ATOM      8  N   UNL     1     -15.595   1.972  30.226  0.00  0.00    -0.281 N 
ATOM     15  C   UNL     1     -15.789   1.350  28.980  0.00  0.00    +0.302 C 
ATOM     17  C   UNL     1     -14.995   1.206  31.320  0.00  0.00    +0.137 C 
ATOM     18  C   UNL     1     -16.077   3.306  30.614  0.00  0.00    +0.137 C 
ATOM     19  C   UNL     1     -13.979   2.045  32.079  0.00  0.00    +0.179 C 
ATOM     20  C   UNL     1     -15.024   4.047  31.427  0.00  0.00    +0.179 C 
ATOM     27  H   UNL     1     -16.646   3.099  28.181  0.00  0.00    +0.150 HD
ENDBRANCH  13   7
ENDBRANCH  11  13
TORSDOF 7
ENDMDL
MODEL 5
REMARK VINA RESULT:      -6.5     27.160     30.319
REMARK  Name = 75536755
REMARK  7 active torsions:
REMARK  status: ('A' for Active; 'I' for Inactive)
REMARK    1  A    between atoms: O_2  and  C_10
REMARK    2  A    between atoms: O_5  and  C_21
REMARK    3  A    between atoms: N_6  and  C_9
REMARK    4  A    between atoms: N_6  and  C_14
REMARK    5  A    between atoms: N_7  and  C_13
REMARK    6  A    between atoms: C_11  and  C_13
REMARK    7  A    between atoms: C_14  and  C_16
REMARK                            x       y       z     vdW  Elec       q    Type
REMARK                         _______ _______ _______ _____ _____    ______ ____
ROOT
ATOM      1  O   UNL     1     -18.577   4.182  24.608  0.00  0.00    -0.371 OA
ATOM      9  C   UNL     1     -16.686   3.333  23.447  0.00  0.00    +0.111 C 
ATOM     10  C   UNL     1     -16.537   3.029  24.927  0.00  0.00    +0.164 C 
ATOM     11  C   UNL     1     -17.982   3.138  25.396  0.00  0.00    +0.165 C 
ATOM     12  C   UNL     1     -17.732   4.436  23.472  0.00  0.00    +0.181 C 
ENDROOT
BRANCH  10   2
ATOM      2  O   UNL     1     -16.001   1.742  25.168  0.00  0.00    -0.388 OA
ATOM     28  H   UNL     1     -16.691   1.083  24.981  0.00  0.00    +0.210 HD
ENDBRANCH  10   2
BRANCH   9   6
ATOM      6  N   UNL     1     -15.447   3.743  22.808  0.00  0.00    -0.305 NA
ATOM     26  H   UNL     1     -15.611   3.862  21.808  0.00  0.00    +0.123 HD
BRANCH   6  14
ATOM     14  C   UNL     1     -14.962   5.001  23.362  0.00  0.00    +0.120 C 
BRANCH  14  16
ATOM     16  C   UNL     1     -14.153   5.780  22.358  0.00  0.00    +0.008 A 
ATOM     21  C   UNL     1     -12.824   5.447  22.101  0.00  0.00    +0.121 A 
ATOM     22  C   UNL     1     -14.750   6.846  21.683  0.00  0.00    +0.008 A 
ATOM     23  C   UNL     1     -12.089   6.180  21.168  0.00  0.00    +0.046 A 
ATOM     24  C   UNL     1     -14.015   7.578  20.750  0.00  0.00    +0.001 A 
ATOM     25  C   UNL     1     -12.684   7.244  20.493  0.00  0.00    +0.004 A 
BRANCH  21   5
ATOM      5  O   UNL     1     -12.226   4.410  22.752  0.00  0.00    -0.506 OA
ATOM     29  H   UNL     1     -12.076   3.684  22.123  0.00  0.00    +0.292 HD
ENDBRANCH  21   5
ENDBRANCH  14  16
ENDBRANCH   6  14
ENDBRANCH   9   6
BRANCH  11  13
ATOM     13  C   UNL     1     -18.111   3.472  26.871  0.00  0.00    +0.140 C 
BRANCH  13   7
ATOM      3  O   UNL     1     -14.350   0.544  31.171  0.00  0.00    -0.377 OA
ATOM      4  O   UNL     1     -16.095   4.397  28.603  0.00  0.00    -0.253 OA
ATOM      7  N   UNL     1     -17.247   2.641  27.680  0.00  0.00    -0.297 N 
ATOM      8  N   UNL     1     -15.507   2.243  29.230  0.00  0.00    -0.281 N 
ATOM     15  C   UNL     1     -16.272   3.178  28.512  0.00  0.00    +0.302 C 
ATOM     17  C   UNL     1     -14.452   2.721  30.126  0.00  0.00    +0.137 C 
ATOM     18  C   UNL     1     -15.549   0.782  29.069  0.00  0.00    +0.137 C 
ATOM     19  C   UNL     1     -14.455   1.944  31.434  0.00  0.00    +0.179 C 
ATOM     20  C   UNL     1     -15.478   0.085  30.422  0.00  0.00    +0.179 C 
ATOM     27  H   UNL     1     -17.381   1.644  27.591  0.00  0.00    +0.150 HD
ENDBRANCH  13   7
ENDBRANCH  11  13
TORSDOF 7
ENDMDL
MODEL 6
REMARK VINA RESULT:      -6.4     27.982     30.010
REMARK  Name = 75536755
REMARK  7 active torsions:
REMARK  status: ('A' for Active; 'I' for Inactive)
REMARK    1  A    between atoms: O_2  and  C_10
REMARK    2  A    between atoms: O_5  and  C_21
REMARK    3  A    between atoms: N_6  and  C_9
REMARK    4  A    between atoms: N_6  and  C_14
REMARK    5  A    between atoms: N_7  and  C_13
REMARK    6  A    between atoms: C_11  and  C_13
REMARK    7  A    between atoms: C_14  and  C_16
REMARK                            x       y       z     vdW  Elec       q    Type
REMARK                         _______ _______ _______ _____ _____    ______ ____
ROOT
ATOM      1  O   UNL     1     -11.920  -7.907  14.215  0.00  0.00    -0.371 OA
ATOM      9  C   UNL     1     -10.285  -8.222  15.908  0.00  0.00    +0.111 C 
ATOM     10  C   UNL     1     -10.709  -6.764  15.894  0.00  0.00    +0.164 C 
ATOM     11  C   UNL     1     -12.054  -6.857  15.188  0.00  0.00    +0.165 C 
ATOM     12  C   UNL     1     -10.755  -8.684  14.539  0.00  0.00    +0.181 C 
ENDROOT
BRANCH  10   2
ATOM      2  O   UNL     1     -10.833  -6.219  17.193  0.00  0.00    -0.388 OA
ATOM     28  H   UNL     1     -10.028  -5.710  17.390  0.00  0.00    +0.210 HD
ENDBRANCH  10   2
BRANCH   9   6
ATOM      6  N   UNL     1      -8.858  -8.413  16.112  0.00  0.00    -0.305 NA
ATOM     26  H   UNL     1      -8.395  -7.504  16.090  0.00  0.00    +0.123 HD
BRANCH   6  14
ATOM     14  C   UNL     1      -8.592  -9.049  17.396  0.00  0.00    +0.120 C 
BRANCH  14  16
ATOM     16  C   UNL     1      -7.206  -9.636  17.454  0.00  0.00    +0.008 A 
ATOM     21  C   UNL     1      -6.733 -10.234  18.621  0.00  0.00    +0.121 A 
ATOM     22  C   UNL     1      -6.393  -9.575  16.322  0.00  0.00    +0.008 A 
ATOM     23  C   UNL     1      -5.447 -10.772  18.657  0.00  0.00    +0.046 A 
ATOM     24  C   UNL     1      -5.107 -10.114  16.358  0.00  0.00    +0.001 A 
ATOM     25  C   UNL     1      -4.634 -10.712  17.526  0.00  0.00    +0.004 A 
BRANCH  21   5
ATOM      5  O   UNL     1      -7.514 -10.301  19.736  0.00  0.00    -0.506 OA
ATOM     29  H   UNL     1      -6.959 -10.159  20.522  0.00  0.00    +0.292 HD
ENDBRANCH  21   5
ENDBRANCH  14  16
ENDBRANCH   6  14
ENDBRANCH   9   6
BRANCH  11  13
ATOM     13  C   UNL     1     -12.460  -5.567  14.498  0.00  0.00    +0.140 C 
BRANCH  13   7
ATOM      3  O   UNL     1     -10.919  -4.990   8.293  0.00  0.00    -0.377 OA
ATOM      4  O   UNL     1     -12.334  -3.366  12.749  0.00  0.00    -0.253 OA
ATOM      7  N   UNL     1     -12.235  -5.635  13.071  0.00  0.00    -0.297 N 
ATOM      8  N   UNL     1     -11.967  -4.726  10.905  0.00  0.00    -0.281 N 
ATOM     15  C   UNL     1     -12.187  -4.497  12.275  0.00  0.00    +0.302 C 
ATOM     17  C   UNL     1     -11.908  -3.583   9.992  0.00  0.00    +0.137 C 
ATOM     18  C   UNL     1     -11.933  -6.036  10.240  0.00  0.00    +0.137 C 
ATOM     19  C   UNL     1     -10.780  -3.748   8.986  0.00  0.00    +0.179 C 
ATOM     20  C   UNL     1     -10.819  -6.088   9.201  0.00  0.00    +0.179 C 
ATOM     27  H   UNL     1     -12.133  -6.562  12.683  0.00  0.00    +0.150 HD
ENDBRANCH  13   7
ENDBRANCH  11  13
TORSDOF 7
ENDMDL
MODEL 7
REMARK VINA RESULT:      -6.3      3.824      5.928
REMARK  Name = 75536755
REMARK  7 active torsions:
REMARK  status: ('A' for Active; 'I' for Inactive)
REMARK    1  A    between atoms: O_2  and  C_10
REMARK    2  A    between atoms: O_5  and  C_21
REMARK    3  A    between atoms: N_6  and  C_9
REMARK    4  A    between atoms: N_6  and  C_14
REMARK    5  A    between atoms: N_7  and  C_13
REMARK    6  A    between atoms: C_11  and  C_13
REMARK    7  A    between atoms: C_14  and  C_16
REMARK                            x       y       z     vdW  Elec       q    Type
REMARK                         _______ _______ _______ _____ _____    ______ ____
ROOT
ATOM      1  O   UNL     1      12.656   6.990  19.067  0.00  0.00    -0.371 OA
ATOM      9  C   UNL     1      14.197   8.013  20.557  0.00  0.00    +0.111 C 
ATOM     10  C   UNL     1      13.751   9.035  19.527  0.00  0.00    +0.164 C 
ATOM     11  C   UNL     1      12.449   8.412  19.041  0.00  0.00    +0.165 C 
ATOM     12  C   UNL     1      13.814   6.711  19.873  0.00  0.00    +0.181 C 
ENDROOT
BRANCH  10   2
ATOM      2  O   UNL     1      13.544  10.318  20.086  0.00  0.00    -0.388 OA
ATOM     28  H   UNL     1      12.845  10.764  19.579  0.00  0.00    +0.210 HD
ENDBRANCH  10   2
BRANCH   9   6
ATOM      6  N   UNL     1      15.613   8.088  20.878  0.00  0.00    -0.305 NA
ATOM     26  H   UNL     1      15.762   7.716  21.816  0.00  0.00    +0.123 HD
BRANCH   6  14
ATOM     14  C   UNL     1      16.408   7.316  19.931  0.00  0.00    +0.120 C 
BRANCH  14  16
ATOM     16  C   UNL     1      17.753   6.946  20.499  0.00  0.00    +0.008 A 
ATOM     21  C   UNL     1      18.512   5.925  19.928  0.00  0.00    +0.121 A 
ATOM     22  C   UNL     1      18.237   7.639  21.609  0.00  0.00    +0.008 A 
ATOM     23  C   UNL     1      19.755   5.595  20.468  0.00  0.00    +0.046 A 
ATOM     24  C   UNL     1      19.480   7.309  22.149  0.00  0.00    +0.001 A 
ATOM     25  C   UNL     1      20.239   6.287  21.577  0.00  0.00    +0.004 A 
BRANCH  21   5
ATOM      5  O   UNL     1      18.054   5.238  18.844  0.00  0.00    -0.506 OA
ATOM     29  H   UNL     1      17.280   4.711  19.106  0.00  0.00    +0.292 HD
ENDBRANCH  21   5
ENDBRANCH  14  16
ENDBRANCH   6  14
ENDBRANCH   9   6
BRANCH  11  13
ATOM     13  C   UNL     1      12.062   8.849  17.639  0.00  0.00    +0.140 C 
BRANCH  13   7
ATOM      3  O   UNL     1      15.856  12.869  14.377  0.00  0.00    -0.377 OA
ATOM      4  O   UNL     1      13.641   8.548  15.329  0.00  0.00    -0.253 OA
ATOM      7  N   UNL     1      12.986   9.830  17.115  0.00  0.00    -0.297 N 
ATOM      8  N   UNL     1      14.591  10.649  15.585  0.00  0.00    -0.281 N 
ATOM     15  C   UNL     1      13.732   9.603  15.965  0.00  0.00    +0.302 C 
ATOM     17  C   UNL     1      15.419  10.492  14.388  0.00  0.00    +0.137 C 
ATOM     18  C   UNL     1      14.870  11.866  16.360  0.00  0.00    +0.137 C 
ATOM     19  C   UNL     1      15.435  11.771  13.565  0.00  0.00    +0.179 C 
ATOM     20  C   UNL     1      14.937  13.086  15.449  0.00  0.00    +0.179 C 
ATOM     27  H   UNL     1      13.072  10.685  17.646  0.00  0.00    +0.150 HD
ENDBRANCH  13   7
ENDBRANCH  11  13
TORSDOF 7
ENDMDL
MODEL 8
REMARK VINA RESULT:      -6.3      2.771      7.512
REMARK  Name = 75536755
REMARK  7 active torsions:
REMARK  status: ('A' for Active; 'I' for Inactive)
REMARK    1  A    between atoms: O_2  and  C_10
REMARK    2  A    between atoms: O_5  and  C_21
REMARK    3  A    between atoms: N_6  and  C_9
REMARK    4  A    between atoms: N_6  and  C_14
REMARK    5  A    between atoms: N_7  and  C_13
REMARK    6  A    between atoms: C_11  and  C_13
REMARK    7  A    between atoms: C_14  and  C_16
REMARK                            x       y       z     vdW  Elec       q    Type
REMARK                         _______ _______ _______ _____ _____    ______ ____
ROOT
ATOM      1  O   UNL     1      15.020   8.289  21.468  0.00  0.00    -0.371 OA
ATOM      9  C   UNL     1      14.234  10.316  22.424  0.00  0.00    +0.111 C 
ATOM     10  C   UNL     1      13.047   9.421  22.115  0.00  0.00    +0.164 C 
ATOM     11  C   UNL     1      13.720   8.057  22.037  0.00  0.00    +0.165 C 
ATOM     12  C   UNL     1      15.313   9.694  21.553  0.00  0.00    +0.181 C 
ENDROOT
BRANCH  10   2
ATOM      2  O   UNL     1      12.056   9.462  23.123  0.00  0.00    -0.388 OA
ATOM     28  H   UNL     1      11.636  10.339  23.104  0.00  0.00    +0.210 HD
ENDBRANCH  10   2
BRANCH   9   6
ATOM      6  N   UNL     1      14.001  11.719  22.121  0.00  0.00    -0.305 NA
ATOM     26  H   UNL     1      13.063  11.824  21.733  0.00  0.00    +0.123 HD
BRANCH   6  14
ATOM     14  C   UNL     1      14.111  12.539  23.321  0.00  0.00    +0.120 C 
BRANCH  14  16
ATOM     16  C   UNL     1      12.761  12.968  23.833  0.00  0.00    +0.008 A 
ATOM     21  C   UNL     1      12.154  12.295  24.893  0.00  0.00    +0.121 A 
ATOM     22  C   UNL     1      12.118  14.051  23.234  0.00  0.00    +0.008 A 
ATOM     23  C   UNL     1      10.903  12.704  25.353  0.00  0.00    +0.046 A 
ATOM     24  C   UNL     1      10.867  14.461  23.695  0.00  0.00    +0.001 A 
ATOM     25  C   UNL     1      10.260  13.787  24.755  0.00  0.00    +0.004 A 
BRANCH  21   5
ATOM      5  O   UNL     1      12.768  11.234  25.489  0.00  0.00    -0.506 OA
ATOM     29  H   UNL     1      13.327  11.557  26.215  0.00  0.00    +0.292 HD
ENDBRANCH  21   5
ENDBRANCH  14  16
ENDBRANCH   6  14
ENDBRANCH   9   6
BRANCH  11  13
ATOM     13  C   UNL     1      12.958   7.059  21.186  0.00  0.00    +0.140 C 
BRANCH  13   7
ATOM      3  O   UNL     1      13.093   9.050  15.085  0.00  0.00    -0.377 OA
ATOM      4  O   UNL     1      10.984   8.070  19.454  0.00  0.00    -0.253 OA
ATOM      7  N   UNL     1      13.129   7.324  19.775  0.00  0.00    -0.297 N 
ATOM      8  N   UNL     1      12.419   8.024  17.632  0.00  0.00    -0.281 N 
ATOM     15  C   UNL     1      12.100   7.825  18.986  0.00  0.00    +0.302 C 
ATOM     17  C   UNL     1      11.392   8.543  16.726  0.00  0.00    +0.137 C 
ATOM     18  C   UNL     1      13.666   7.619  16.966  0.00  0.00    +0.137 C 
ATOM     19  C   UNL     1      11.972   9.590  15.788  0.00  0.00    +0.179 C 
ATOM     20  C   UNL     1      14.136   8.696  15.995  0.00  0.00    +0.179 C 
ATOM     27  H   UNL     1      14.038   7.106  19.391  0.00  0.00    +0.150 HD
ENDBRANCH  13   7
ENDBRANCH  11  13
TORSDOF 7
ENDMDL
MODEL 9
REMARK VINA RESULT:      -6.2     26.582     28.584
REMARK  Name = 75536755
REMARK  7 active torsions:
REMARK  status: ('A' for Active; 'I' for Inactive)
REMARK    1  A    between atoms: O_2  and  C_10
REMARK    2  A    between atoms: O_5  and  C_21
REMARK    3  A    between atoms: N_6  and  C_9
REMARK    4  A    between atoms: N_6  and  C_14
REMARK    5  A    between atoms: N_7  and  C_13
REMARK    6  A    between atoms: C_11  and  C_13
REMARK    7  A    between atoms: C_14  and  C_16
REMARK                            x       y       z     vdW  Elec       q    Type
REMARK                         _______ _______ _______ _____ _____    ______ ____
ROOT
ATOM      1  O   UNL     1      -5.297 -11.476  15.840  0.00  0.00    -0.371 OA
ATOM      9  C   UNL     1      -3.176 -11.137  14.824  0.00  0.00    +0.111 C 
ATOM     10  C   UNL     1      -3.098 -10.726  16.283  0.00  0.00    +0.164 C 
ATOM     11  C   UNL     1      -4.288 -11.477  16.864  0.00  0.00    +0.165 C 
ATOM     12  C   UNL     1      -4.678 -11.127  14.590  0.00  0.00    +0.181 C 
ENDROOT
BRANCH  10   2
ATOM      2  O   UNL     1      -1.882 -11.111  16.895  0.00  0.00    -0.388 OA
ATOM     28  H   UNL     1      -1.715 -10.516  17.646  0.00  0.00    +0.210 HD
ENDBRANCH  10   2
BRANCH   9   6
ATOM      6  N   UNL     1      -2.457 -10.248  13.927  0.00  0.00    -0.305 NA
ATOM     26  H   UNL     1      -1.703  -9.794  14.444  0.00  0.00    +0.123 HD
BRANCH   6  14
ATOM     14  C   UNL     1      -1.886 -10.983  12.805  0.00  0.00    +0.120 C 
BRANCH  14  16
ATOM     16  C   UNL     1      -2.688 -10.792  11.545  0.00  0.00    +0.008 A 
ATOM     21  C   UNL     1      -3.355 -11.866  10.954  0.00  0.00    +0.121 A 
ATOM     22  C   UNL     1      -2.760  -9.524  10.969  0.00  0.00    +0.008 A 
ATOM     23  C   UNL     1      -4.092 -11.671   9.787  0.00  0.00    +0.046 A 
ATOM     24  C   UNL     1      -3.498  -9.330   9.801  0.00  0.00    +0.001 A 
ATOM     25  C   UNL     1      -4.164 -10.404   9.210  0.00  0.00    +0.004 A 
BRANCH  21   5
ATOM      5  O   UNL     1      -3.294 -13.111  11.504  0.00  0.00    -0.506 OA
ATOM     29  H   UNL     1      -3.057 -13.033  12.444  0.00  0.00    +0.292 HD
ENDBRANCH  21   5
ENDBRANCH  14  16
ENDBRANCH   6  14
ENDBRANCH   9   6
BRANCH  11  13
ATOM     13  C   UNL     1      -4.840 -10.842  18.128  0.00  0.00    +0.140 C 
BRANCH  13   7
ATOM      3  O   UNL     1     -11.151  -9.870  18.790  0.00  0.00    -0.377 OA
ATOM      4  O   UNL     1      -6.720 -11.683  20.046  0.00  0.00    -0.253 OA
ATOM      7  N   UNL     1      -6.272 -10.654  18.045  0.00  0.00    -0.297 N 
ATOM      8  N   UNL     1      -8.499 -10.851  18.811  0.00  0.00    -0.281 N 
ATOM     15  C   UNL     1      -7.135 -11.101  19.038  0.00  0.00    +0.302 C 
ATOM     17  C   UNL     1      -9.481 -11.294  19.804  0.00  0.00    +0.137 C 
ATOM     18  C   UNL     1      -9.087 -10.305  17.579  0.00  0.00    +0.137 C 
ATOM     19  C   UNL     1     -10.543 -10.229  20.032  0.00  0.00    +0.179 C 
ATOM     20  C   UNL     1     -10.187  -9.301  17.902  0.00  0.00    +0.179 C 
ATOM     27  H   UNL     1      -6.610 -10.195  17.211  0.00  0.00    +0.150 HD
ENDBRANCH  13   7
ENDBRANCH  11  13
TORSDOF 7
ENDMDL
MODEL 10
REMARK VINA RESULT:      -6.1      3.849      5.322
REMARK  Name = 75536755
REMARK  7 active torsions:
REMARK  status: ('A' for Active; 'I' for Inactive)
REMARK    1  A    between atoms: O_2  and  C_10
REMARK    2  A    between atoms: O_5  and  C_21
REMARK    3  A    between atoms: N_6  and  C_9
REMARK    4  A    between atoms: N_6  and  C_14
REMARK    5  A    between atoms: N_7  and  C_13
REMARK    6  A    between atoms: C_11  and  C_13
REMARK    7  A    between atoms: C_14  and  C_16
REMARK                            x       y       z     vdW  Elec       q    Type
REMARK                         _______ _______ _______ _____ _____    ______ ____
ROOT
ATOM      1  O   UNL     1      14.415   7.070  18.459  0.00  0.00    -0.371 OA
ATOM      9  C   UNL     1      15.235   6.467  20.605  0.00  0.00    +0.111 C 
ATOM     10  C   UNL     1      13.980   7.306  20.772  0.00  0.00    +0.164 C 
ATOM     11  C   UNL     1      13.333   7.141  19.403  0.00  0.00    +0.165 C 
ATOM     12  C   UNL     1      15.631   6.802  19.177  0.00  0.00    +0.181 C 
ENDROOT
BRANCH  10   2
ATOM      2  O   UNL     1      13.143   6.835  21.810  0.00  0.00    -0.388 OA
ATOM     28  H   UNL     1      13.447   7.223  22.649  0.00  0.00    +0.210 HD
ENDBRANCH  10   2
BRANCH   9   6
ATOM      6  N   UNL     1      16.276   6.778  21.571  0.00  0.00    -0.305 NA
ATOM     26  H   UNL     1      16.617   5.910  21.983  0.00  0.00    +0.123 HD
BRANCH   6  14
ATOM     14  C   UNL     1      17.391   7.470  20.935  0.00  0.00    +0.120 C 
BRANCH  14  16
ATOM     16  C   UNL     1      18.693   6.741  21.141  0.00  0.00    +0.008 A 
ATOM     21  C   UNL     1      19.543   7.083  22.192  0.00  0.00    +0.121 A 
ATOM     22  C   UNL     1      19.044   5.714  20.264  0.00  0.00    +0.008 A 
ATOM     23  C   UNL     1      20.745   6.398  22.367  0.00  0.00    +0.046 A 
ATOM     24  C   UNL     1      20.247   5.028  20.441  0.00  0.00    +0.001 A 
ATOM     25  C   UNL     1      21.097   5.371  21.492  0.00  0.00    +0.004 A 
BRANCH  21   5
ATOM      5  O   UNL     1      19.215   8.084  23.056  0.00  0.00    -0.506 OA
ATOM     29  H   UNL     1      19.920   8.174  23.720  0.00  0.00    +0.292 HD
ENDBRANCH  21   5
ENDBRANCH  14  16
ENDBRANCH   6  14
ENDBRANCH   9   6
BRANCH  11  13
ATOM     13  C   UNL     1      12.405   8.284  19.036  0.00  0.00    +0.140 C 
BRANCH  13   7
ATOM      3  O   UNL     1      15.474  12.268  15.047  0.00  0.00    -0.377 OA
ATOM      4  O   UNL     1      13.290  10.944  19.285  0.00  0.00    -0.253 OA
ATOM      7  N   UNL     1      12.957   9.093  17.971  0.00  0.00    -0.297 N 
ATOM      8  N   UNL     1      13.879  11.063  17.044  0.00  0.00    -0.281 N 
ATOM     15  C   UNL     1      13.371  10.404  18.178  0.00  0.00    +0.302 C 
ATOM     17  C   UNL     1      14.333  12.449  17.170  0.00  0.00    +0.137 C 
ATOM     18  C   UNL     1      13.870  10.550  15.667  0.00  0.00    +0.137 C 
ATOM     19  C   UNL     1      15.632  12.667  16.410  0.00  0.00    +0.179 C 
ATOM     20  C   UNL     1      15.181  10.873  14.960  0.00  0.00    +0.179 C 
ATOM     27  H   UNL     1      13.005   8.655  17.062  0.00  0.00    +0.150 HD
ENDBRANCH  13   7
ENDBRANCH  11  13
TORSDOF 7
ENDMDL
