MODEL 1
REMARK VINA RESULT:      -7.0      0.000      0.000
REMARK  Name = 11883368
REMARK  11 active torsions:
REMARK  status: ('A' for Active; 'I' for Inactive)
REMARK    1  A    between atoms: O_3  and  C_14
REMARK    2  A    between atoms: O_3  and  C_18
REMARK    3  A    between atoms: O_6  and  C_25
REMARK    4  A    between atoms: O_6  and  C_31
REMARK    5  A    between atoms: O_7  and  C_28
REMARK    6  A    between atoms: O_7  and  C_32
REMARK    7  A    between atoms: O_8  and  C_29
REMARK    8  A    between atoms: O_8  and  C_33
REMARK    9  A    between atoms: N_9  and  C_13
REMARK   10  A    between atoms: N_10  and  C_22
REMARK   11  A    between atoms: C_17  and  C_19
REMARK                            x       y       z     vdW  Elec       q    Type
REMARK                         _______ _______ _______ _____ _____    ______ ____
ROOT
ATOM      1  O   UNL     1     -16.203   3.623  22.936  0.00  0.00    -0.368 OA
ATOM      2  O   UNL     1     -17.254   6.110  24.390  0.00  0.00    -0.368 OA
ATOM     11  C   UNL     1     -16.081   5.902  23.577  0.00  0.00    +0.173 C 
ATOM     12  C   UNL     1     -15.577   4.506  23.881  0.00  0.00    +0.192 C 
ATOM     13  C   UNL     1     -16.465   5.839  22.118  0.00  0.00    +0.130 C 
ATOM     14  C   UNL     1     -16.083   4.275  25.285  0.00  0.00    +0.235 C 
ATOM     15  C   UNL     1     -16.925   4.399  21.968  0.00  0.00    +0.185 C 
ATOM     16  C   UNL     1     -17.419   4.982  25.263  0.00  0.00    +0.207 C 
ENDROOT
BRANCH  13   9
ATOM      4  O   UNL     1     -15.459   8.433  21.403  0.00  0.00    -0.270 OA
ATOM      9  N   UNL     1     -15.336   6.121  21.266  0.00  0.00    -0.304 N 
ATOM     17  C   UNL     1     -14.922   7.414  20.976  0.00  0.00    +0.244 C 
ATOM     34  H   UNL     1     -14.909   5.332  20.790  0.00  0.00    +0.149 HD
BRANCH  17  19
ATOM     19  C   UNL     1     -13.758   7.535  20.062  0.00  0.00    +0.037 A 
ATOM     20  C   UNL     1     -12.478   7.217  20.515  0.00  0.00    +0.016 A 
ATOM     21  C   UNL     1     -13.944   7.968  18.749  0.00  0.00    +0.016 A 
ATOM     23  C   UNL     1     -11.384   7.332  19.656  0.00  0.00    +0.046 A 
ATOM     24  C   UNL     1     -12.853   8.083  17.889  0.00  0.00    +0.046 A 
ATOM     25  C   UNL     1     -11.572   7.765  18.344  0.00  0.00    +0.120 A 
BRANCH  25   6
ATOM      6  O   UNL     1     -10.506   7.879  17.507  0.00  0.00    -0.495 OA
ATOM     31  C   UNL     1     -10.083   9.201  17.169  0.00  0.00    +0.277 C 
ENDBRANCH  25   6
ENDBRANCH  17  19
ENDBRANCH  13   9
BRANCH  14   3
ATOM      3  O   UNL     1     -16.209   2.911  25.620  0.00  0.00    -0.442 OA
BRANCH   3  18
ATOM      5  O   UNL     1     -17.418   1.947  27.304  0.00  0.00    -0.226 OA
ATOM     10  N   UNL     1     -15.473   3.176  27.735  0.00  0.00    -0.251 N 
ATOM     18  C   UNL     1     -16.456   2.614  26.944  0.00  0.00    +0.405 C 
ATOM     35  H   UNL     1     -14.750   3.700  27.250  0.00  0.00    +0.158 HD
BRANCH  10  22
ATOM     22  C   UNL     1     -15.347   3.114  29.142  0.00  0.00    +0.043 A 
ATOM     26  C   UNL     1     -15.421   4.282  29.901  0.00  0.00    +0.069 A 
ATOM     27  C   UNL     1     -15.149   1.885  29.770  0.00  0.00    +0.069 A 
ATOM     28  C   UNL     1     -15.023   1.824  31.159  0.00  0.00    +0.125 A 
ATOM     29  C   UNL     1     -15.296   4.220  31.290  0.00  0.00    +0.125 A 
ATOM     30  C   UNL     1     -15.097   2.991  31.918  0.00  0.00    +0.091 A 
BRANCH  28   7
ATOM      7  O   UNL     1     -14.827   0.625  31.773  0.00  0.00    -0.495 OA
ATOM     32  C   UNL     1     -14.957  -0.546  30.967  0.00  0.00    +0.277 C 
ENDBRANCH  28   7
BRANCH  29   8
ATOM      8  O   UNL     1     -15.367   5.360  32.030  0.00  0.00    -0.495 OA
ATOM     33  C   UNL     1     -14.157   5.821  32.629  0.00  0.00    +0.277 C 
ENDBRANCH  29   8
ENDBRANCH  10  22
ENDBRANCH   3  18
ENDBRANCH  14   3
TORSDOF 8
ENDMDL
MODEL 2
REMARK VINA RESULT:      -7.0      0.447      2.230
REMARK  Name = 11883368
REMARK  11 active torsions:
REMARK  status: ('A' for Active; 'I' for Inactive)
REMARK    1  A    between atoms: O_3  and  C_14
REMARK    2  A    between atoms: O_3  and  C_18
REMARK    3  A    between atoms: O_6  and  C_25
REMARK    4  A    between atoms: O_6  and  C_31
REMARK    5  A    between atoms: O_7  and  C_28
REMARK    6  A    between atoms: O_7  and  C_32
REMARK    7  A    between atoms: O_8  and  C_29
REMARK    8  A    between atoms: O_8  and  C_33
REMARK    9  A    between atoms: N_9  and  C_13
REMARK   10  A    between atoms: N_10  and  C_22
REMARK   11  A    between atoms: C_17  and  C_19
REMARK                            x       y       z     vdW  Elec       q    Type
REMARK                         _______ _______ _______ _____ _____    ______ ____
ROOT
ATOM      1  O   UNL     1     -16.256   3.710  22.792  0.00  0.00    -0.368 OA
ATOM      2  O   UNL     1     -17.231   6.193  24.305  0.00  0.00    -0.368 OA
ATOM     11  C   UNL     1     -16.072   5.973  23.474  0.00  0.00    +0.173 C 
ATOM     12  C   UNL     1     -15.598   4.561  23.745  0.00  0.00    +0.192 C 
ATOM     13  C   UNL     1     -16.476   5.947  22.018  0.00  0.00    +0.130 C 
ATOM     14  C   UNL     1     -16.092   4.314  25.151  0.00  0.00    +0.235 C 
ATOM     15  C   UNL     1     -16.971   4.521  21.848  0.00  0.00    +0.185 C 
ATOM     16  C   UNL     1     -17.411   5.053  25.159  0.00  0.00    +0.207 C 
ENDROOT
BRANCH  13   9
ATOM      4  O   UNL     1     -15.344   8.521  21.433  0.00  0.00    -0.270 OA
ATOM      9  N   UNL     1     -15.350   6.218  21.158  0.00  0.00    -0.304 N 
ATOM     17  C   UNL     1     -14.872   7.502  20.934  0.00  0.00    +0.244 C 
ATOM     34  H   UNL     1     -14.977   5.437  20.627  0.00  0.00    +0.149 HD
BRANCH  17  19
ATOM     19  C   UNL     1     -13.723   7.615  20.001  0.00  0.00    +0.037 A 
ATOM     20  C   UNL     1     -12.435   7.305  20.439  0.00  0.00    +0.016 A 
ATOM     21  C   UNL     1     -13.930   8.034  18.687  0.00  0.00    +0.016 A 
ATOM     23  C   UNL     1     -11.355   7.413  19.562  0.00  0.00    +0.046 A 
ATOM     24  C   UNL     1     -12.851   8.141  17.810  0.00  0.00    +0.046 A 
ATOM     25  C   UNL     1     -11.564   7.830  18.248  0.00  0.00    +0.120 A 
BRANCH  25   6
ATOM      6  O   UNL     1     -10.510   7.938  17.394  0.00  0.00    -0.495 OA
ATOM     31  C   UNL     1     -10.189   9.245  16.918  0.00  0.00    +0.277 C 
ENDBRANCH  25   6
ENDBRANCH  17  19
ENDBRANCH  13   9
BRANCH  14   3
ATOM      3  O   UNL     1     -16.246   2.948  25.462  0.00  0.00    -0.442 OA
BRANCH   3  18
ATOM      5  O   UNL     1     -17.439   1.958  27.142  0.00  0.00    -0.226 OA
ATOM     10  N   UNL     1     -15.492   3.183  27.574  0.00  0.00    -0.251 N 
ATOM     18  C   UNL     1     -16.481   2.631  26.784  0.00  0.00    +0.405 C 
ATOM     35  H   UNL     1     -14.774   3.715  27.090  0.00  0.00    +0.158 HD
BRANCH  10  22
ATOM     22  C   UNL     1     -15.353   3.101  28.979  0.00  0.00    +0.043 A 
ATOM     26  C   UNL     1     -15.047   1.880  29.579  0.00  0.00    +0.069 A 
ATOM     27  C   UNL     1     -15.524   4.241  29.764  0.00  0.00    +0.069 A 
ATOM     28  C   UNL     1     -15.388   4.160  31.150  0.00  0.00    +0.125 A 
ATOM     29  C   UNL     1     -14.911   1.799  30.966  0.00  0.00    +0.125 A 
ATOM     30  C   UNL     1     -15.082   2.939  31.751  0.00  0.00    +0.091 A 
BRANCH  28   7
ATOM      7  O   UNL     1     -15.557   5.271  31.917  0.00  0.00    -0.495 OA
ATOM     32  C   UNL     1     -15.982   6.461  31.252  0.00  0.00    +0.277 C 
ENDBRANCH  28   7
BRANCH  29   8
ATOM      8  O   UNL     1     -14.613   0.607  31.552  0.00  0.00    -0.495 OA
ATOM     33  C   UNL     1     -15.257  -0.552  31.027  0.00  0.00    +0.277 C 
ENDBRANCH  29   8
ENDBRANCH  10  22
ENDBRANCH   3  18
ENDBRANCH  14   3
TORSDOF 8
ENDMDL
MODEL 3
REMARK VINA RESULT:      -7.0     30.564     35.354
REMARK  Name = 11883368
REMARK  11 active torsions:
REMARK  status: ('A' for Active; 'I' for Inactive)
REMARK    1  A    between atoms: O_3  and  C_14
REMARK    2  A    between atoms: O_3  and  C_18
REMARK    3  A    between atoms: O_6  and  C_25
REMARK    4  A    between atoms: O_6  and  C_31
REMARK    5  A    between atoms: O_7  and  C_28
REMARK    6  A    between atoms: O_7  and  C_32
REMARK    7  A    between atoms: O_8  and  C_29
REMARK    8  A    between atoms: O_8  and  C_33
REMARK    9  A    between atoms: N_9  and  C_13
REMARK   10  A    between atoms: N_10  and  C_22
REMARK   11  A    between atoms: C_17  and  C_19
REMARK                            x       y       z     vdW  Elec       q    Type
REMARK                         _______ _______ _______ _____ _____    ______ ____
ROOT
ATOM      1  O   UNL     1      20.983   6.569  20.224  0.00  0.00    -0.368 OA
ATOM      2  O   UNL     1      19.945   7.007  23.076  0.00  0.00    -0.368 OA
ATOM     11  C   UNL     1      20.570   5.867  22.451  0.00  0.00    +0.173 C 
ATOM     12  C   UNL     1      20.060   5.812  21.025  0.00  0.00    +0.192 C 
ATOM     13  C   UNL     1      22.053   6.109  22.296  0.00  0.00    +0.130 C 
ATOM     14  C   UNL     1      18.719   6.498  21.132  0.00  0.00    +0.235 C 
ATOM     15  C   UNL     1      22.113   6.942  21.027  0.00  0.00    +0.185 C 
ATOM     16  C   UNL     1      18.990   7.569  22.164  0.00  0.00    +0.207 C 
ENDROOT
BRANCH  13   9
ATOM      4  O   UNL     1      22.410   4.075  24.292  0.00  0.00    -0.270 OA
ATOM      9  N   UNL     1      22.773   4.868  22.143  0.00  0.00    -0.304 N 
ATOM     17  C   UNL     1      22.893   3.942  23.170  0.00  0.00    +0.244 C 
ATOM     34  H   UNL     1      23.289   4.738  21.278  0.00  0.00    +0.149 HD
BRANCH  17  19
ATOM     19  C   UNL     1      23.688   2.727  22.861  0.00  0.00    +0.037 A 
ATOM     20  C   UNL     1      24.057   1.855  23.886  0.00  0.00    +0.016 A 
ATOM     21  C   UNL     1      24.069   2.457  21.547  0.00  0.00    +0.016 A 
ATOM     23  C   UNL     1      24.806   0.714  23.596  0.00  0.00    +0.046 A 
ATOM     24  C   UNL     1      24.817   1.317  21.255  0.00  0.00    +0.046 A 
ATOM     25  C   UNL     1      25.185   0.445  22.281  0.00  0.00    +0.120 A 
BRANCH  25   6
ATOM      6  O   UNL     1      25.917  -0.667  21.998  0.00  0.00    -0.495 OA
ATOM     31  C   UNL     1      27.097  -0.882  22.772  0.00  0.00    +0.277 C 
ENDBRANCH  25   6
ENDBRANCH  17  19
ENDBRANCH  13   9
BRANCH  14   3
ATOM      3  O   UNL     1      18.264   7.039  19.912  0.00  0.00    -0.442 OA
BRANCH   3  18
ATOM      5  O   UNL     1      16.920   5.447  18.970  0.00  0.00    -0.226 OA
ATOM     10  N   UNL     1      16.096   7.554  19.570  0.00  0.00    -0.251 N 
ATOM     18  C   UNL     1      17.058   6.572  19.434  0.00  0.00    +0.405 C 
ATOM     35  H   UNL     1      16.404   8.431  19.981  0.00  0.00    +0.158 HD
BRANCH  10  22
ATOM     22  C   UNL     1      14.731   7.491  19.207  0.00  0.00    +0.043 A 
ATOM     26  C   UNL     1      14.312   7.997  17.977  0.00  0.00    +0.069 A 
ATOM     27  C   UNL     1      13.803   6.924  20.081  0.00  0.00    +0.069 A 
ATOM     28  C   UNL     1      12.455   6.863  19.723  0.00  0.00    +0.125 A 
ATOM     29  C   UNL     1      12.964   7.936  17.620  0.00  0.00    +0.125 A 
ATOM     30  C   UNL     1      12.037   7.369  18.493  0.00  0.00    +0.091 A 
BRANCH  28   7
ATOM      7  O   UNL     1      11.549   6.312  20.575  0.00  0.00    -0.495 OA
ATOM     32  C   UNL     1      11.089   7.129  21.652  0.00  0.00    +0.277 C 
ENDBRANCH  28   7
BRANCH  29   8
ATOM      8  O   UNL     1      12.556   8.431  16.419  0.00  0.00    -0.495 OA
ATOM     33  C   UNL     1      13.163   9.645  15.978  0.00  0.00    +0.277 C 
ENDBRANCH  29   8
ENDBRANCH  10  22
ENDBRANCH   3  18
ENDBRANCH  14   3
TORSDOF 8
ENDMDL
MODEL 4
REMARK VINA RESULT:      -6.9      4.400      9.599
REMARK  Name = 11883368
REMARK  11 active torsions:
REMARK  status: ('A' for Active; 'I' for Inactive)
REMARK    1  A    between atoms: O_3  and  C_14
REMARK    2  A    between atoms: O_3  and  C_18
REMARK    3  A    between atoms: O_6  and  C_25
REMARK    4  A    between atoms: O_6  and  C_31
REMARK    5  A    between atoms: O_7  and  C_28
REMARK    6  A    between atoms: O_7  and  C_32
REMARK    7  A    between atoms: O_8  and  C_29
REMARK    8  A    between atoms: O_8  and  C_33
REMARK    9  A    between atoms: N_9  and  C_13
REMARK   10  A    between atoms: N_10  and  C_22
REMARK   11  A    between atoms: C_17  and  C_19
REMARK                            x       y       z     vdW  Elec       q    Type
REMARK                         _______ _______ _______ _____ _____    ______ ____
ROOT
ATOM      1  O   UNL     1     -16.057   3.536  31.590  0.00  0.00    -0.368 OA
ATOM      2  O   UNL     1     -14.162   2.526  33.779  0.00  0.00    -0.368 OA
ATOM     11  C   UNL     1     -13.996   3.535  32.762  0.00  0.00    +0.173 C 
ATOM     12  C   UNL     1     -14.712   3.034  31.524  0.00  0.00    +0.192 C 
ATOM     13  C   UNL     1     -14.756   4.784  33.140  0.00  0.00    +0.130 C 
ATOM     14  C   UNL     1     -14.665   1.535  31.704  0.00  0.00    +0.235 C 
ATOM     15  C   UNL     1     -16.169   4.448  32.693  0.00  0.00    +0.185 C 
ATOM     16  C   UNL     1     -14.819   1.389  33.201  0.00  0.00    +0.207 C 
ENDROOT
BRANCH  13   9
ATOM      4  O   UNL     1     -13.494   7.079  34.317  0.00  0.00    -0.270 OA
ATOM      9  N   UNL     1     -14.246   5.939  32.443  0.00  0.00    -0.304 N 
ATOM     17  C   UNL     1     -13.649   7.006  33.101  0.00  0.00    +0.244 C 
ATOM     34  H   UNL     1     -14.436   5.998  31.447  0.00  0.00    +0.149 HD
BRANCH  17  19
ATOM     19  C   UNL     1     -13.200   8.131  32.242  0.00  0.00    +0.037 A 
ATOM     20  C   UNL     1     -14.140   8.929  31.589  0.00  0.00    +0.016 A 
ATOM     21  C   UNL     1     -11.838   8.390  32.086  0.00  0.00    +0.016 A 
ATOM     23  C   UNL     1     -13.718   9.986  30.782  0.00  0.00    +0.046 A 
ATOM     24  C   UNL     1     -11.416   9.446  31.280  0.00  0.00    +0.046 A 
ATOM     25  C   UNL     1     -12.356  10.244  30.628  0.00  0.00    +0.120 A 
BRANCH  25   6
ATOM      6  O   UNL     1     -11.945  11.273  29.838  0.00  0.00    -0.495 OA
ATOM     31  C   UNL     1     -10.965  12.158  30.382  0.00  0.00    +0.277 C 
ENDBRANCH  25   6
ENDBRANCH  17  19
ENDBRANCH  13   9
BRANCH  14   3
ATOM      3  O   UNL     1     -15.674   0.851  30.996  0.00  0.00    -0.442 OA
BRANCH   3  18
ATOM      5  O   UNL     1     -14.739  -0.093  29.136  0.00  0.00    -0.226 OA
ATOM     10  N   UNL     1     -16.312   1.633  28.980  0.00  0.00    -0.251 N 
ATOM     18  C   UNL     1     -15.504   0.723  29.634  0.00  0.00    +0.405 C 
ATOM     35  H   UNL     1     -16.882   2.233  29.570  0.00  0.00    +0.158 HD
BRANCH  10  22
ATOM     22  C   UNL     1     -16.444   1.837  27.587  0.00  0.00    +0.043 A 
ATOM     26  C   UNL     1     -16.853   0.787  26.765  0.00  0.00    +0.069 A 
ATOM     27  C   UNL     1     -16.164   3.087  27.036  0.00  0.00    +0.069 A 
ATOM     28  C   UNL     1     -16.293   3.287  25.660  0.00  0.00    +0.125 A 
ATOM     29  C   UNL     1     -16.982   0.988  25.390  0.00  0.00    +0.125 A 
ATOM     30  C   UNL     1     -16.702   2.238  24.838  0.00  0.00    +0.091 A 
BRANCH  28   7
ATOM      7  O   UNL     1     -16.018   4.506  25.122  0.00  0.00    -0.495 OA
ATOM     32  C   UNL     1     -15.507   4.527  23.789  0.00  0.00    +0.277 C 
ENDBRANCH  28   7
BRANCH  29   8
ATOM      8  O   UNL     1     -17.381  -0.037  24.587  0.00  0.00    -0.495 OA
ATOM     33  C   UNL     1     -18.785  -0.251  24.459  0.00  0.00    +0.277 C 
ENDBRANCH  29   8
ENDBRANCH  10  22
ENDBRANCH   3  18
ENDBRANCH  14   3
TORSDOF 8
ENDMDL
MODEL 5
REMARK VINA RESULT:      -6.8     18.114     20.939
REMARK  Name = 11883368
REMARK  11 active torsions:
REMARK  status: ('A' for Active; 'I' for Inactive)
REMARK    1  A    between atoms: O_3  and  C_14
REMARK    2  A    between atoms: O_3  and  C_18
REMARK    3  A    between atoms: O_6  and  C_25
REMARK    4  A    between atoms: O_6  and  C_31
REMARK    5  A    between atoms: O_7  and  C_28
REMARK    6  A    between atoms: O_7  and  C_32
REMARK    7  A    between atoms: O_8  and  C_29
REMARK    8  A    between atoms: O_8  and  C_33
REMARK    9  A    between atoms: N_9  and  C_13
REMARK   10  A    between atoms: N_10  and  C_22
REMARK   11  A    between atoms: C_17  and  C_19
REMARK                            x       y       z     vdW  Elec       q    Type
REMARK                         _______ _______ _______ _____ _____    ______ ____
ROOT
ATOM      1  O   UNL     1      -6.848 -11.556  16.980  0.00  0.00    -0.368 OA
ATOM      2  O   UNL     1      -6.473 -10.920  19.956  0.00  0.00    -0.368 OA
ATOM     11  C   UNL     1      -7.039 -10.147  18.878  0.00  0.00    +0.173 C 
ATOM     12  C   UNL     1      -6.216 -10.448  17.642  0.00  0.00    +0.192 C 
ATOM     13  C   UNL     1      -8.414 -10.669  18.533  0.00  0.00    +0.130 C 
ATOM     14  C   UNL     1      -4.879 -10.834  18.227  0.00  0.00    +0.235 C 
ATOM     15  C   UNL     1      -8.095 -11.847  17.630  0.00  0.00    +0.185 C 
ATOM     16  C   UNL     1      -5.281 -11.567  19.486  0.00  0.00    +0.207 C 
ENDROOT
BRANCH  13   9
ATOM      4  O   UNL     1     -11.228 -10.176  18.830  0.00  0.00    -0.270 OA
ATOM      9  N   UNL     1      -9.193  -9.672  17.838  0.00  0.00    -0.304 N 
ATOM     17  C   UNL     1     -10.555  -9.508  18.049  0.00  0.00    +0.244 C 
ATOM     34  H   UNL     1      -8.727  -9.155  17.099  0.00  0.00    +0.149 HD
BRANCH  17  19
ATOM     19  C   UNL     1     -11.217  -8.456  17.236  0.00  0.00    +0.037 A 
ATOM     20  C   UNL     1     -12.561  -8.587  16.886  0.00  0.00    +0.016 A 
ATOM     21  C   UNL     1     -10.495  -7.338  16.820  0.00  0.00    +0.016 A 
ATOM     23  C   UNL     1     -13.183  -7.599  16.122  0.00  0.00    +0.046 A 
ATOM     24  C   UNL     1     -11.115  -6.350  16.056  0.00  0.00    +0.046 A 
ATOM     25  C   UNL     1     -12.459  -6.481  15.707  0.00  0.00    +0.120 A 
BRANCH  25   6
ATOM      6  O   UNL     1     -13.065  -5.519  14.960  0.00  0.00    -0.495 OA
ATOM     31  C   UNL     1     -12.440  -5.165  13.726  0.00  0.00    +0.277 C 
ENDBRANCH  25   6
ENDBRANCH  17  19
ENDBRANCH  13   9
BRANCH  14   3
ATOM      3  O   UNL     1      -4.101 -11.639  17.369  0.00  0.00    -0.442 OA
BRANCH   3  18
ATOM      5  O   UNL     1      -2.466 -10.398  16.362  0.00  0.00    -0.226 OA
ATOM     10  N   UNL     1      -4.306 -11.211  15.165  0.00  0.00    -0.251 N 
ATOM     18  C   UNL     1      -3.521 -11.016  16.284  0.00  0.00    +0.405 C 
ATOM     35  H   UNL     1      -5.153 -11.756  15.300  0.00  0.00    +0.158 HD
BRANCH  10  22
ATOM     22  C   UNL     1      -4.078 -10.744  13.850  0.00  0.00    +0.043 A 
ATOM     26  C   UNL     1      -2.785 -10.733  13.327  0.00  0.00    +0.069 A 
ATOM     27  C   UNL     1      -5.147 -10.293  13.076  0.00  0.00    +0.069 A 
ATOM     28  C   UNL     1      -4.923  -9.831  11.778  0.00  0.00    +0.125 A 
ATOM     29  C   UNL     1      -2.561 -10.272  12.030  0.00  0.00    +0.125 A 
ATOM     30  C   UNL     1      -3.630  -9.821  11.256  0.00  0.00    +0.091 A 
BRANCH  28   7
ATOM      7  O   UNL     1      -5.965  -9.390  11.023  0.00  0.00    -0.495 OA
ATOM     32  C   UNL     1      -7.254  -9.929  11.315  0.00  0.00    +0.277 C 
ENDBRANCH  28   7
BRANCH  29   8
ATOM      8  O   UNL     1      -1.299 -10.261  11.520  0.00  0.00    -0.495 OA
ATOM     33  C   UNL     1      -0.733  -8.986  11.217  0.00  0.00    +0.277 C 
ENDBRANCH  29   8
ENDBRANCH  10  22
ENDBRANCH   3  18
ENDBRANCH  14   3
TORSDOF 8
ENDMDL
MODEL 6
REMARK VINA RESULT:      -6.8     27.837     32.980
REMARK  Name = 11883368
REMARK  11 active torsions:
REMARK  status: ('A' for Active; 'I' for Inactive)
REMARK    1  A    between atoms: O_3  and  C_14
REMARK    2  A    between atoms: O_3  and  C_18
REMARK    3  A    between atoms: O_6  and  C_25
REMARK    4  A    between atoms: O_6  and  C_31
REMARK    5  A    between atoms: O_7  and  C_28
REMARK    6  A    between atoms: O_7  and  C_32
REMARK    7  A    between atoms: O_8  and  C_29
REMARK    8  A    between atoms: O_8  and  C_33
REMARK    9  A    between atoms: N_9  and  C_13
REMARK   10  A    between atoms: N_10  and  C_22
REMARK   11  A    between atoms: C_17  and  C_19
REMARK                            x       y       z     vdW  Elec       q    Type
REMARK                         _______ _______ _______ _____ _____    ______ ____
ROOT
ATOM      1  O   UNL     1      13.950   9.484  18.583  0.00  0.00    -0.368 OA
ATOM      2  O   UNL     1      11.812   7.736  19.916  0.00  0.00    -0.368 OA
ATOM     11  C   UNL     1      13.169   7.449  19.516  0.00  0.00    +0.173 C 
ATOM     12  C   UNL     1      13.414   8.200  18.223  0.00  0.00    +0.192 C 
ATOM     13  C   UNL     1      14.139   8.076  20.489  0.00  0.00    +0.130 C 
ATOM     14  C   UNL     1      12.024   8.316  17.645  0.00  0.00    +0.235 C 
ATOM     15  C   UNL     1      14.209   9.510  19.995  0.00  0.00    +0.185 C 
ATOM     16  C   UNL     1      11.177   8.504  18.883  0.00  0.00    +0.207 C 
ENDROOT
BRANCH  13   9
ATOM      4  O   UNL     1      16.515   8.864  21.897  0.00  0.00    -0.270 OA
ATOM      9  N   UNL     1      15.431   7.436  20.426  0.00  0.00    -0.304 N 
ATOM     17  C   UNL     1      16.527   7.892  21.146  0.00  0.00    +0.244 C 
ATOM     34  H   UNL     1      15.544   6.692  19.744  0.00  0.00    +0.149 HD
BRANCH  17  19
ATOM     19  C   UNL     1      17.792   7.140  20.951  0.00  0.00    +0.037 A 
ATOM     20  C   UNL     1      18.920   7.465  21.704  0.00  0.00    +0.016 A 
ATOM     21  C   UNL     1      17.854   6.109  20.013  0.00  0.00    +0.016 A 
ATOM     23  C   UNL     1      20.109   6.758  21.520  0.00  0.00    +0.046 A 
ATOM     24  C   UNL     1      19.041   5.403  19.828  0.00  0.00    +0.046 A 
ATOM     25  C   UNL     1      20.169   5.728  20.582  0.00  0.00    +0.120 A 
BRANCH  25   6
ATOM      6  O   UNL     1      21.330   5.040  20.401  0.00  0.00    -0.495 OA
ATOM     31  C   UNL     1      21.485   3.823  21.132  0.00  0.00    +0.277 C 
ENDBRANCH  25   6
ENDBRANCH  17  19
ENDBRANCH  13   9
BRANCH  14   3
ATOM      3  O   UNL     1      11.880   9.383  16.735  0.00  0.00    -0.442 OA
BRANCH   3  18
ATOM      5  O   UNL     1      13.215   8.618  15.045  0.00  0.00    -0.226 OA
ATOM     10  N   UNL     1      13.355  10.822  15.820  0.00  0.00    -0.251 N 
ATOM     18  C   UNL     1      12.867   9.531  15.784  0.00  0.00    +0.405 C 
ATOM     35  H   UNL     1      12.936  11.442  16.509  0.00  0.00    +0.158 HD
BRANCH  10  22
ATOM     22  C   UNL     1      14.369  11.393  15.017  0.00  0.00    +0.043 A 
ATOM     26  C   UNL     1      15.695  11.371  15.448  0.00  0.00    +0.069 A 
ATOM     27  C   UNL     1      14.042  11.979  13.794  0.00  0.00    +0.069 A 
ATOM     28  C   UNL     1      15.042  12.543  13.001  0.00  0.00    +0.125 A 
ATOM     29  C   UNL     1      16.695  11.935  14.655  0.00  0.00    +0.125 A 
ATOM     30  C   UNL     1      16.368  12.521  13.432  0.00  0.00    +0.091 A 
BRANCH  28   7
ATOM      7  O   UNL     1      14.724  13.116  11.809  0.00  0.00    -0.495 OA
ATOM     32  C   UNL     1      13.463  12.769  11.238  0.00  0.00    +0.277 C 
ENDBRANCH  28   7
BRANCH  29   8
ATOM      8  O   UNL     1      17.990  11.914  15.076  0.00  0.00    -0.495 OA
ATOM     33  C   UNL     1      18.999  11.899  14.067  0.00  0.00    +0.277 C 
ENDBRANCH  29   8
ENDBRANCH  10  22
ENDBRANCH   3  18
ENDBRANCH  14   3
TORSDOF 8
ENDMDL
MODEL 7
REMARK VINA RESULT:      -6.7     19.810     23.441
REMARK  Name = 11883368
REMARK  11 active torsions:
REMARK  status: ('A' for Active; 'I' for Inactive)
REMARK    1  A    between atoms: O_3  and  C_14
REMARK    2  A    between atoms: O_3  and  C_18
REMARK    3  A    between atoms: O_6  and  C_25
REMARK    4  A    between atoms: O_6  and  C_31
REMARK    5  A    between atoms: O_7  and  C_28
REMARK    6  A    between atoms: O_7  and  C_32
REMARK    7  A    between atoms: O_8  and  C_29
REMARK    8  A    between atoms: O_8  and  C_33
REMARK    9  A    between atoms: N_9  and  C_13
REMARK   10  A    between atoms: N_10  and  C_22
REMARK   11  A    between atoms: C_17  and  C_19
REMARK                            x       y       z     vdW  Elec       q    Type
REMARK                         _______ _______ _______ _____ _____    ______ ____
ROOT
ATOM      1  O   UNL     1      -3.924 -12.090  14.325  0.00  0.00    -0.368 OA
ATOM      2  O   UNL     1      -1.962 -10.913  16.366  0.00  0.00    -0.368 OA
ATOM     11  C   UNL     1      -3.334 -10.588  16.062  0.00  0.00    +0.173 C 
ATOM     12  C   UNL     1      -3.500 -10.738  14.563  0.00  0.00    +0.192 C 
ATOM     13  C   UNL     1      -4.255 -11.638  16.636  0.00  0.00    +0.130 C 
ATOM     14  C   UNL     1      -2.100 -10.493  14.054  0.00  0.00    +0.235 C 
ATOM     15  C   UNL     1      -4.194 -12.730  15.582  0.00  0.00    +0.185 C 
ATOM     16  C   UNL     1      -1.252 -11.122  15.136  0.00  0.00    +0.207 C 
ENDROOT
BRANCH  13   9
ATOM      4  O   UNL     1      -5.459 -10.670  19.056  0.00  0.00    -0.270 OA
ATOM      9  N   UNL     1      -5.598 -11.131  16.788  0.00  0.00    -0.304 N 
ATOM     17  C   UNL     1      -6.094 -10.684  18.004  0.00  0.00    +0.244 C 
ATOM     34  H   UNL     1      -6.215 -11.212  15.986  0.00  0.00    +0.149 HD
BRANCH  17  19
ATOM     19  C   UNL     1      -7.504 -10.217  18.000  0.00  0.00    +0.037 A 
ATOM     20  C   UNL     1      -7.885  -9.155  17.181  0.00  0.00    +0.016 A 
ATOM     21  C   UNL     1      -8.447 -10.840  18.818  0.00  0.00    +0.016 A 
ATOM     23  C   UNL     1      -9.210  -8.716  17.178  0.00  0.00    +0.046 A 
ATOM     24  C   UNL     1      -9.771 -10.403  18.815  0.00  0.00    +0.046 A 
ATOM     25  C   UNL     1     -10.152  -9.341  17.995  0.00  0.00    +0.120 A 
BRANCH  25   6
ATOM      6  O   UNL     1     -11.443  -8.911  17.994  0.00  0.00    -0.495 OA
ATOM     31  C   UNL     1     -12.378  -9.661  18.770  0.00  0.00    +0.277 C 
ENDBRANCH  25   6
ENDBRANCH  17  19
ENDBRANCH  13   9
BRANCH  14   3
ATOM      3  O   UNL     1      -1.854 -11.062  12.788  0.00  0.00    -0.442 OA
BRANCH   3  18
ATOM      5  O   UNL     1      -1.685  -9.447  11.178  0.00  0.00    -0.226 OA
ATOM     10  N   UNL     1      -3.539 -10.871  11.302  0.00  0.00    -0.251 N 
ATOM     18  C   UNL     1      -2.314 -10.366  11.690  0.00  0.00    +0.405 C 
ATOM     35  H   UNL     1      -3.903 -11.642  11.856  0.00  0.00    +0.158 HD
BRANCH  10  22
ATOM     22  C   UNL     1      -4.355 -10.448  10.228  0.00  0.00    +0.043 A 
ATOM     26  C   UNL     1      -5.360  -9.506  10.444  0.00  0.00    +0.069 A 
ATOM     27  C   UNL     1      -4.153 -10.973   8.952  0.00  0.00    +0.069 A 
ATOM     28  C   UNL     1      -4.959 -10.557   7.891  0.00  0.00    +0.125 A 
ATOM     29  C   UNL     1      -6.166  -9.090   9.383  0.00  0.00    +0.125 A 
ATOM     30  C   UNL     1      -5.965  -9.615   8.107  0.00  0.00    +0.091 A 
BRANCH  28   7
ATOM      7  O   UNL     1      -4.765 -11.070   6.646  0.00  0.00    -0.495 OA
ATOM     32  C   UNL     1      -5.858 -10.991   5.732  0.00  0.00    +0.277 C 
ENDBRANCH  28   7
BRANCH  29   8
ATOM      8  O   UNL     1      -7.148  -8.171   9.594  0.00  0.00    -0.495 OA
ATOM     33  C   UNL     1      -7.922  -7.778   8.462  0.00  0.00    +0.277 C 
ENDBRANCH  29   8
ENDBRANCH  10  22
ENDBRANCH   3  18
ENDBRANCH  14   3
TORSDOF 8
ENDMDL
MODEL 8
REMARK VINA RESULT:      -6.7     27.846     32.978
REMARK  Name = 11883368
REMARK  11 active torsions:
REMARK  status: ('A' for Active; 'I' for Inactive)
REMARK    1  A    between atoms: O_3  and  C_14
REMARK    2  A    between atoms: O_3  and  C_18
REMARK    3  A    between atoms: O_6  and  C_25
REMARK    4  A    between atoms: O_6  and  C_31
REMARK    5  A    between atoms: O_7  and  C_28
REMARK    6  A    between atoms: O_7  and  C_32
REMARK    7  A    between atoms: O_8  and  C_29
REMARK    8  A    between atoms: O_8  and  C_33
REMARK    9  A    between atoms: N_9  and  C_13
REMARK   10  A    between atoms: N_10  and  C_22
REMARK   11  A    between atoms: C_17  and  C_19
REMARK                            x       y       z     vdW  Elec       q    Type
REMARK                         _______ _______ _______ _____ _____    ______ ____
ROOT
ATOM      1  O   UNL     1      13.945   9.565  18.669  0.00  0.00    -0.368 OA
ATOM      2  O   UNL     1      11.860   7.772  20.026  0.00  0.00    -0.368 OA
ATOM     11  C   UNL     1      13.225   7.521  19.634  0.00  0.00    +0.173 C 
ATOM     12  C   UNL     1      13.450   8.259  18.329  0.00  0.00    +0.192 C 
ATOM     13  C   UNL     1      14.174   8.194  20.598  0.00  0.00    +0.130 C 
ATOM     14  C   UNL     1      12.059   8.322  17.746  0.00  0.00    +0.235 C 
ATOM     15  C   UNL     1      14.200   9.621  20.081  0.00  0.00    +0.185 C 
ATOM     16  C   UNL     1      11.204   8.503  18.980  0.00  0.00    +0.207 C 
ENDROOT
BRANCH  13   9
ATOM      4  O   UNL     1      16.532   9.107  21.958  0.00  0.00    -0.270 OA
ATOM      9  N   UNL     1      15.484   7.593  20.548  0.00  0.00    -0.304 N 
ATOM     17  C   UNL     1      16.570   8.109  21.243  0.00  0.00    +0.244 C 
ATOM     34  H   UNL     1      15.617   6.829  19.893  0.00  0.00    +0.149 HD
BRANCH  17  19
ATOM     19  C   UNL     1      17.857   7.391  21.065  0.00  0.00    +0.037 A 
ATOM     20  C   UNL     1      19.011   7.860  21.693  0.00  0.00    +0.016 A 
ATOM     21  C   UNL     1      17.914   6.248  20.267  0.00  0.00    +0.016 A 
ATOM     23  C   UNL     1      20.221   7.186  21.525  0.00  0.00    +0.046 A 
ATOM     24  C   UNL     1      19.123   5.573  20.099  0.00  0.00    +0.046 A 
ATOM     25  C   UNL     1      20.276   6.042  20.729  0.00  0.00    +0.120 A 
BRANCH  25   6
ATOM      6  O   UNL     1      21.456   5.386  20.563  0.00  0.00    -0.495 OA
ATOM     31  C   UNL     1      21.522   4.039  21.031  0.00  0.00    +0.277 C 
ENDBRANCH  25   6
ENDBRANCH  17  19
ENDBRANCH  13   9
BRANCH  14   3
ATOM      3  O   UNL     1      11.884   9.370  16.820  0.00  0.00    -0.442 OA
BRANCH   3  18
ATOM      5  O   UNL     1      13.140   8.556  15.091  0.00  0.00    -0.226 OA
ATOM     10  N   UNL     1      13.329  10.776  15.810  0.00  0.00    -0.251 N 
ATOM     18  C   UNL     1      12.831   9.488  15.824  0.00  0.00    +0.405 C 
ATOM     35  H   UNL     1      12.946  11.414  16.501  0.00  0.00    +0.158 HD
BRANCH  10  22
ATOM     22  C   UNL     1      14.312  11.319  14.951  0.00  0.00    +0.043 A 
ATOM     26  C   UNL     1      13.929  12.007  13.800  0.00  0.00    +0.069 A 
ATOM     27  C   UNL     1      15.665  11.166  15.254  0.00  0.00    +0.069 A 
ATOM     28  C   UNL     1      16.635  11.701  14.406  0.00  0.00    +0.125 A 
ATOM     29  C   UNL     1      14.900  12.543  12.951  0.00  0.00    +0.125 A 
ATOM     30  C   UNL     1      16.252  12.389  13.255  0.00  0.00    +0.091 A 
BRANCH  28   7
ATOM      7  O   UNL     1      17.955  11.551  14.701  0.00  0.00    -0.495 OA
ATOM     32  C   UNL     1      18.894  12.091  13.771  0.00  0.00    +0.277 C 
ENDBRANCH  28   7
BRANCH  29   8
ATOM      8  O   UNL     1      14.525  13.214  11.828  0.00  0.00    -0.495 OA
ATOM     33  C   UNL     1      13.234  12.920  11.297  0.00  0.00    +0.277 C 
ENDBRANCH  29   8
ENDBRANCH  10  22
ENDBRANCH   3  18
ENDBRANCH  14   3
TORSDOF 8
ENDMDL
MODEL 9
REMARK VINA RESULT:      -6.6     19.934     23.568
REMARK  Name = 11883368
REMARK  11 active torsions:
REMARK  status: ('A' for Active; 'I' for Inactive)
REMARK    1  A    between atoms: O_3  and  C_14
REMARK    2  A    between atoms: O_3  and  C_18
REMARK    3  A    between atoms: O_6  and  C_25
REMARK    4  A    between atoms: O_6  and  C_31
REMARK    5  A    between atoms: O_7  and  C_28
REMARK    6  A    between atoms: O_7  and  C_32
REMARK    7  A    between atoms: O_8  and  C_29
REMARK    8  A    between atoms: O_8  and  C_33
REMARK    9  A    between atoms: N_9  and  C_13
REMARK   10  A    between atoms: N_10  and  C_22
REMARK   11  A    between atoms: C_17  and  C_19
REMARK                            x       y       z     vdW  Elec       q    Type
REMARK                         _______ _______ _______ _____ _____    ______ ____
ROOT
ATOM      1  O   UNL     1      -3.945 -12.110  14.458  0.00  0.00    -0.368 OA
ATOM      2  O   UNL     1      -2.017 -10.881  16.502  0.00  0.00    -0.368 OA
ATOM     11  C   UNL     1      -3.375 -10.545  16.146  0.00  0.00    +0.173 C 
ATOM     12  C   UNL     1      -3.502 -10.756  14.651  0.00  0.00    +0.192 C 
ATOM     13  C   UNL     1      -4.331 -11.554  16.737  0.00  0.00    +0.130 C 
ATOM     14  C   UNL     1      -2.084 -10.558  14.171  0.00  0.00    +0.235 C 
ATOM     15  C   UNL     1      -4.261 -12.691  15.732  0.00  0.00    +0.185 C 
ATOM     16  C   UNL     1      -1.278 -11.155  15.303  0.00  0.00    +0.207 C 
ENDROOT
BRANCH  13   9
ATOM      4  O   UNL     1      -5.666 -10.679  19.124  0.00  0.00    -0.270 OA
ATOM      9  N   UNL     1      -5.667 -11.017  16.830  0.00  0.00    -0.304 N 
ATOM     17  C   UNL     1      -6.230 -10.619  18.035  0.00  0.00    +0.244 C 
ATOM     34  H   UNL     1      -6.232 -11.038  15.987  0.00  0.00    +0.149 HD
BRANCH  17  19
ATOM     19  C   UNL     1      -7.624 -10.113  17.965  0.00  0.00    +0.037 A 
ATOM     20  C   UNL     1      -8.630 -10.735  18.705  0.00  0.00    +0.016 A 
ATOM     21  C   UNL     1      -7.929  -9.017  17.159  0.00  0.00    +0.016 A 
ATOM     23  C   UNL     1      -9.940 -10.259  18.639  0.00  0.00    +0.046 A 
ATOM     24  C   UNL     1      -9.238  -8.541  17.092  0.00  0.00    +0.046 A 
ATOM     25  C   UNL     1     -10.243  -9.163  17.833  0.00  0.00    +0.120 A 
BRANCH  25   6
ATOM      6  O   UNL     1     -11.522  -8.701  17.766  0.00  0.00    -0.495 OA
ATOM     31  C   UNL     1     -12.386  -9.315  16.810  0.00  0.00    +0.277 C 
ENDBRANCH  25   6
ENDBRANCH  17  19
ENDBRANCH  13   9
BRANCH  14   3
ATOM      3  O   UNL     1      -1.814 -11.185  12.938  0.00  0.00    -0.442 OA
BRANCH   3  18
ATOM      5  O   UNL     1      -1.637  -9.599  11.300  0.00  0.00    -0.226 OA
ATOM     10  N   UNL     1      -3.422 -11.113  11.359  0.00  0.00    -0.251 N 
ATOM     18  C   UNL     1      -2.247 -10.537  11.800  0.00  0.00    +0.405 C 
ATOM     35  H   UNL     1      -3.777 -11.889  11.910  0.00  0.00    +0.158 HD
BRANCH  10  22
ATOM     22  C   UNL     1      -4.197 -10.755  10.231  0.00  0.00    +0.043 A 
ATOM     26  C   UNL     1      -4.208 -11.576   9.104  0.00  0.00    +0.069 A 
ATOM     27  C   UNL     1      -4.949  -9.581  10.247  0.00  0.00    +0.069 A 
ATOM     28  C   UNL     1      -5.713  -9.227   9.134  0.00  0.00    +0.125 A 
ATOM     29  C   UNL     1      -4.972 -11.222   7.991  0.00  0.00    +0.125 A 
ATOM     30  C   UNL     1      -5.724 -10.048   8.006  0.00  0.00    +0.091 A 
BRANCH  28   7
ATOM      7  O   UNL     1      -6.445  -8.081   9.147  0.00  0.00    -0.495 OA
ATOM     32  C   UNL     1      -7.537  -7.996   8.232  0.00  0.00    +0.277 C 
ENDBRANCH  28   7
BRANCH  29   8
ATOM      8  O   UNL     1      -4.982 -12.023   6.890  0.00  0.00    -0.495 OA
ATOM     33  C   UNL     1      -4.935 -11.378   5.619  0.00  0.00    +0.277 C 
ENDBRANCH  29   8
ENDBRANCH  10  22
ENDBRANCH   3  18
ENDBRANCH  14   3
TORSDOF 8
ENDMDL
MODEL 10
REMARK VINA RESULT:      -6.5     32.787     37.167
REMARK  Name = 11883368
REMARK  11 active torsions:
REMARK  status: ('A' for Active; 'I' for Inactive)
REMARK    1  A    between atoms: O_3  and  C_14
REMARK    2  A    between atoms: O_3  and  C_18
REMARK    3  A    between atoms: O_6  and  C_25
REMARK    4  A    between atoms: O_6  and  C_31
REMARK    5  A    between atoms: O_7  and  C_28
REMARK    6  A    between atoms: O_7  and  C_32
REMARK    7  A    between atoms: O_8  and  C_29
REMARK    8  A    between atoms: O_8  and  C_33
REMARK    9  A    between atoms: N_9  and  C_13
REMARK   10  A    between atoms: N_10  and  C_22
REMARK   11  A    between atoms: C_17  and  C_19
REMARK                            x       y       z     vdW  Elec       q    Type
REMARK                         _______ _______ _______ _____ _____    ______ ____
ROOT
ATOM      1  O   UNL     1      13.135   8.256   4.412  0.00  0.00    -0.368 OA
ATOM      2  O   UNL     1      12.485   8.718   7.372  0.00  0.00    -0.368 OA
ATOM     11  C   UNL     1      13.617   8.098   6.728  0.00  0.00    +0.173 C 
ATOM     12  C   UNL     1      13.081   7.348   5.525  0.00  0.00    +0.192 C 
ATOM     13  C   UNL     1      14.515   9.153   6.127  0.00  0.00    +0.130 C 
ATOM     14  C   UNL     1      11.659   7.049   5.934  0.00  0.00    +0.235 C 
ATOM     15  C   UNL     1      13.823   9.452   4.809  0.00  0.00    +0.185 C 
ATOM     16  C   UNL     1      11.284   8.287   6.716  0.00  0.00    +0.207 C 
ENDROOT
BRANCH  13   9
ATOM      4  O   UNL     1      16.966  10.632   6.353  0.00  0.00    -0.270 OA
ATOM      9  N   UNL     1      15.849   8.647   5.916  0.00  0.00    -0.304 N 
ATOM     17  C   UNL     1      16.980   9.442   6.049  0.00  0.00    +0.244 C 
ATOM     34  H   UNL     1      15.933   7.701   5.558  0.00  0.00    +0.149 HD
BRANCH  17  19
ATOM     19  C   UNL     1      18.279   8.778   5.771  0.00  0.00    +0.037 A 
ATOM     20  C   UNL     1      18.531   8.237   4.511  0.00  0.00    +0.016 A 
ATOM     21  C   UNL     1      19.246   8.693   6.773  0.00  0.00    +0.016 A 
ATOM     23  C   UNL     1      19.751   7.612   4.251  0.00  0.00    +0.046 A 
ATOM     24  C   UNL     1      20.466   8.069   6.514  0.00  0.00    +0.046 A 
ATOM     25  C   UNL     1      20.718   7.529   5.253  0.00  0.00    +0.120 A 
BRANCH  25   6
ATOM      6  O   UNL     1      21.907   6.917   5.000  0.00  0.00    -0.495 OA
ATOM     31  C   UNL     1      22.004   6.157   3.795  0.00  0.00    +0.277 C 
ENDBRANCH  25   6
ENDBRANCH  17  19
ENDBRANCH  13   9
BRANCH  14   3
ATOM      3  O   UNL     1      10.794   6.827   4.843  0.00  0.00    -0.442 OA
BRANCH   3  18
ATOM      5  O   UNL     1      10.646   4.575   4.477  0.00  0.00    -0.226 OA
ATOM     10  N   UNL     1      11.655   6.008   2.926  0.00  0.00    -0.251 N 
ATOM     18  C   UNL     1      11.005   5.684   4.101  0.00  0.00    +0.405 C 
ATOM     35  H   UNL     1      11.873   6.992   2.790  0.00  0.00    +0.158 HD
BRANCH  10  22
ATOM     22  C   UNL     1      12.060   5.140   1.886  0.00  0.00    +0.043 A 
ATOM     26  C   UNL     1      11.160   4.791   0.880  0.00  0.00    +0.069 A 
ATOM     27  C   UNL     1      13.358   4.631   1.868  0.00  0.00    +0.069 A 
ATOM     28  C   UNL     1      13.757   3.773   0.842  0.00  0.00    +0.125 A 
ATOM     29  C   UNL     1      11.559   3.933  -0.146  0.00  0.00    +0.125 A 
ATOM     30  C   UNL     1      12.857   3.425  -0.164  0.00  0.00    +0.091 A 
BRANCH  28   7
ATOM      7  O   UNL     1      15.023   3.275   0.825  0.00  0.00    -0.495 OA
ATOM     32  C   UNL     1      15.997   4.002   0.077  0.00  0.00    +0.277 C 
ENDBRANCH  28   7
BRANCH  29   8
ATOM      8  O   UNL     1      10.680   3.592  -1.128  0.00  0.00    -0.495 OA
ATOM     33  C   UNL     1      11.221   2.978  -2.297  0.00  0.00    +0.277 C 
ENDBRANCH  29   8
ENDBRANCH  10  22
ENDBRANCH   3  18
ENDBRANCH  14   3
TORSDOF 8
ENDMDL
