MODEL 1
REMARK VINA RESULT:      -7.0      0.000      0.000
REMARK  Name = 7143845
REMARK  7 active torsions:
REMARK  status: ('A' for Active; 'I' for Inactive)
REMARK    1  A    between atoms: S_1  and  N_7
REMARK    2  A    between atoms: S_1  and  C_21
REMARK    3  A    between atoms: S_2  and  C_32
REMARK    4  A    between atoms: S_2  and  C_35
REMARK    5  A    between atoms: N_9  and  C_29
REMARK    6  A    between atoms: C_19  and  C_22
REMARK    7  A    between atoms: C_33  and  C_34
REMARK                            x       y       z     vdW  Elec       q    Type
REMARK                         _______ _______ _______ _____ _____    ______ ____
ROOT
ATOM      5  O   UNL     1     -14.860   9.370  19.955  0.00  0.00    -0.267 OA
ATOM      7  N   UNL     1     -11.397   9.603  16.376  0.00  0.00    -0.176 NA
ATOM      8  N   UNL     1     -12.632   9.530  19.284  0.00  0.00    -0.311 N 
ATOM     10  C   UNL     1     -11.735  11.518  17.942  0.00  0.00    +0.025 C 
ATOM     11  C   UNL     1     -10.223   9.686  18.567  0.00  0.00    +0.052 C 
ATOM     12  C   UNL     1     -10.410  11.200  18.624  0.00  0.00    +0.017 C 
ATOM     13  C   UNL     1     -11.712  11.056  16.476  0.00  0.00    +0.114 C 
ATOM     14  C   UNL     1     -10.143   9.233  17.098  0.00  0.00    +0.119 C 
ATOM     15  C   UNL     1     -12.874  10.874  18.741  0.00  0.00    +0.130 C 
ATOM     16  C   UNL     1     -11.353   8.968  19.279  0.00  0.00    +0.026 A 
ATOM     17  C   UNL     1     -11.132   7.790  19.884  0.00  0.00    +0.022 A 
ATOM     18  C   UNL     1     -13.727   8.890  19.899  0.00  0.00    +0.259 A 
ATOM     19  C   UNL     1     -13.456   7.553  20.537  0.00  0.00    +0.047 A 
ATOM     20  C   UNL     1     -12.205   7.073  20.516  0.00  0.00    +0.015 A 
ENDROOT
BRANCH  19  22
ATOM     22  C   UNL     1     -14.537   6.776  21.167  0.00  0.00    -0.013 A 
ATOM     27  C   UNL     1     -15.517   6.174  20.377  0.00  0.00    +0.010 A 
ATOM     28  C   UNL     1     -14.585   6.644  22.555  0.00  0.00    +0.010 A 
ATOM     30  C   UNL     1     -16.541   5.439  20.973  0.00  0.00    +0.015 A 
ATOM     31  C   UNL     1     -15.610   5.908  23.152  0.00  0.00    +0.015 A 
ATOM     32  C   UNL     1     -16.587   5.306  22.360  0.00  0.00    +0.008 A 
BRANCH  32   2
ATOM      2  S   UNL     1     -17.897   4.369  23.123  0.00  0.00    -0.129 S 
ATOM     35  C   UNL     1     -17.066   2.795  23.478  0.00  0.00    +0.090 C 
ENDBRANCH  32   2
ENDBRANCH  19  22
BRANCH   7   1
ATOM      1  S   UNL     1     -11.591   8.907  14.825  0.00  0.00    +0.061 S 
ATOM      3  O   UNL     1     -10.677   7.793  14.688  0.00  0.00    -0.153 OA
ATOM      4  O   UNL     1     -11.631   9.964  13.836  0.00  0.00    -0.153 OA
BRANCH   1  21
ATOM     21  C   UNL     1     -13.222   8.250  14.983  0.00  0.00    +0.106 A 
ATOM     23  C   UNL     1     -13.863   8.314  16.210  0.00  0.00    +0.030 A 
ATOM     24  C   UNL     1     -13.834   7.682  13.878  0.00  0.00    +0.030 A 
ATOM     25  C   UNL     1     -15.152   7.796  16.334  0.00  0.00    +0.025 A 
ATOM     26  C   UNL     1     -15.123   7.164  14.002  0.00  0.00    +0.025 A 
ATOM     29  C   UNL     1     -15.782   7.221  15.231  0.00  0.00    +0.033 A 
BRANCH  29   9
ATOM      6  O   UNL     1     -16.741   4.370  15.339  0.00  0.00    -0.276 OA
ATOM      9  N   UNL     1     -17.071   6.704  15.355  0.00  0.00    -0.286 N 
ATOM     33  C   UNL     1     -17.464   5.359  15.399  0.00  0.00    +0.214 C 
ATOM     34  C   UNL     1     -18.959   5.217  15.541  0.00  0.00    +0.109 C 
ATOM     36  H   UNL     1     -17.813   7.398  15.421  0.00  0.00    +0.155 HD
ENDBRANCH  29   9
ENDBRANCH   1  21
ENDBRANCH   7   1
TORSDOF 5
ENDMDL
MODEL 2
REMARK VINA RESULT:      -6.9     26.970     30.576
REMARK  Name = 7143845
REMARK  7 active torsions:
REMARK  status: ('A' for Active; 'I' for Inactive)
REMARK    1  A    between atoms: S_1  and  N_7
REMARK    2  A    between atoms: S_1  and  C_21
REMARK    3  A    between atoms: S_2  and  C_32
REMARK    4  A    between atoms: S_2  and  C_35
REMARK    5  A    between atoms: N_9  and  C_29
REMARK    6  A    between atoms: C_19  and  C_22
REMARK    7  A    between atoms: C_33  and  C_34
REMARK                            x       y       z     vdW  Elec       q    Type
REMARK                         _______ _______ _______ _____ _____    ______ ____
ROOT
ATOM      5  O   UNL     1      11.929   7.867   1.817  0.00  0.00    -0.267 OA
ATOM      7  N   UNL     1      13.197   3.836  -0.828  0.00  0.00    -0.176 NA
ATOM      8  N   UNL     1      12.619   5.642   1.700  0.00  0.00    -0.311 N 
ATOM     10  C   UNL     1      14.858   4.945   0.671  0.00  0.00    +0.025 C 
ATOM     11  C   UNL     1      13.348   3.234   1.581  0.00  0.00    +0.052 C 
ATOM     12  C   UNL     1      14.776   3.770   1.638  0.00  0.00    +0.017 C 
ATOM     13  C   UNL     1      14.536   4.488  -0.761  0.00  0.00    +0.114 C 
ATOM     14  C   UNL     1      13.047   2.725   0.160  0.00  0.00    +0.119 C 
ATOM     15  C   UNL     1      13.920   6.056   1.157  0.00  0.00    +0.130 C 
ATOM     16  C   UNL     1      12.347   4.302   1.981  0.00  0.00    +0.026 A 
ATOM     17  C   UNL     1      11.197   3.959   2.585  0.00  0.00    +0.022 A 
ATOM     18  C   UNL     1      11.710   6.671   2.017  0.00  0.00    +0.259 A 
ATOM     19  C   UNL     1      10.414   6.253   2.660  0.00  0.00    +0.047 A 
ATOM     20  C   UNL     1      10.218   4.954   2.922  0.00  0.00    +0.015 A 
ENDROOT
BRANCH  19  22
ATOM     22  C   UNL     1       9.374   7.242   2.991  0.00  0.00    -0.013 A 
ATOM     27  C   UNL     1       8.940   7.384   4.310  0.00  0.00    +0.010 A 
ATOM     28  C   UNL     1       8.819   8.035   1.987  0.00  0.00    +0.010 A 
ATOM     30  C   UNL     1       7.954   8.319   4.624  0.00  0.00    +0.015 A 
ATOM     31  C   UNL     1       7.832   8.971   2.301  0.00  0.00    +0.015 A 
ATOM     32  C   UNL     1       7.401   9.113   3.619  0.00  0.00    +0.008 A 
BRANCH  32   2
ATOM      2  S   UNL     1       6.139  10.306   4.020  0.00  0.00    -0.129 S 
ATOM     35  C   UNL     1       5.050  10.191   2.572  0.00  0.00    +0.090 C 
ENDBRANCH  32   2
ENDBRANCH  19  22
BRANCH   7   1
ATOM      1  S   UNL     1      12.608   3.513  -2.401  0.00  0.00    +0.061 S 
ATOM      3  O   UNL     1      12.163   2.137  -2.466  0.00  0.00    -0.153 OA
ATOM      4  O   UNL     1      13.543   4.041  -3.372  0.00  0.00    -0.153 OA
BRANCH   1  21
ATOM     21  C   UNL     1      11.175   4.544  -2.412  0.00  0.00    +0.106 A 
ATOM     23  C   UNL     1      10.607   4.903  -3.624  0.00  0.00    +0.030 A 
ATOM     24  C   UNL     1      10.642   4.976  -1.209  0.00  0.00    +0.030 A 
ATOM     25  C   UNL     1       9.474   5.717  -3.632  0.00  0.00    +0.025 A 
ATOM     26  C   UNL     1       9.510   5.790  -1.217  0.00  0.00    +0.025 A 
ATOM     29  C   UNL     1       8.926   6.160  -2.429  0.00  0.00    +0.033 A 
BRANCH  29   9
ATOM      6  O   UNL     1       8.574   9.030  -1.593  0.00  0.00    -0.276 OA
ATOM      9  N   UNL     1       7.793   6.973  -2.437  0.00  0.00    -0.286 N 
ATOM     33  C   UNL     1       7.683   8.311  -2.033  0.00  0.00    +0.214 C 
ATOM     34  C   UNL     1       6.278   8.833  -2.200  0.00  0.00    +0.109 C 
ATOM     36  H   UNL     1       6.943   6.531  -2.781  0.00  0.00    +0.155 HD
ENDBRANCH  29   9
ENDBRANCH   1  21
ENDBRANCH   7   1
TORSDOF 5
ENDMDL
MODEL 3
REMARK VINA RESULT:      -6.9     29.986     31.564
REMARK  Name = 7143845
REMARK  7 active torsions:
REMARK  status: ('A' for Active; 'I' for Inactive)
REMARK    1  A    between atoms: S_1  and  N_7
REMARK    2  A    between atoms: S_1  and  C_21
REMARK    3  A    between atoms: S_2  and  C_32
REMARK    4  A    between atoms: S_2  and  C_35
REMARK    5  A    between atoms: N_9  and  C_29
REMARK    6  A    between atoms: C_19  and  C_22
REMARK    7  A    between atoms: C_33  and  C_34
REMARK                            x       y       z     vdW  Elec       q    Type
REMARK                         _______ _______ _______ _____ _____    ______ ____
ROOT
ATOM      5  O   UNL     1       9.315  -9.526  33.194  0.00  0.00    -0.267 OA
ATOM      7  N   UNL     1       8.229  -5.797  36.319  0.00  0.00    -0.176 NA
ATOM      8  N   UNL     1       8.677  -7.318  33.585  0.00  0.00    -0.311 N 
ATOM     10  C   UNL     1      10.191  -5.636  34.783  0.00  0.00    +0.025 C 
ATOM     11  C   UNL     1       7.971  -4.936  34.000  0.00  0.00    +0.052 C 
ATOM     12  C   UNL     1       9.458  -4.594  33.948  0.00  0.00    +0.017 C 
ATOM     13  C   UNL     1       9.705  -5.599  36.241  0.00  0.00    +0.114 C 
ATOM     14  C   UNL     1       7.473  -4.843  35.453  0.00  0.00    +0.119 C 
ATOM     15  C   UNL     1      10.005  -7.014  34.137  0.00  0.00    +0.130 C 
ATOM     16  C   UNL     1       7.710  -6.321  33.440  0.00  0.00    +0.026 A 
ATOM     17  C   UNL     1       6.546  -6.595  32.827  0.00  0.00    +0.022 A 
ATOM     18  C   UNL     1       8.473  -8.631  33.117  0.00  0.00    +0.259 A 
ATOM     19  C   UNL     1       7.145  -8.917  32.466  0.00  0.00    +0.047 A 
ATOM     20  C   UNL     1       6.263  -7.916  32.339  0.00  0.00    +0.015 A 
ENDROOT
BRANCH  19  22
ATOM     22  C   UNL     1       6.808 -10.267  31.982  0.00  0.00    -0.013 A 
ATOM     27  C   UNL     1       6.316 -11.224  32.870  0.00  0.00    +0.010 A 
ATOM     28  C   UNL     1       6.983 -10.590  30.637  0.00  0.00    +0.010 A 
ATOM     30  C   UNL     1       5.998 -12.502  32.413  0.00  0.00    +0.015 A 
ATOM     31  C   UNL     1       6.665 -11.870  30.179  0.00  0.00    +0.015 A 
ATOM     32  C   UNL     1       6.172 -12.825  31.067  0.00  0.00    +0.008 A 
BRANCH  32   2
ATOM      2  S   UNL     1       5.768 -14.459  30.483  0.00  0.00    -0.129 S 
ATOM     35  C   UNL     1       4.360 -14.121  29.387  0.00  0.00    +0.090 C 
ENDBRANCH  32   2
ENDBRANCH  19  22
BRANCH   7   1
ATOM      1  S   UNL     1       7.595  -6.033  37.890  0.00  0.00    +0.061 S 
ATOM      3  O   UNL     1       6.996  -4.798  38.350  0.00  0.00    -0.153 OA
ATOM      4  O   UNL     1       8.576  -6.730  38.695  0.00  0.00    -0.153 OA
BRANCH   1  21
ATOM     21  C   UNL     1       6.288  -7.164  37.529  0.00  0.00    +0.106 A 
ATOM     23  C   UNL     1       5.134  -7.134  38.295  0.00  0.00    +0.030 A 
ATOM     24  C   UNL     1       6.437  -8.061  36.484  0.00  0.00    +0.030 A 
ATOM     25  C   UNL     1       4.101  -8.027  38.008  0.00  0.00    +0.025 A 
ATOM     26  C   UNL     1       5.405  -8.954  36.198  0.00  0.00    +0.025 A 
ATOM     29  C   UNL     1       4.237  -8.936  36.960  0.00  0.00    +0.033 A 
BRANCH  29   9
ATOM      6  O   UNL     1       3.593 -11.627  38.146  0.00  0.00    -0.276 OA
ATOM      9  N   UNL     1       3.204  -9.828  36.673  0.00  0.00    -0.286 N 
ATOM     33  C   UNL     1       2.950 -11.077  37.258  0.00  0.00    +0.214 C 
ATOM     34  C   UNL     1       1.728 -11.734  36.666  0.00  0.00    +0.109 C 
ATOM     36  H   UNL     1       2.558  -9.526  35.946  0.00  0.00    +0.155 HD
ENDBRANCH  29   9
ENDBRANCH   1  21
ENDBRANCH   7   1
TORSDOF 5
ENDMDL
MODEL 4
REMARK VINA RESULT:      -6.9     18.654     20.143
REMARK  Name = 7143845
REMARK  7 active torsions:
REMARK  status: ('A' for Active; 'I' for Inactive)
REMARK    1  A    between atoms: S_1  and  N_7
REMARK    2  A    between atoms: S_1  and  C_21
REMARK    3  A    between atoms: S_2  and  C_32
REMARK    4  A    between atoms: S_2  and  C_35
REMARK    5  A    between atoms: N_9  and  C_29
REMARK    6  A    between atoms: C_19  and  C_22
REMARK    7  A    between atoms: C_33  and  C_34
REMARK                            x       y       z     vdW  Elec       q    Type
REMARK                         _______ _______ _______ _____ _____    ______ ____
ROOT
ATOM      5  O   UNL     1      -7.735  -8.906  17.460  0.00  0.00    -0.267 OA
ATOM      7  N   UNL     1      -3.900 -11.703  15.934  0.00  0.00    -0.176 NA
ATOM      8  N   UNL     1      -6.659 -10.968  17.289  0.00  0.00    -0.311 N 
ATOM     10  C   UNL     1      -4.383 -11.430  18.369  0.00  0.00    +0.025 C 
ATOM     11  C   UNL     1      -5.511 -13.202  17.094  0.00  0.00    +0.052 C 
ATOM     12  C   UNL     1      -4.867 -12.873  18.439  0.00  0.00    +0.017 C 
ATOM     13  C   UNL     1      -3.346 -11.263  17.246  0.00  0.00    +0.114 C 
ATOM     14  C   UNL     1      -4.456 -13.089  15.979  0.00  0.00    +0.119 C 
ATOM     15  C   UNL     1      -5.594 -10.507  18.191  0.00  0.00    +0.130 C 
ATOM     16  C   UNL     1      -6.681 -12.280  16.809  0.00  0.00    +0.026 A 
ATOM     17  C   UNL     1      -7.724 -12.714  16.083  0.00  0.00    +0.022 A 
ATOM     18  C   UNL     1      -7.702 -10.058  17.025  0.00  0.00    +0.259 A 
ATOM     19  C   UNL     1      -8.840 -10.563  16.177  0.00  0.00    +0.047 A 
ATOM     20  C   UNL     1      -8.814 -11.836  15.760  0.00  0.00    +0.015 A 
ENDROOT
BRANCH  19  22
ATOM     22  C   UNL     1      -9.959  -9.682  15.801  0.00  0.00    -0.013 A 
ATOM     27  C   UNL     1     -10.028  -9.153  14.511  0.00  0.00    +0.010 A 
ATOM     28  C   UNL     1     -10.949  -9.374  16.733  0.00  0.00    +0.010 A 
ATOM     30  C   UNL     1     -11.087  -8.319  14.155  0.00  0.00    +0.015 A 
ATOM     31  C   UNL     1     -12.009  -8.539  16.377  0.00  0.00    +0.015 A 
ATOM     32  C   UNL     1     -12.077  -8.012  15.088  0.00  0.00    +0.008 A 
BRANCH  32   2
ATOM      2  S   UNL     1     -13.430  -6.944  14.633  0.00  0.00    -0.129 S 
ATOM     35  C   UNL     1     -12.553  -5.447  14.098  0.00  0.00    +0.090 C 
ENDBRANCH  32   2
ENDBRANCH  19  22
BRANCH   7   1
ATOM      1  S   UNL     1      -2.945 -11.332  14.564  0.00  0.00    +0.061 S 
ATOM      3  O   UNL     1      -2.525 -12.565  13.932  0.00  0.00    -0.153 OA
ATOM      4  O   UNL     1      -1.981 -10.313  14.923  0.00  0.00    -0.153 OA
BRANCH   1  21
ATOM     21  C   UNL     1      -4.165 -10.584  13.530  0.00  0.00    +0.106 A 
ATOM     23  C   UNL     1      -5.414 -10.297  14.055  0.00  0.00    +0.030 A 
ATOM     24  C   UNL     1      -3.852 -10.297  12.212  0.00  0.00    +0.030 A 
ATOM     25  C   UNL     1      -6.378  -9.705  13.238  0.00  0.00    +0.025 A 
ATOM     26  C   UNL     1      -4.816  -9.705  11.395  0.00  0.00    +0.025 A 
ATOM     29  C   UNL     1      -6.079  -9.409  11.909  0.00  0.00    +0.033 A 
BRANCH  29   9
ATOM      6  O   UNL     1      -7.707 -10.562   9.655  0.00  0.00    -0.276 OA
ATOM      9  N   UNL     1      -7.042  -8.817  11.093  0.00  0.00    -0.286 N 
ATOM     33  C   UNL     1      -7.773  -9.403  10.050  0.00  0.00    +0.214 C 
ATOM     34  C   UNL     1      -8.721  -8.420   9.410  0.00  0.00    +0.109 C 
ATOM     36  H   UNL     1      -7.230  -7.835  11.285  0.00  0.00    +0.155 HD
ENDBRANCH  29   9
ENDBRANCH   1  21
ENDBRANCH   7   1
TORSDOF 5
ENDMDL
MODEL 5
REMARK VINA RESULT:      -6.7     27.043     31.209
REMARK  Name = 7143845
REMARK  7 active torsions:
REMARK  status: ('A' for Active; 'I' for Inactive)
REMARK    1  A    between atoms: S_1  and  N_7
REMARK    2  A    between atoms: S_1  and  C_21
REMARK    3  A    between atoms: S_2  and  C_32
REMARK    4  A    between atoms: S_2  and  C_35
REMARK    5  A    between atoms: N_9  and  C_29
REMARK    6  A    between atoms: C_19  and  C_22
REMARK    7  A    between atoms: C_33  and  C_34
REMARK                            x       y       z     vdW  Elec       q    Type
REMARK                         _______ _______ _______ _____ _____    ______ ____
ROOT
ATOM      5  O   UNL     1       9.882   7.576   1.387  0.00  0.00    -0.267 OA
ATOM      7  N   UNL     1      11.464   7.214   6.100  0.00  0.00    -0.176 NA
ATOM      8  N   UNL     1       9.775   6.597   3.501  0.00  0.00    -0.311 N 
ATOM     10  C   UNL     1       9.120   7.914   5.598  0.00  0.00    +0.025 C 
ATOM     11  C   UNL     1       9.667   5.526   5.778  0.00  0.00    +0.052 C 
ATOM     12  C   UNL     1       8.607   6.573   6.107  0.00  0.00    +0.017 C 
ATOM     13  C   UNL     1      10.442   8.283   6.290  0.00  0.00    +0.114 C 
ATOM     14  C   UNL     1      10.973   5.867   6.517  0.00  0.00    +0.119 C 
ATOM     15  C   UNL     1       9.256   7.848   4.072  0.00  0.00    +0.130 C 
ATOM     16  C   UNL     1       9.912   5.449   4.283  0.00  0.00    +0.026 A 
ATOM     17  C   UNL     1      10.277   4.287   3.716  0.00  0.00    +0.022 A 
ATOM     18  C   UNL     1      10.025   6.592   2.114  0.00  0.00    +0.259 A 
ATOM     19  C   UNL     1      10.469   5.284   1.513  0.00  0.00    +0.047 A 
ATOM     20  C   UNL     1      10.564   4.211   2.310  0.00  0.00    +0.015 A 
ENDROOT
BRANCH  19  22
ATOM     22  C   UNL     1      10.801   5.177   0.083  0.00  0.00    -0.013 A 
ATOM     27  C   UNL     1      12.135   5.178  -0.327  0.00  0.00    +0.010 A 
ATOM     28  C   UNL     1       9.783   5.075  -0.865  0.00  0.00    +0.010 A 
ATOM     30  C   UNL     1      12.450   5.077  -1.681  0.00  0.00    +0.015 A 
ATOM     31  C   UNL     1      10.098   4.974  -2.221  0.00  0.00    +0.015 A 
ATOM     32  C   UNL     1      11.431   4.975  -2.628  0.00  0.00    +0.008 A 
BRANCH  32   2
ATOM      2  S   UNL     1      11.833   4.848  -4.360  0.00  0.00    -0.129 S 
ATOM     35  C   UNL     1      12.523   3.172  -4.456  0.00  0.00    +0.090 C 
ENDBRANCH  32   2
ENDBRANCH  19  22
BRANCH   7   1
ATOM      1  S   UNL     1      13.053   7.610   6.598  0.00  0.00    +0.061 S 
ATOM      3  O   UNL     1      13.541   6.578   7.488  0.00  0.00    -0.153 OA
ATOM      4  O   UNL     1      13.092   9.006   6.982  0.00  0.00    -0.153 OA
BRANCH   1  21
ATOM     21  C   UNL     1      13.907   7.447   5.062  0.00  0.00    +0.106 A 
ATOM     23  C   UNL     1      15.293   7.469   5.051  0.00  0.00    +0.030 A 
ATOM     24  C   UNL     1      13.179   7.298   3.893  0.00  0.00    +0.030 A 
ATOM     25  C   UNL     1      15.968   7.339   3.837  0.00  0.00    +0.025 A 
ATOM     26  C   UNL     1      13.854   7.168   2.680  0.00  0.00    +0.025 A 
ATOM     29  C   UNL     1      15.249   7.188   2.653  0.00  0.00    +0.033 A 
BRANCH  29   9
ATOM      6  O   UNL     1      15.411   4.863   0.748  0.00  0.00    -0.276 OA
ATOM      9  N   UNL     1      15.924   7.057   1.439  0.00  0.00    -0.286 N 
ATOM     33  C   UNL     1      15.967   5.944   0.588  0.00  0.00    +0.214 C 
ATOM     34  C   UNL     1      16.813   6.206  -0.633  0.00  0.00    +0.109 C 
ATOM     36  H   UNL     1      16.449   7.877   1.143  0.00  0.00    +0.155 HD
ENDBRANCH  29   9
ENDBRANCH   1  21
ENDBRANCH   7   1
TORSDOF 5
ENDMDL
MODEL 6
REMARK VINA RESULT:      -6.6     15.032     17.752
REMARK  Name = 7143845
REMARK  7 active torsions:
REMARK  status: ('A' for Active; 'I' for Inactive)
REMARK    1  A    between atoms: S_1  and  N_7
REMARK    2  A    between atoms: S_1  and  C_21
REMARK    3  A    between atoms: S_2  and  C_32
REMARK    4  A    between atoms: S_2  and  C_35
REMARK    5  A    between atoms: N_9  and  C_29
REMARK    6  A    between atoms: C_19  and  C_22
REMARK    7  A    between atoms: C_33  and  C_34
REMARK                            x       y       z     vdW  Elec       q    Type
REMARK                         _______ _______ _______ _____ _____    ______ ____
ROOT
ATOM      5  O   UNL     1      -6.503   9.769   5.406  0.00  0.00    -0.267 OA
ATOM      7  N   UNL     1      -1.798  10.537   3.950  0.00  0.00    -0.176 NA
ATOM      8  N   UNL     1      -4.216   9.366   5.614  0.00  0.00    -0.311 N 
ATOM     10  C   UNL     1      -2.543  11.202   6.238  0.00  0.00    +0.025 C 
ATOM     11  C   UNL     1      -1.748   8.914   5.833  0.00  0.00    +0.052 C 
ATOM     12  C   UNL     1      -1.731  10.062   6.838  0.00  0.00    +0.017 C 
ATOM     13  C   UNL     1      -1.920  11.669   4.912  0.00  0.00    +0.114 C 
ATOM     14  C   UNL     1      -1.072   9.366   4.526  0.00  0.00    +0.119 C 
ATOM     15  C   UNL     1      -3.998  10.745   6.073  0.00  0.00    +0.130 C 
ATOM     16  C   UNL     1      -3.165   8.448   5.560  0.00  0.00    +0.026 A 
ATOM     17  C   UNL     1      -3.408   7.163   5.249  0.00  0.00    +0.022 A 
ATOM     18  C   UNL     1      -5.547   8.996   5.335  0.00  0.00    +0.259 A 
ATOM     19  C   UNL     1      -5.782   7.558   4.954  0.00  0.00    +0.047 A 
ATOM     20  C   UNL     1      -4.737   6.719   4.937  0.00  0.00    +0.015 A 
ENDROOT
BRANCH  19  22
ATOM     22  C   UNL     1      -7.127   7.075   4.597  0.00  0.00    -0.013 A 
ATOM     27  C   UNL     1      -7.789   7.606   3.490  0.00  0.00    +0.010 A 
ATOM     28  C   UNL     1      -7.741   6.087   5.367  0.00  0.00    +0.010 A 
ATOM     30  C   UNL     1      -9.063   7.149   3.152  0.00  0.00    +0.015 A 
ATOM     31  C   UNL     1      -9.015   5.629   5.030  0.00  0.00    +0.015 A 
ATOM     32  C   UNL     1      -9.676   6.160   3.922  0.00  0.00    +0.008 A 
BRANCH  32   2
ATOM      2  S   UNL     1     -11.304   5.578   3.492  0.00  0.00    -0.129 S 
ATOM     35  C   UNL     1     -11.215   5.537   1.680  0.00  0.00    +0.090 C 
ENDBRANCH  32   2
ENDBRANCH  19  22
BRANCH   7   1
ATOM      1  S   UNL     1      -1.360  10.967   2.352  0.00  0.00    +0.061 S 
ATOM      3  O   UNL     1      -0.487   9.948   1.810  0.00  0.00    -0.153 OA
ATOM      4  O   UNL     1      -0.981  12.364   2.327  0.00  0.00    -0.153 OA
BRANCH   1  21
ATOM     21  C   UNL     1      -2.927  10.816   1.551  0.00  0.00    +0.106 A 
ATOM     23  C   UNL     1      -3.101  11.370   0.293  0.00  0.00    +0.030 A 
ATOM     24  C   UNL     1      -3.954  10.146   2.194  0.00  0.00    +0.030 A 
ATOM     25  C   UNL     1      -4.338  11.249  -0.340  0.00  0.00    +0.025 A 
ATOM     26  C   UNL     1      -5.191  10.027   1.562  0.00  0.00    +0.025 A 
ATOM     29  C   UNL     1      -5.383  10.578   0.294  0.00  0.00    +0.033 A 
BRANCH  29   9
ATOM      6  O   UNL     1      -6.279   8.731  -1.907  0.00  0.00    -0.276 OA
ATOM      9  N   UNL     1      -6.620  10.457  -0.339  0.00  0.00    -0.286 N 
ATOM     33  C   UNL     1      -6.985   9.576  -1.366  0.00  0.00    +0.214 C 
ATOM     34  C   UNL     1      -8.423   9.762  -1.778  0.00  0.00    +0.109 C 
ATOM     36  H   UNL     1      -7.342  11.094  -0.008  0.00  0.00    +0.155 HD
ENDBRANCH  29   9
ENDBRANCH   1  21
ENDBRANCH   7   1
TORSDOF 5
ENDMDL
MODEL 7
REMARK VINA RESULT:      -6.6     39.339     41.683
REMARK  Name = 7143845
REMARK  7 active torsions:
REMARK  status: ('A' for Active; 'I' for Inactive)
REMARK    1  A    between atoms: S_1  and  N_7
REMARK    2  A    between atoms: S_1  and  C_21
REMARK    3  A    between atoms: S_2  and  C_32
REMARK    4  A    between atoms: S_2  and  C_35
REMARK    5  A    between atoms: N_9  and  C_29
REMARK    6  A    between atoms: C_19  and  C_22
REMARK    7  A    between atoms: C_33  and  C_34
REMARK                            x       y       z     vdW  Elec       q    Type
REMARK                         _______ _______ _______ _____ _____    ______ ____
ROOT
ATOM      5  O   UNL     1      21.537  -7.119  -1.541  0.00  0.00    -0.267 OA
ATOM      7  N   UNL     1      22.860  -7.490   3.251  0.00  0.00    -0.176 NA
ATOM      8  N   UNL     1      22.087  -6.137   0.501  0.00  0.00    -0.311 N 
ATOM     10  C   UNL     1      24.387  -6.418   1.592  0.00  0.00    +0.025 C 
ATOM     11  C   UNL     1      22.664  -5.071   2.709  0.00  0.00    +0.052 C 
ATOM     12  C   UNL     1      24.105  -5.054   2.208  0.00  0.00    +0.017 C 
ATOM     13  C   UNL     1      24.220  -7.529   2.642  0.00  0.00    +0.114 C 
ATOM     14  C   UNL     1      22.512  -6.146   3.801  0.00  0.00    +0.119 C 
ATOM     15  C   UNL     1      23.471  -6.616   0.378  0.00  0.00    +0.130 C 
ATOM     16  C   UNL     1      21.694  -5.333   1.573  0.00  0.00    +0.026 A 
ATOM     17  C   UNL     1      20.456  -4.811   1.605  0.00  0.00    +0.022 A 
ATOM     18  C   UNL     1      21.215  -6.443  -0.563  0.00  0.00    +0.259 A 
ATOM     19  C   UNL     1      19.823  -5.874  -0.481  0.00  0.00    +0.047 A 
ATOM     20  C   UNL     1      19.510  -5.094   0.563  0.00  0.00    +0.015 A 
ENDROOT
BRANCH  19  22
ATOM     22  C   UNL     1      18.818  -6.168  -1.515  0.00  0.00    -0.013 A 
ATOM     27  C   UNL     1      18.539  -7.491  -1.863  0.00  0.00    +0.010 A 
ATOM     28  C   UNL     1      18.143  -5.126  -2.150  0.00  0.00    +0.010 A 
ATOM     30  C   UNL     1      17.588  -7.770  -2.843  0.00  0.00    +0.015 A 
ATOM     31  C   UNL     1      17.190  -5.404  -3.131  0.00  0.00    +0.015 A 
ATOM     32  C   UNL     1      16.913  -6.726  -3.477  0.00  0.00    +0.008 A 
BRANCH  32   2
ATOM      2  S   UNL     1      15.698  -7.082  -4.731  0.00  0.00    -0.129 S 
ATOM     35  C   UNL     1      14.189  -7.272  -3.740  0.00  0.00    +0.090 C 
ENDBRANCH  32   2
ENDBRANCH  19  22
BRANCH   7   1
ATOM      1  S   UNL     1      22.454  -8.824   4.244  0.00  0.00    +0.061 S 
ATOM      3  O   UNL     1      21.832  -8.338   5.457  0.00  0.00    -0.153 OA
ATOM      4  O   UNL     1      23.580  -9.732   4.296  0.00  0.00    -0.153 OA
BRANCH   1  21
ATOM     21  C   UNL     1      21.197  -9.574   3.256  0.00  0.00    +0.106 A 
ATOM     23  C   UNL     1      20.425  -8.779   2.424  0.00  0.00    +0.030 A 
ATOM     24  C   UNL     1      21.006 -10.943   3.329  0.00  0.00    +0.030 A 
ATOM     25  C   UNL     1      19.433  -9.372   1.643  0.00  0.00    +0.025 A 
ATOM     26  C   UNL     1      20.014 -11.536   2.548  0.00  0.00    +0.025 A 
ATOM     29  C   UNL     1      19.228 -10.750   1.705  0.00  0.00    +0.033 A 
BRANCH  29   9
ATOM      6  O   UNL     1      16.358 -11.393   2.346  0.00  0.00    -0.276 OA
ATOM      9  N   UNL     1      18.236 -11.342   0.923  0.00  0.00    -0.286 N 
ATOM     33  C   UNL     1      16.908 -11.622   1.274  0.00  0.00    +0.214 C 
ATOM     34  C   UNL     1      16.154 -12.271   0.140  0.00  0.00    +0.109 C 
ATOM     36  H   UNL     1      18.522 -11.602  -0.019  0.00  0.00    +0.155 HD
ENDBRANCH  29   9
ENDBRANCH   1  21
ENDBRANCH   7   1
TORSDOF 5
ENDMDL
MODEL 8
REMARK VINA RESULT:      -6.4     19.559     21.216
REMARK  Name = 7143845
REMARK  7 active torsions:
REMARK  status: ('A' for Active; 'I' for Inactive)
REMARK    1  A    between atoms: S_1  and  N_7
REMARK    2  A    between atoms: S_1  and  C_21
REMARK    3  A    between atoms: S_2  and  C_32
REMARK    4  A    between atoms: S_2  and  C_35
REMARK    5  A    between atoms: N_9  and  C_29
REMARK    6  A    between atoms: C_19  and  C_22
REMARK    7  A    between atoms: C_33  and  C_34
REMARK                            x       y       z     vdW  Elec       q    Type
REMARK                         _______ _______ _______ _____ _____    ______ ____
ROOT
ATOM      5  O   UNL     1      -7.892 -12.319  12.491  0.00  0.00    -0.267 OA
ATOM      7  N   UNL     1      -3.002 -11.376  12.713  0.00  0.00    -0.176 NA
ATOM      8  N   UNL     1      -5.935 -11.482  11.540  0.00  0.00    -0.311 N 
ATOM     10  C   UNL     1      -3.913 -12.964  11.016  0.00  0.00    +0.025 C 
ATOM     11  C   UNL     1      -3.827 -10.562  10.513  0.00  0.00    +0.052 C 
ATOM     12  C   UNL     1      -3.634 -11.952   9.912  0.00  0.00    +0.017 C 
ATOM     13  C   UNL     1      -2.936 -12.769  12.187  0.00  0.00    +0.114 C 
ATOM     14  C   UNL     1      -2.810 -10.347  11.648  0.00  0.00    +0.119 C 
ATOM     15  C   UNL     1      -5.379 -12.840  11.448  0.00  0.00    +0.130 C 
ATOM     16  C   UNL     1      -5.241 -10.382  11.031  0.00  0.00    +0.026 A 
ATOM     17  C   UNL     1      -5.817  -9.169  11.020  0.00  0.00    +0.022 A 
ATOM     18  C   UNL     1      -7.236 -11.367  12.067  0.00  0.00    +0.259 A 
ATOM     19  C   UNL     1      -7.842  -9.988  12.075  0.00  0.00    +0.047 A 
ATOM     20  C   UNL     1      -7.135  -8.974  11.557  0.00  0.00    +0.015 A 
ENDROOT
BRANCH  19  22
ATOM     22  C   UNL     1      -9.178  -9.745  12.644  0.00  0.00    -0.013 A 
ATOM     27  C   UNL     1      -9.321  -9.502  14.011  0.00  0.00    +0.010 A 
ATOM     28  C   UNL     1     -10.302  -9.761  11.820  0.00  0.00    +0.010 A 
ATOM     30  C   UNL     1     -10.586  -9.273  14.551  0.00  0.00    +0.015 A 
ATOM     31  C   UNL     1     -11.569  -9.532  12.360  0.00  0.00    +0.015 A 
ATOM     32  C   UNL     1     -11.710  -9.288  13.725  0.00  0.00    +0.008 A 
BRANCH  32   2
ATOM      2  S   UNL     1     -13.327  -8.998  14.415  0.00  0.00    -0.129 S 
ATOM     35  C   UNL     1     -12.979  -7.702  15.638  0.00  0.00    +0.090 C 
ENDBRANCH  32   2
ENDBRANCH  19  22
BRANCH   7   1
ATOM      1  S   UNL     1      -2.158 -11.096  14.175  0.00  0.00    +0.061 S 
ATOM      3  O   UNL     1      -1.475  -9.822  14.090  0.00  0.00    -0.153 OA
ATOM      4  O   UNL     1      -1.446 -12.300  14.547  0.00  0.00    -0.153 OA
BRANCH   1  21
ATOM     21  C   UNL     1      -3.518 -10.905  15.285  0.00  0.00    +0.106 A 
ATOM     23  C   UNL     1      -4.773 -10.616  14.776  0.00  0.00    +0.030 A 
ATOM     24  C   UNL     1      -3.307 -11.049  16.646  0.00  0.00    +0.030 A 
ATOM     25  C   UNL     1      -5.847 -10.466  15.653  0.00  0.00    +0.025 A 
ATOM     26  C   UNL     1      -4.380 -10.899  17.523  0.00  0.00    +0.025 A 
ATOM     29  C   UNL     1      -5.651 -10.607  17.026  0.00  0.00    +0.033 A 
BRANCH  29   9
ATOM      6  O   UNL     1      -7.438 -12.671  18.295  0.00  0.00    -0.276 OA
ATOM      9  N   UNL     1      -6.726 -10.458  17.903  0.00  0.00    -0.286 N 
ATOM     33  C   UNL     1      -7.530 -11.460  18.466  0.00  0.00    +0.214 C 
ATOM     34  C   UNL     1      -8.591 -10.883  19.368  0.00  0.00    +0.109 C 
ATOM     36  H   UNL     1      -6.947  -9.498  18.160  0.00  0.00    +0.155 HD
ENDBRANCH  29   9
ENDBRANCH   1  21
ENDBRANCH   7   1
TORSDOF 5
ENDMDL
MODEL 9
REMARK VINA RESULT:      -6.4     18.958     21.441
REMARK  Name = 7143845
REMARK  7 active torsions:
REMARK  status: ('A' for Active; 'I' for Inactive)
REMARK    1  A    between atoms: S_1  and  N_7
REMARK    2  A    between atoms: S_1  and  C_21
REMARK    3  A    between atoms: S_2  and  C_32
REMARK    4  A    between atoms: S_2  and  C_35
REMARK    5  A    between atoms: N_9  and  C_29
REMARK    6  A    between atoms: C_19  and  C_22
REMARK    7  A    between atoms: C_33  and  C_34
REMARK                            x       y       z     vdW  Elec       q    Type
REMARK                         _______ _______ _______ _____ _____    ______ ____
ROOT
ATOM      5  O   UNL     1      -2.093  12.005  38.135  0.00  0.00    -0.267 OA
ATOM      7  N   UNL     1      -2.621  14.394  33.792  0.00  0.00    -0.176 NA
ATOM      8  N   UNL     1      -1.179  13.002  36.236  0.00  0.00    -0.311 N 
ATOM     10  C   UNL     1      -1.466  15.493  35.712  0.00  0.00    +0.025 C 
ATOM     11  C   UNL     1      -0.187  14.064  34.178  0.00  0.00    +0.052 C 
ATOM     12  C   UNL     1      -0.130  15.352  34.995  0.00  0.00    +0.017 C 
ATOM     13  C   UNL     1      -2.617  15.578  34.697  0.00  0.00    +0.114 C 
ATOM     14  C   UNL     1      -1.303  14.173  33.124  0.00  0.00    +0.119 C 
ATOM     15  C   UNL     1      -1.632  14.325  36.691  0.00  0.00    +0.130 C 
ATOM     16  C   UNL     1      -0.421  12.861  35.071  0.00  0.00    +0.026 A 
ATOM     17  C   UNL     1       0.081  11.661  34.736  0.00  0.00    +0.022 A 
ATOM     18  C   UNL     1      -1.458  11.912  37.083  0.00  0.00    +0.259 A 
ATOM     19  C   UNL     1      -0.913  10.573  36.662  0.00  0.00    +0.047 A 
ATOM     20  C   UNL     1      -0.177  10.502  35.544  0.00  0.00    +0.015 A 
ENDROOT
BRANCH  19  22
ATOM     22  C   UNL     1      -1.184   9.358  37.449  0.00  0.00    -0.013 A 
ATOM     27  C   UNL     1      -0.271   8.935  38.417  0.00  0.00    +0.010 A 
ATOM     28  C   UNL     1      -2.351   8.628  37.228  0.00  0.00    +0.010 A 
ATOM     30  C   UNL     1      -0.526   7.785  39.162  0.00  0.00    +0.015 A 
ATOM     31  C   UNL     1      -2.607   7.476  37.974  0.00  0.00    +0.015 A 
ATOM     32  C   UNL     1      -1.694   7.055  38.941  0.00  0.00    +0.008 A 
BRANCH  32   2
ATOM      2  S   UNL     1      -2.020   5.583  39.891  0.00  0.00    -0.129 S 
ATOM     35  C   UNL     1      -0.380   4.808  39.943  0.00  0.00    +0.090 C 
ENDBRANCH  32   2
ENDBRANCH  19  22
BRANCH   7   1
ATOM      1  S   UNL     1      -3.996  14.235  32.785  0.00  0.00    +0.061 S 
ATOM      3  O   UNL     1      -3.584  13.713  31.500  0.00  0.00    -0.153 OA
ATOM      4  O   UNL     1      -4.792  15.441  32.881  0.00  0.00    -0.153 OA
BRANCH   1  21
ATOM     21  C   UNL     1      -4.856  12.949  33.638  0.00  0.00    +0.106 A 
ATOM     23  C   UNL     1      -6.217  12.791  33.431  0.00  0.00    +0.030 A 
ATOM     24  C   UNL     1      -4.155  12.120  34.498  0.00  0.00    +0.030 A 
ATOM     25  C   UNL     1      -6.895  11.775  34.105  0.00  0.00    +0.025 A 
ATOM     26  C   UNL     1      -4.833  11.105  35.171  0.00  0.00    +0.025 A 
ATOM     29  C   UNL     1      -6.204  10.933  34.974  0.00  0.00    +0.033 A 
BRANCH  29   9
ATOM      6  O   UNL     1      -7.928  11.033  37.439  0.00  0.00    -0.276 OA
ATOM      9  N   UNL     1      -6.883   9.916  35.646  0.00  0.00    -0.286 N 
ATOM     33  C   UNL     1      -7.675  10.018  36.798  0.00  0.00    +0.214 C 
ATOM     34  C   UNL     1      -8.236   8.681  37.212  0.00  0.00    +0.109 C 
ATOM     36  H   UNL     1      -6.783   8.987  35.242  0.00  0.00    +0.155 HD
ENDBRANCH  29   9
ENDBRANCH   1  21
ENDBRANCH   7   1
TORSDOF 5
ENDMDL
MODEL 10
REMARK VINA RESULT:      -6.2     21.138     24.571
REMARK  Name = 7143845
REMARK  7 active torsions:
REMARK  status: ('A' for Active; 'I' for Inactive)
REMARK    1  A    between atoms: S_1  and  N_7
REMARK    2  A    between atoms: S_1  and  C_21
REMARK    3  A    between atoms: S_2  and  C_32
REMARK    4  A    between atoms: S_2  and  C_35
REMARK    5  A    between atoms: N_9  and  C_29
REMARK    6  A    between atoms: C_19  and  C_22
REMARK    7  A    between atoms: C_33  and  C_34
REMARK                            x       y       z     vdW  Elec       q    Type
REMARK                         _______ _______ _______ _____ _____    ______ ____
ROOT
ATOM      5  O   UNL     1      -2.058   7.671  37.350  0.00  0.00    -0.267 OA
ATOM      7  N   UNL     1      -3.313   6.476  42.023  0.00  0.00    -0.176 NA
ATOM      8  N   UNL     1      -1.497   7.354  39.591  0.00  0.00    -0.311 N 
ATOM     10  C   UNL     1      -1.683   5.078  40.750  0.00  0.00    +0.025 C 
ATOM     11  C   UNL     1      -0.889   7.029  42.013  0.00  0.00    +0.052 C 
ATOM     12  C   UNL     1      -0.550   5.591  41.629  0.00  0.00    +0.017 C 
ATOM     13  C   UNL     1      -3.016   5.106  41.516  0.00  0.00    +0.114 C 
ATOM     14  C   UNL     1      -2.194   7.049  42.829  0.00  0.00    +0.119 C 
ATOM     15  C   UNL     1      -1.730   5.908  39.462  0.00  0.00    +0.130 C 
ATOM     16  C   UNL     1      -1.023   7.905  40.783  0.00  0.00    +0.026 A 
ATOM     17  C   UNL     1      -0.707   9.210  40.843  0.00  0.00    +0.022 A 
ATOM     18  C   UNL     1      -1.676   8.128  38.427  0.00  0.00    +0.259 A 
ATOM     19  C   UNL     1      -1.348   9.594  38.535  0.00  0.00    +0.047 A 
ATOM     20  C   UNL     1      -0.879  10.063  39.701  0.00  0.00    +0.015 A 
ENDROOT
BRANCH  19  22
ATOM     22  C   UNL     1      -1.541  10.505  37.394  0.00  0.00    -0.013 A 
ATOM     27  C   UNL     1      -2.748  11.189  37.243  0.00  0.00    +0.010 A 
ATOM     28  C   UNL     1      -0.519  10.683  36.462  0.00  0.00    +0.010 A 
ATOM     30  C   UNL     1      -2.932  12.050  36.162  0.00  0.00    +0.015 A 
ATOM     31  C   UNL     1      -0.703  11.545  35.380  0.00  0.00    +0.015 A 
ATOM     32  C   UNL     1      -1.909  12.229  35.231  0.00  0.00    +0.008 A 
BRANCH  32   2
ATOM      2  S   UNL     1      -2.145  13.328  33.848  0.00  0.00    -0.129 S 
ATOM     35  C   UNL     1      -3.855  12.954  33.367  0.00  0.00    +0.090 C 
ENDBRANCH  32   2
ENDBRANCH  19  22
BRANCH   7   1
ATOM      1  S   UNL     1      -4.882   6.702  42.669  0.00  0.00    +0.061 S 
ATOM      3  O   UNL     1      -4.779   7.425  43.919  0.00  0.00    -0.153 OA
ATOM      4  O   UNL     1      -5.609   5.453  42.588  0.00  0.00    -0.153 OA
BRANCH   1  21
ATOM     21  C   UNL     1      -5.556   7.802  41.464  0.00  0.00    +0.106 A 
ATOM     23  C   UNL     1      -4.742   8.274  40.447  0.00  0.00    +0.030 A 
ATOM     24  C   UNL     1      -6.887   8.173  41.554  0.00  0.00    +0.030 A 
ATOM     25  C   UNL     1      -5.276   9.143  39.494  0.00  0.00    +0.025 A 
ATOM     26  C   UNL     1      -7.420   9.041  40.602  0.00  0.00    +0.025 A 
ATOM     29  C   UNL     1      -6.614   9.525  39.572  0.00  0.00    +0.033 A 
BRANCH  29   9
ATOM      6  O   UNL     1      -7.467   9.020  36.729  0.00  0.00    -0.276 OA
ATOM      9  N   UNL     1      -7.147  10.393  38.618  0.00  0.00    -0.286 N 
ATOM     33  C   UNL     1      -7.528  10.103  37.300  0.00  0.00    +0.214 C 
ATOM     34  C   UNL     1      -8.062  11.323  36.592  0.00  0.00    +0.109 C 
ATOM     36  H   UNL     1      -7.272  11.355  38.927  0.00  0.00    +0.155 HD
ENDBRANCH  29   9
ENDBRANCH   1  21
ENDBRANCH   7   1
TORSDOF 5
ENDMDL
