MODEL 1
REMARK VINA RESULT:      -5.3      0.000      0.000
REMARK  Name = 11883315
REMARK  5 active torsions:
REMARK  status: ('A' for Active; 'I' for Inactive)
REMARK    1  A    between atoms: S_1  and  N_7
REMARK    2  A    between atoms: S_1  and  C_15
REMARK    3  A    between atoms: O_4  and  C_11
REMARK    4  A    between atoms: O_4  and  C_14
REMARK    5  A    between atoms: N_7  and  C_10
REMARK                            x       y       z     vdW  Elec       q    Type
REMARK                         _______ _______ _______ _____ _____    ______ ____
ROOT
ATOM      2  O   UNL     1      -2.954   2.885  23.790  0.00  0.00    -0.370 OA
ATOM      3  O   UNL     1      -0.590   1.581  25.264  0.00  0.00    -0.370 OA
ATOM      8  C   UNL     1      -1.989   1.232  25.192  0.00  0.00    +0.170 C 
ATOM      9  C   UNL     1      -2.766   2.533  25.170  0.00  0.00    +0.179 C 
ATOM     10  C   UNL     1      -2.294   0.603  23.855  0.00  0.00    +0.133 C 
ATOM     11  C   UNL     1      -1.827   3.488  25.867  0.00  0.00    +0.175 C 
ATOM     12  C   UNL     1      -2.502   1.806  22.957  0.00  0.00    +0.183 C 
ATOM     13  C   UNL     1      -0.474   3.005  25.397  0.00  0.00    +0.194 C 
ENDROOT
BRANCH  11   4
ATOM      4  O   UNL     1      -2.051   4.840  25.537  0.00  0.00    -0.375 OA
ATOM     14  C   UNL     1      -0.950   5.408  24.833  0.00  0.00    +0.194 C 
ENDBRANCH  11   4
BRANCH  10   7
ATOM      7  N   UNL     1      -3.549  -0.183  23.940  0.00  0.00    -0.187 NA
ATOM     16  H   UNL     1      -4.431   0.344  23.952  0.00  0.00    +0.148 HD
BRANCH   7   1
ATOM      1  S   UNL     1      -3.501  -1.738  24.631  0.00  0.00    +0.027 S 
ATOM      5  O   UNL     1      -4.344  -2.643  23.874  0.00  0.00    -0.158 OA
ATOM      6  O   UNL     1      -3.659  -1.601  26.066  0.00  0.00    -0.158 OA
ATOM     15  C   UNL     1      -1.806  -2.182  24.324  0.00  0.00    +0.214 C 
ENDBRANCH   7   1
ENDBRANCH  10   7
TORSDOF 3
ENDMDL
MODEL 2
REMARK VINA RESULT:      -5.2     15.455     17.191
REMARK  Name = 11883315
REMARK  5 active torsions:
REMARK  status: ('A' for Active; 'I' for Inactive)
REMARK    1  A    between atoms: S_1  and  N_7
REMARK    2  A    between atoms: S_1  and  C_15
REMARK    3  A    between atoms: O_4  and  C_11
REMARK    4  A    between atoms: O_4  and  C_14
REMARK    5  A    between atoms: N_7  and  C_10
REMARK                            x       y       z     vdW  Elec       q    Type
REMARK                         _______ _______ _______ _____ _____    ______ ____
ROOT
ATOM      2  O   UNL     1      13.158   8.726  22.031  0.00  0.00    -0.370 OA
ATOM      3  O   UNL     1      10.682   7.213  21.010  0.00  0.00    -0.370 OA
ATOM      8  C   UNL     1      11.634   8.063  20.336  0.00  0.00    +0.170 C 
ATOM      9  C   UNL     1      11.998   9.170  21.307  0.00  0.00    +0.179 C 
ATOM     10  C   UNL     1      12.930   7.320  20.128  0.00  0.00    +0.133 C 
ATOM     11  C   UNL     1      10.779   9.243  22.195  0.00  0.00    +0.175 C 
ATOM     12  C   UNL     1      13.639   7.502  21.456  0.00  0.00    +0.183 C 
ATOM     13  C   UNL     1      10.362   7.792  22.284  0.00  0.00    +0.194 C 
ENDROOT
BRANCH  11   4
ATOM      4  O   UNL     1      11.039   9.799  23.463  0.00  0.00    -0.375 OA
ATOM     14  C   UNL     1      11.005  11.224  23.438  0.00  0.00    +0.194 C 
ENDBRANCH  11   4
BRANCH  10   7
ATOM      7  N   UNL     1      13.715   7.964  19.048  0.00  0.00    -0.187 NA
ATOM     16  H   UNL     1      14.375   8.702  19.324  0.00  0.00    +0.148 HD
BRANCH   7   1
ATOM      1  S   UNL     1      13.094   7.958  17.463  0.00  0.00    +0.027 S 
ATOM      5  O   UNL     1      11.839   7.231  17.425  0.00  0.00    -0.158 OA
ATOM      6  O   UNL     1      14.173   7.623  16.555  0.00  0.00    -0.158 OA
ATOM     15  C   UNL     1      12.733   9.686  17.244  0.00  0.00    +0.214 C 
ENDBRANCH   7   1
ENDBRANCH  10   7
TORSDOF 3
ENDMDL
MODEL 3
REMARK VINA RESULT:      -5.2     17.074     18.630
REMARK  Name = 11883315
REMARK  5 active torsions:
REMARK  status: ('A' for Active; 'I' for Inactive)
REMARK    1  A    between atoms: S_1  and  N_7
REMARK    2  A    between atoms: S_1  and  C_15
REMARK    3  A    between atoms: O_4  and  C_11
REMARK    4  A    between atoms: O_4  and  C_14
REMARK    5  A    between atoms: N_7  and  C_10
REMARK                            x       y       z     vdW  Elec       q    Type
REMARK                         _______ _______ _______ _____ _____    ______ ____
ROOT
ATOM      2  O   UNL     1      13.871   7.865  16.467  0.00  0.00    -0.370 OA
ATOM      3  O   UNL     1      14.094  10.205  18.451  0.00  0.00    -0.370 OA
ATOM      8  C   UNL     1      13.068   9.210  18.251  0.00  0.00    +0.170 C 
ATOM      9  C   UNL     1      12.985   8.959  16.758  0.00  0.00    +0.179 C 
ATOM     10  C   UNL     1      13.517   7.886  18.818  0.00  0.00    +0.133 C 
ATOM     11  C   UNL     1      13.493  10.257  16.178  0.00  0.00    +0.175 C 
ATOM     12  C   UNL     1      14.360   7.308  17.697  0.00  0.00    +0.183 C 
ATOM     13  C   UNL     1      14.561  10.654  17.171  0.00  0.00    +0.194 C 
ENDROOT
BRANCH  11   4
ATOM      4  O   UNL     1      14.004  10.129  14.871  0.00  0.00    -0.375 OA
ATOM     14  C   UNL     1      15.314  10.679  14.754  0.00  0.00    +0.194 C 
ENDBRANCH  11   4
BRANCH  10   7
ATOM      7  N   UNL     1      12.343   7.014  19.062  0.00  0.00    -0.187 NA
ATOM     16  H   UNL     1      11.806   6.710  18.240  0.00  0.00    +0.148 HD
BRANCH   7   1
ATOM      1  S   UNL     1      11.574   7.077  20.579  0.00  0.00    +0.027 S 
ATOM      5  O   UNL     1      11.209   5.740  21.006  0.00  0.00    -0.158 OA
ATOM      6  O   UNL     1      10.588   8.140  20.544  0.00  0.00    -0.158 OA
ATOM     15  C   UNL     1      12.916   7.632  21.606  0.00  0.00    +0.214 C 
ENDBRANCH   7   1
ENDBRANCH  10   7
TORSDOF 3
ENDMDL
MODEL 4
REMARK VINA RESULT:      -5.1     16.623     18.348
REMARK  Name = 11883315
REMARK  5 active torsions:
REMARK  status: ('A' for Active; 'I' for Inactive)
REMARK    1  A    between atoms: S_1  and  N_7
REMARK    2  A    between atoms: S_1  and  C_15
REMARK    3  A    between atoms: O_4  and  C_11
REMARK    4  A    between atoms: O_4  and  C_14
REMARK    5  A    between atoms: N_7  and  C_10
REMARK                            x       y       z     vdW  Elec       q    Type
REMARK                         _______ _______ _______ _____ _____    ______ ____
ROOT
ATOM      2  O   UNL     1      13.161   9.362  20.313  0.00  0.00    -0.370 OA
ATOM      3  O   UNL     1      12.092   6.715  19.170  0.00  0.00    -0.370 OA
ATOM      8  C   UNL     1      11.938   8.082  18.733  0.00  0.00    +0.170 C 
ATOM      9  C   UNL     1      11.830   8.933  19.982  0.00  0.00    +0.179 C 
ATOM     10  C   UNL     1      13.211   8.558  18.077  0.00  0.00    +0.133 C 
ATOM     11  C   UNL     1      11.290   7.956  20.999  0.00  0.00    +0.175 C 
ATOM     12  C   UNL     1      14.060   8.983  19.259  0.00  0.00    +0.183 C 
ATOM     13  C   UNL     1      11.973   6.669  20.599  0.00  0.00    +0.194 C 
ENDROOT
BRANCH  11   4
ATOM      4  O   UNL     1      11.575   8.316  22.332  0.00  0.00    -0.375 OA
ATOM     14  C   UNL     1      10.773   9.410  22.772  0.00  0.00    +0.194 C 
ENDBRANCH  11   4
BRANCH  10   7
ATOM      7  N   UNL     1      12.928   9.730  17.215  0.00  0.00    -0.187 NA
ATOM     16  H   UNL     1      12.119  10.311  17.464  0.00  0.00    +0.148 HD
BRANCH   7   1
ATOM      1  S   UNL     1      13.473   9.715  15.602  0.00  0.00    +0.027 S 
ATOM      5  O   UNL     1      12.488  10.339  14.739  0.00  0.00    -0.158 OA
ATOM      6  O   UNL     1      13.984   8.390  15.308  0.00  0.00    -0.158 OA
ATOM     15  C   UNL     1      14.871  10.809  15.717  0.00  0.00    +0.214 C 
ENDBRANCH   7   1
ENDBRANCH  10   7
TORSDOF 3
ENDMDL
MODEL 5
REMARK VINA RESULT:      -5.0     15.562     17.261
REMARK  Name = 11883315
REMARK  5 active torsions:
REMARK  status: ('A' for Active; 'I' for Inactive)
REMARK    1  A    between atoms: S_1  and  N_7
REMARK    2  A    between atoms: S_1  and  C_15
REMARK    3  A    between atoms: O_4  and  C_11
REMARK    4  A    between atoms: O_4  and  C_14
REMARK    5  A    between atoms: N_7  and  C_10
REMARK                            x       y       z     vdW  Elec       q    Type
REMARK                         _______ _______ _______ _____ _____    ______ ____
ROOT
ATOM      2  O   UNL     1      10.433   8.015  20.123  0.00  0.00    -0.370 OA
ATOM      3  O   UNL     1      13.410   8.683  20.511  0.00  0.00    -0.370 OA
ATOM      8  C   UNL     1      12.215   9.465  20.718  0.00  0.00    +0.170 C 
ATOM      9  C   UNL     1      11.246   9.086  19.615  0.00  0.00    +0.179 C 
ATOM     10  C   UNL     1      11.521   9.020  21.981  0.00  0.00    +0.133 C 
ATOM     11  C   UNL     1      12.167   8.615  18.516  0.00  0.00    +0.175 C 
ATOM     12  C   UNL     1      10.713   7.825  21.518  0.00  0.00    +0.183 C 
ATOM     13  C   UNL     1      13.271   7.936  19.294  0.00  0.00    +0.194 C 
ENDROOT
BRANCH  11   4
ATOM      4  O   UNL     1      11.549   7.741  17.599  0.00  0.00    -0.375 OA
ATOM     14  C   UNL     1      10.708   8.437  16.682  0.00  0.00    +0.194 C 
ENDBRANCH  11   4
BRANCH  10   7
ATOM      7  N   UNL     1      10.610  10.087  22.460  0.00  0.00    -0.187 NA
ATOM     16  H   UNL     1       9.733  10.222  21.942  0.00  0.00    +0.148 HD
BRANCH   7   1
ATOM      1  S   UNL     1      11.259  11.388  23.345  0.00  0.00    +0.027 S 
ATOM      5  O   UNL     1      12.677  11.178  23.568  0.00  0.00    -0.158 OA
ATOM      6  O   UNL     1      10.368  11.673  24.452  0.00  0.00    -0.158 OA
ATOM     15  C   UNL     1      11.080  12.709  22.166  0.00  0.00    +0.214 C 
ENDBRANCH   7   1
ENDBRANCH  10   7
TORSDOF 3
ENDMDL
MODEL 6
REMARK VINA RESULT:      -4.8     14.347     15.431
REMARK  Name = 11883315
REMARK  5 active torsions:
REMARK  status: ('A' for Active; 'I' for Inactive)
REMARK    1  A    between atoms: S_1  and  N_7
REMARK    2  A    between atoms: S_1  and  C_15
REMARK    3  A    between atoms: O_4  and  C_11
REMARK    4  A    between atoms: O_4  and  C_14
REMARK    5  A    between atoms: N_7  and  C_10
REMARK                            x       y       z     vdW  Elec       q    Type
REMARK                         _______ _______ _______ _____ _____    ______ ____
ROOT
ATOM      2  O   UNL     1      -5.085 -12.587  18.286  0.00  0.00    -0.370 OA
ATOM      3  O   UNL     1      -6.173  -9.988  17.050  0.00  0.00    -0.370 OA
ATOM      8  C   UNL     1      -4.836 -10.396  17.408  0.00  0.00    +0.170 C 
ATOM      9  C   UNL     1      -4.951 -11.211  18.681  0.00  0.00    +0.179 C 
ATOM     10  C   UNL     1      -4.309 -11.379  16.392  0.00  0.00    +0.133 C 
ATOM     11  C   UNL     1      -6.222 -10.680  19.298  0.00  0.00    +0.175 C 
ATOM     12  C   UNL     1      -4.886 -12.697  16.868  0.00  0.00    +0.183 C 
ATOM     13  C   UNL     1      -7.078 -10.410  18.082  0.00  0.00    +0.194 C 
ENDROOT
BRANCH  11   4
ATOM      4  O   UNL     1      -6.835 -11.583  20.189  0.00  0.00    -0.375 OA
ATOM     14  C   UNL     1      -8.108 -12.017  19.716  0.00  0.00    +0.194 C 
ENDBRANCH  11   4
BRANCH  10   7
ATOM      7  N   UNL     1      -2.828 -11.428  16.455  0.00  0.00    -0.187 NA
ATOM     16  H   UNL     1      -2.393 -11.281  17.374  0.00  0.00    +0.148 HD
BRANCH   7   1
ATOM      1  S   UNL     1      -1.933 -11.084  15.049  0.00  0.00    +0.027 S 
ATOM      5  O   UNL     1      -1.333 -12.299  14.533  0.00  0.00    -0.158 OA
ATOM      6  O   UNL     1      -1.125  -9.907  15.303  0.00  0.00    -0.158 OA
ATOM     15  C   UNL     1      -3.237 -10.603  13.938  0.00  0.00    +0.214 C 
ENDBRANCH   7   1
ENDBRANCH  10   7
TORSDOF 3
ENDMDL
MODEL 7
REMARK VINA RESULT:      -4.7     13.540     14.904
REMARK  Name = 11883315
REMARK  5 active torsions:
REMARK  status: ('A' for Active; 'I' for Inactive)
REMARK    1  A    between atoms: S_1  and  N_7
REMARK    2  A    between atoms: S_1  and  C_15
REMARK    3  A    between atoms: O_4  and  C_11
REMARK    4  A    between atoms: O_4  and  C_14
REMARK    5  A    between atoms: N_7  and  C_10
REMARK                            x       y       z     vdW  Elec       q    Type
REMARK                         _______ _______ _______ _____ _____    ______ ____
ROOT
ATOM      2  O   UNL     1     -14.975   2.041  29.673  0.00  0.00    -0.370 OA
ATOM      3  O   UNL     1     -14.929   0.776  32.476  0.00  0.00    -0.370 OA
ATOM      8  C   UNL     1     -14.212   1.896  31.916  0.00  0.00    +0.170 C 
ATOM      9  C   UNL     1     -13.895   1.539  30.477  0.00  0.00    +0.179 C 
ATOM     10  C   UNL     1     -15.129   3.089  31.801  0.00  0.00    +0.133 C 
ATOM     11  C   UNL     1     -13.877   0.029  30.510  0.00  0.00    +0.175 C 
ATOM     12  C   UNL     1     -15.848   2.835  30.490  0.00  0.00    +0.183 C 
ATOM     13  C   UNL     1     -14.971  -0.280  31.506  0.00  0.00    +0.194 C 
ENDROOT
BRANCH  11   4
ATOM      4  O   UNL     1     -14.120  -0.564  29.254  0.00  0.00    -0.375 OA
ATOM     14  C   UNL     1     -13.110  -1.507  28.905  0.00  0.00    +0.194 C 
ENDBRANCH  11   4
BRANCH  10   7
ATOM      7  N   UNL     1     -14.331   4.334  31.702  0.00  0.00    -0.187 NA
ATOM     16  H   UNL     1     -13.548   4.337  31.036  0.00  0.00    +0.148 HD
BRANCH   7   1
ATOM      1  S   UNL     1     -14.292   5.394  33.033  0.00  0.00    +0.027 S 
ATOM      5  O   UNL     1     -13.512   6.572  32.706  0.00  0.00    -0.158 OA
ATOM      6  O   UNL     1     -14.000   4.618  34.222  0.00  0.00    -0.158 OA
ATOM     15  C   UNL     1     -16.002   5.876  33.120  0.00  0.00    +0.214 C 
ENDBRANCH   7   1
ENDBRANCH  10   7
TORSDOF 3
ENDMDL
MODEL 8
REMARK VINA RESULT:      -4.4     14.167     15.589
REMARK  Name = 11883315
REMARK  5 active torsions:
REMARK  status: ('A' for Active; 'I' for Inactive)
REMARK    1  A    between atoms: S_1  and  N_7
REMARK    2  A    between atoms: S_1  and  C_15
REMARK    3  A    between atoms: O_4  and  C_11
REMARK    4  A    between atoms: O_4  and  C_14
REMARK    5  A    between atoms: N_7  and  C_10
REMARK                            x       y       z     vdW  Elec       q    Type
REMARK                         _______ _______ _______ _____ _____    ______ ____
ROOT
ATOM      2  O   UNL     1      -4.538 -12.002  14.980  0.00  0.00    -0.370 OA
ATOM      3  O   UNL     1      -1.920 -10.978  16.229  0.00  0.00    -0.370 OA
ATOM      8  C   UNL     1      -3.290 -10.549  16.381  0.00  0.00    +0.170 C 
ATOM      9  C   UNL     1      -3.948 -10.692  15.023  0.00  0.00    +0.179 C 
ATOM     10  C   UNL     1      -4.040 -11.524  17.255  0.00  0.00    +0.133 C 
ATOM     11  C   UNL     1      -2.778 -10.575  14.077  0.00  0.00    +0.175 C 
ATOM     12  C   UNL     1      -4.442 -12.611  16.277  0.00  0.00    +0.183 C 
ATOM     13  C   UNL     1      -1.676 -11.268  14.845  0.00  0.00    +0.194 C 
ENDROOT
BRANCH  11   4
ATOM      4  O   UNL     1      -3.008 -11.174  12.821  0.00  0.00    -0.375 OA
ATOM     14  C   UNL     1      -2.418 -10.428  11.759  0.00  0.00    +0.194 C 
ENDBRANCH  11   4
BRANCH  10   7
ATOM      7  N   UNL     1      -5.252 -10.876  17.811  0.00  0.00    -0.187 NA
ATOM     16  H   UNL     1      -5.524  -9.969  17.412  0.00  0.00    +0.148 HD
BRANCH   7   1
ATOM      1  S   UNL     1      -5.740 -11.266  19.394  0.00  0.00    +0.027 S 
ATOM      5  O   UNL     1      -6.395 -10.126  20.006  0.00  0.00    -0.158 OA
ATOM      6  O   UNL     1      -4.636 -11.931  20.058  0.00  0.00    -0.158 OA
ATOM     15  C   UNL     1      -6.980 -12.497  19.063  0.00  0.00    +0.214 C 
ENDBRANCH   7   1
ENDBRANCH  10   7
TORSDOF 3
ENDMDL
MODEL 9
REMARK VINA RESULT:      -4.4     14.647     15.662
REMARK  Name = 11883315
REMARK  5 active torsions:
REMARK  status: ('A' for Active; 'I' for Inactive)
REMARK    1  A    between atoms: S_1  and  N_7
REMARK    2  A    between atoms: S_1  and  C_15
REMARK    3  A    between atoms: O_4  and  C_11
REMARK    4  A    between atoms: O_4  and  C_14
REMARK    5  A    between atoms: N_7  and  C_10
REMARK                            x       y       z     vdW  Elec       q    Type
REMARK                         _______ _______ _______ _____ _____    ______ ____
ROOT
ATOM      2  O   UNL     1      -6.071 -10.775  16.776  0.00  0.00    -0.370 OA
ATOM      3  O   UNL     1      -4.582 -11.703  19.302  0.00  0.00    -0.370 OA
ATOM      8  C   UNL     1      -4.568 -12.193  17.944  0.00  0.00    +0.170 C 
ATOM      9  C   UNL     1      -5.982 -12.059  17.415  0.00  0.00    +0.179 C 
ATOM     10  C   UNL     1      -3.763 -11.263  17.070  0.00  0.00    +0.133 C 
ATOM     11  C   UNL     1      -6.811 -12.114  18.676  0.00  0.00    +0.175 C 
ATOM     12  C   UNL     1      -4.766 -10.181  16.718  0.00  0.00    +0.183 C 
ATOM     13  C   UNL     1      -5.932 -11.385  19.667  0.00  0.00    +0.194 C 
ENDROOT
BRANCH  11   4
ATOM      4  O   UNL     1      -8.077 -11.508  18.544  0.00  0.00    -0.375 OA
ATOM     14  C   UNL     1      -8.898 -11.732  19.689  0.00  0.00    +0.194 C 
ENDBRANCH  11   4
BRANCH  10   7
ATOM      7  N   UNL     1      -3.335 -11.969  15.839  0.00  0.00    -0.187 NA
ATOM     16  H   UNL     1      -3.510 -12.980  15.794  0.00  0.00    +0.148 HD
BRANCH   7   1
ATOM      1  S   UNL     1      -2.079 -11.302  14.903  0.00  0.00    +0.027 S 
ATOM      5  O   UNL     1      -0.975 -10.911  15.759  0.00  0.00    -0.158 OA
ATOM      6  O   UNL     1      -2.662 -10.359  13.968  0.00  0.00    -0.158 OA
ATOM     15  C   UNL     1      -1.570 -12.728  13.970  0.00  0.00    +0.214 C 
ENDBRANCH   7   1
ENDBRANCH  10   7
TORSDOF 3
ENDMDL
MODEL 10
REMARK VINA RESULT:      -4.3     13.020     14.348
REMARK  Name = 11883315
REMARK  5 active torsions:
REMARK  status: ('A' for Active; 'I' for Inactive)
REMARK    1  A    between atoms: S_1  and  N_7
REMARK    2  A    between atoms: S_1  and  C_15
REMARK    3  A    between atoms: O_4  and  C_11
REMARK    4  A    between atoms: O_4  and  C_14
REMARK    5  A    between atoms: N_7  and  C_10
REMARK                            x       y       z     vdW  Elec       q    Type
REMARK                         _______ _______ _______ _____ _____    ______ ____
ROOT
ATOM      2  O   UNL     1     -12.611   7.906  17.918  0.00  0.00    -0.370 OA
ATOM      3  O   UNL     1     -10.201   9.761  18.378  0.00  0.00    -0.370 OA
ATOM      8  C   UNL     1     -10.348   8.551  17.605  0.00  0.00    +0.170 C 
ATOM      9  C   UNL     1     -11.278   7.642  18.386  0.00  0.00    +0.179 C 
ATOM     10  C   UNL     1     -11.107   8.841  16.334  0.00  0.00    +0.133 C 
ATOM     11  C   UNL     1     -11.081   8.113  19.807  0.00  0.00    +0.175 C 
ATOM     12  C   UNL     1     -12.553   8.784  16.784  0.00  0.00    +0.183 C 
ATOM     13  C   UNL     1     -10.891   9.602  19.626  0.00  0.00    +0.194 C 
ENDROOT
BRANCH  11   4
ATOM      4  O   UNL     1     -12.167   7.816  20.654  0.00  0.00    -0.375 OA
ATOM     14  C   UNL     1     -12.677   8.982  21.298  0.00  0.00    +0.194 C 
ENDBRANCH  11   4
BRANCH  10   7
ATOM      7  N   UNL     1     -10.850   7.776  15.336  0.00  0.00    -0.187 NA
ATOM     16  H   UNL     1     -10.190   7.034  15.602  0.00  0.00    +0.148 HD
BRANCH   7   1
ATOM      1  S   UNL     1     -11.094   8.117  13.686  0.00  0.00    +0.027 S 
ATOM      5  O   UNL     1     -10.028   7.532  12.895  0.00  0.00    -0.158 OA
ATOM      6  O   UNL     1     -11.427   9.522  13.559  0.00  0.00    -0.158 OA
ATOM     15  C   UNL     1     -12.580   7.189  13.375  0.00  0.00    +0.214 C 
ENDBRANCH   7   1
ENDBRANCH  10   7
TORSDOF 3
ENDMDL
