MODEL 1
REMARK VINA RESULT:      -7.1      0.000      0.000
REMARK  Name = 75537087
REMARK  4 active torsions:
REMARK  status: ('A' for Active; 'I' for Inactive)
REMARK    1  A    between atoms: N_4  and  C_14
REMARK    2  A    between atoms: N_5  and  C_15
REMARK    3  A    between atoms: C_14  and  C_16
REMARK    4  A    between atoms: C_15  and  C_17
REMARK                            x       y       z     vdW  Elec       q    Type
REMARK                         _______ _______ _______ _____ _____    ______ ____
ROOT
ATOM      2  O   UNL     1      12.003   6.435  20.008  0.00  0.00    -0.252 OA
ATOM      3  N   UNL     1      12.218   8.141  21.609  0.00  0.00    -0.278 N 
ATOM      4  N   UNL     1      11.500  10.326  23.229  0.00  0.00    -0.292 NA
ATOM      5  N   UNL     1      13.890   7.843  20.141  0.00  0.00    -0.279 N 
ATOM      8  C   UNL     1      13.247   9.064  22.040  0.00  0.00    +0.109 C 
ATOM      9  C   UNL     1      12.647  10.444  22.305  0.00  0.00    +0.109 C 
ATOM     10  C   UNL     1      14.272   9.016  20.908  0.00  0.00    +0.133 C 
ATOM     11  C   UNL     1      10.984   8.054  22.362  0.00  0.00    +0.125 C 
ATOM     12  C   UNL     1      10.451   9.458  22.657  0.00  0.00    +0.104 C 
ATOM     13  C   UNL     1      12.626   7.354  20.524  0.00  0.00    +0.305 C 
ENDROOT
BRANCH   4  14
ATOM     14  C   UNL     1      10.956  11.648  23.538  0.00  0.00    +0.158 C 
BRANCH  14  16
ATOM      6  N   UNL     1      12.243  12.112  25.633  0.00  0.00    -0.347 N 
ATOM      7  N   UNL     1      12.513  13.577  23.987  0.00  0.00    -0.239 NA
ATOM     16  C   UNL     1      11.909  12.470  24.357  0.00  0.00    +0.121 A 
ATOM     20  C   UNL     1      13.117  13.050  26.107  0.00  0.00    +0.104 A 
ATOM     21  C   UNL     1      13.268  13.943  25.073  0.00  0.00    +0.130 A 
ATOM     25  H   UNL     1      11.908  11.300  26.135  0.00  0.00    +0.167 HD
ENDBRANCH  14  16
ENDBRANCH   4  14
BRANCH   5  15
ATOM     15  C   UNL     1      14.678   7.368  19.025  0.00  0.00    +0.144 C 
BRANCH  15  17
ATOM      1  F   UNL     1      19.712   5.455  20.667  0.00  0.00    -0.205 F 
ATOM     17  C   UNL     1      16.021   6.857  19.463  0.00  0.00    -0.030 A 
ATOM     18  C   UNL     1      16.547   7.249  20.694  0.00  0.00    +0.008 A 
ATOM     19  C   UNL     1      16.741   5.993  18.639  0.00  0.00    +0.008 A 
ATOM     22  C   UNL     1      17.794   6.775  21.101  0.00  0.00    +0.038 A 
ATOM     23  C   UNL     1      17.989   5.520  19.046  0.00  0.00    +0.038 A 
ATOM     24  C   UNL     1      18.515   5.910  20.276  0.00  0.00    +0.123 A 
ENDBRANCH  15  17
ENDBRANCH   5  15
TORSDOF 4
ENDMDL
MODEL 2
REMARK VINA RESULT:      -6.9      1.843      2.618
REMARK  Name = 75537087
REMARK  4 active torsions:
REMARK  status: ('A' for Active; 'I' for Inactive)
REMARK    1  A    between atoms: N_4  and  C_14
REMARK    2  A    between atoms: N_5  and  C_15
REMARK    3  A    between atoms: C_14  and  C_16
REMARK    4  A    between atoms: C_15  and  C_17
REMARK                            x       y       z     vdW  Elec       q    Type
REMARK                         _______ _______ _______ _____ _____    ______ ____
ROOT
ATOM      2  O   UNL     1      14.318   8.166  17.480  0.00  0.00    -0.252 OA
ATOM      3  N   UNL     1      13.009   7.828  19.401  0.00  0.00    -0.278 N 
ATOM      4  N   UNL     1      11.327   8.437  21.573  0.00  0.00    -0.292 NA
ATOM      5  N   UNL     1      15.013   6.822  19.289  0.00  0.00    -0.279 N 
ATOM      8  C   UNL     1      13.067   7.001  20.589  0.00  0.00    +0.109 C 
ATOM      9  C   UNL     1      12.639   7.803  21.817  0.00  0.00    +0.109 C 
ATOM     10  C   UNL     1      14.513   6.508  20.616  0.00  0.00    +0.133 C 
ATOM     11  C   UNL     1      11.820   8.612  19.142  0.00  0.00    +0.125 C 
ATOM     12  C   UNL     1      11.392   9.350  20.414  0.00  0.00    +0.104 C 
ATOM     13  C   UNL     1      14.133   7.666  18.582  0.00  0.00    +0.305 C 
ENDROOT
BRANCH   4  14
ATOM     14  C   UNL     1      10.879   9.157  22.764  0.00  0.00    +0.158 C 
BRANCH  14  16
ATOM      6  N   UNL     1      10.657  11.631  22.469  0.00  0.00    -0.347 N 
ATOM      7  N   UNL     1      12.637  10.914  23.173  0.00  0.00    -0.239 NA
ATOM     16  C   UNL     1      11.424  10.555  22.815  0.00  0.00    +0.121 A 
ATOM     20  C   UNL     1      11.428  12.749  22.617  0.00  0.00    +0.104 A 
ATOM     21  C   UNL     1      12.646  12.282  23.052  0.00  0.00    +0.130 A 
ATOM     25  H   UNL     1       9.693  11.607  22.162  0.00  0.00    +0.167 HD
ENDBRANCH  14  16
ENDBRANCH   4  14
BRANCH   5  15
ATOM     15  C   UNL     1      16.332   6.419  18.852  0.00  0.00    +0.144 C 
BRANCH  15  17
ATOM      1  F   UNL     1      20.289   7.692  22.649  0.00  0.00    -0.205 F 
ATOM     17  C   UNL     1      17.387   6.758  19.865  0.00  0.00    -0.030 A 
ATOM     18  C   UNL     1      17.311   7.955  20.576  0.00  0.00    +0.008 A 
ATOM     19  C   UNL     1      18.443   5.876  20.094  0.00  0.00    +0.008 A 
ATOM     22  C   UNL     1      18.291   8.271  21.517  0.00  0.00    +0.038 A 
ATOM     23  C   UNL     1      19.424   6.193  21.034  0.00  0.00    +0.038 A 
ATOM     24  C   UNL     1      19.348   7.389  21.746  0.00  0.00    +0.123 A 
ENDBRANCH  15  17
ENDBRANCH   5  15
TORSDOF 4
ENDMDL
MODEL 3
REMARK VINA RESULT:      -6.6     27.285     28.757
REMARK  Name = 75537087
REMARK  4 active torsions:
REMARK  status: ('A' for Active; 'I' for Inactive)
REMARK    1  A    between atoms: N_4  and  C_14
REMARK    2  A    between atoms: N_5  and  C_15
REMARK    3  A    between atoms: C_14  and  C_16
REMARK    4  A    between atoms: C_15  and  C_17
REMARK                            x       y       z     vdW  Elec       q    Type
REMARK                         _______ _______ _______ _____ _____    ______ ____
ROOT
ATOM      2  O   UNL     1      -3.726 -14.110  14.371  0.00  0.00    -0.252 OA
ATOM      3  N   UNL     1      -4.324 -12.471  15.945  0.00  0.00    -0.278 N 
ATOM      4  N   UNL     1      -5.969 -10.861  17.563  0.00  0.00    -0.292 NA
ATOM      5  N   UNL     1      -2.752 -11.963  14.425  0.00  0.00    -0.279 N 
ATOM      8  C   UNL     1      -3.858 -11.155  16.330  0.00  0.00    +0.109 C 
ATOM      9  C   UNL     1      -5.044 -10.229  16.600  0.00  0.00    +0.109 C 
ATOM     10  C   UNL     1      -2.965 -10.732  15.165  0.00  0.00    +0.133 C 
ATOM     11  C   UNL     1      -5.344 -13.122  16.740  0.00  0.00    +0.125 C 
ATOM     12  C   UNL     1      -6.482 -12.142  17.037  0.00  0.00    +0.104 C 
ATOM     13  C   UNL     1      -3.613 -12.992  14.856  0.00  0.00    +0.305 C 
ENDROOT
BRANCH   4  14
ATOM     14  C   UNL     1      -7.075  -9.958  17.875  0.00  0.00    +0.158 C 
BRANCH  14  16
ATOM      6  N   UNL     1      -9.437 -10.779  17.953  0.00  0.00    -0.347 N 
ATOM      7  N   UNL     1      -8.188 -11.257  19.725  0.00  0.00    -0.239 NA
ATOM     16  C   UNL     1      -8.211 -10.673  18.548  0.00  0.00    +0.121 A 
ATOM     20  C   UNL     1     -10.248 -11.475  18.805  0.00  0.00    +0.104 A 
ATOM     21  C   UNL     1      -9.455 -11.759  19.891  0.00  0.00    +0.130 A 
ATOM     25  H   UNL     1      -9.698 -10.411  17.047  0.00  0.00    +0.167 HD
ENDBRANCH  14  16
ENDBRANCH   4  14
BRANCH   5  15
ATOM     15  C   UNL     1      -1.859 -12.029  13.288  0.00  0.00    +0.144 C 
BRANCH  15  17
ATOM      1  F   UNL     1      -3.615  -8.774   9.044  0.00  0.00    -0.205 F 
ATOM     17  C   UNL     1      -2.327 -11.162  12.156  0.00  0.00    -0.030 A 
ATOM     18  C   UNL     1      -1.638  -9.989  11.845  0.00  0.00    +0.008 A 
ATOM     19  C   UNL     1      -3.451 -11.527  11.416  0.00  0.00    +0.008 A 
ATOM     22  C   UNL     1      -2.073  -9.183  10.793  0.00  0.00    +0.038 A 
ATOM     23  C   UNL     1      -3.887 -10.720  10.365  0.00  0.00    +0.038 A 
ATOM     24  C   UNL     1      -3.198  -9.548  10.053  0.00  0.00    +0.123 A 
ENDBRANCH  15  17
ENDBRANCH   5  15
TORSDOF 4
ENDMDL
MODEL 4
REMARK VINA RESULT:      -6.5     27.320     28.720
REMARK  Name = 75537087
REMARK  4 active torsions:
REMARK  status: ('A' for Active; 'I' for Inactive)
REMARK    1  A    between atoms: N_4  and  C_14
REMARK    2  A    between atoms: N_5  and  C_15
REMARK    3  A    between atoms: C_14  and  C_16
REMARK    4  A    between atoms: C_15  and  C_17
REMARK                            x       y       z     vdW  Elec       q    Type
REMARK                         _______ _______ _______ _____ _____    ______ ____
ROOT
ATOM      2  O   UNL     1      -1.372 -11.546  15.134  0.00  0.00    -0.252 OA
ATOM      3  N   UNL     1      -3.558 -10.866  15.664  0.00  0.00    -0.278 N 
ATOM      4  N   UNL     1      -6.049 -10.819  16.971  0.00  0.00    -0.292 NA
ATOM      5  N   UNL     1      -3.000 -11.061  13.498  0.00  0.00    -0.279 N 
ATOM      8  C   UNL     1      -4.719 -10.384  14.945  0.00  0.00    +0.109 C 
ATOM      9  C   UNL     1      -5.992 -11.015  15.507  0.00  0.00    +0.109 C 
ATOM     10  C   UNL     1      -4.416 -10.736  13.490  0.00  0.00    +0.133 C 
ATOM     11  C   UNL     1      -3.567 -10.857  17.112  0.00  0.00    +0.125 C 
ATOM     12  C   UNL     1      -4.883 -11.442  17.631  0.00  0.00    +0.104 C 
ATOM     13  C   UNL     1      -2.499 -11.198  14.808  0.00  0.00    +0.305 C 
ENDROOT
BRANCH   4  14
ATOM     14  C   UNL     1      -7.293 -11.365  17.511  0.00  0.00    +0.158 C 
BRANCH  14  16
ATOM      6  N   UNL     1      -8.473  -9.178  17.800  0.00  0.00    -0.347 N 
ATOM      7  N   UNL     1      -9.549 -10.708  16.604  0.00  0.00    -0.239 NA
ATOM     16  C   UNL     1      -8.456 -10.444  17.284  0.00  0.00    +0.121 A 
ATOM     20  C   UNL     1      -9.653  -8.598  17.425  0.00  0.00    +0.104 A 
ATOM     21  C   UNL     1     -10.299  -9.561  16.688  0.00  0.00    +0.130 A 
ATOM     25  H   UNL     1      -7.746  -8.748  18.356  0.00  0.00    +0.167 HD
ENDBRANCH  14  16
ENDBRANCH   4  14
BRANCH   5  15
ATOM     15  C   UNL     1      -2.274 -11.352  12.281  0.00  0.00    +0.144 C 
BRANCH  15  17
ATOM      1  F   UNL     1      -5.033  -9.564   7.710  0.00  0.00    -0.205 F 
ATOM     17  C   UNL     1      -3.009 -10.876  11.061  0.00  0.00    -0.030 A 
ATOM     18  C   UNL     1      -2.969  -9.527  10.706  0.00  0.00    +0.008 A 
ATOM     19  C   UNL     1      -3.734 -11.780  10.285  0.00  0.00    +0.008 A 
ATOM     22  C   UNL     1      -3.652  -9.084   9.573  0.00  0.00    +0.038 A 
ATOM     23  C   UNL     1      -4.417 -11.337   9.153  0.00  0.00    +0.038 A 
ATOM     24  C   UNL     1      -4.377  -9.990   8.797  0.00  0.00    +0.123 A 
ENDBRANCH  15  17
ENDBRANCH   5  15
TORSDOF 4
ENDMDL
MODEL 5
REMARK VINA RESULT:      -6.5      3.471      4.567
REMARK  Name = 75537087
REMARK  4 active torsions:
REMARK  status: ('A' for Active; 'I' for Inactive)
REMARK    1  A    between atoms: N_4  and  C_14
REMARK    2  A    between atoms: N_5  and  C_15
REMARK    3  A    between atoms: C_14  and  C_16
REMARK    4  A    between atoms: C_15  and  C_17
REMARK                            x       y       z     vdW  Elec       q    Type
REMARK                         _______ _______ _______ _____ _____    ______ ____
ROOT
ATOM      2  O   UNL     1      10.341   8.240  20.202  0.00  0.00    -0.252 OA
ATOM      3  N   UNL     1      11.904   9.136  21.710  0.00  0.00    -0.278 N 
ATOM      4  N   UNL     1      13.120  10.999  23.433  0.00  0.00    -0.292 NA
ATOM      5  N   UNL     1      12.672   8.021  19.919  0.00  0.00    -0.279 N 
ATOM      8  C   UNL     1      13.338   9.082  21.904  0.00  0.00    +0.109 C 
ATOM      9  C   UNL     1      13.876  10.461  22.284  0.00  0.00    +0.109 C 
ATOM     10  C   UNL     1      13.862   8.530  20.579  0.00  0.00    +0.133 C 
ATOM     11  C   UNL     1      11.077   9.779  22.711  0.00  0.00    +0.125 C 
ATOM     12  C   UNL     1      11.685  11.127  23.105  0.00  0.00    +0.104 C 
ATOM     13  C   UNL     1      11.492   8.438  20.568  0.00  0.00    +0.305 C 
ENDROOT
BRANCH   4  14
ATOM     14  C   UNL     1      13.667  12.291  23.843  0.00  0.00    +0.158 C 
BRANCH  14  16
ATOM      6  N   UNL     1      14.841  11.128  25.721  0.00  0.00    -0.347 N 
ATOM      7  N   UNL     1      14.204  13.216  26.125  0.00  0.00    -0.239 NA
ATOM     16  C   UNL     1      14.227  12.248  25.236  0.00  0.00    +0.121 A 
ATOM     20  C   UNL     1      15.236  11.398  27.001  0.00  0.00    +0.104 A 
ATOM     21  C   UNL     1      14.832  12.692  27.227  0.00  0.00    +0.130 A 
ATOM     25  H   UNL     1      14.981  10.258  25.224  0.00  0.00    +0.167 HD
ENDBRANCH  14  16
ENDBRANCH   4  14
BRANCH   5  15
ATOM     15  C   UNL     1      12.740   7.307  18.663  0.00  0.00    +0.144 C 
BRANCH  15  17
ATOM      1  F   UNL     1      11.823  10.695  14.261  0.00  0.00    -0.205 F 
ATOM     17  C   UNL     1      12.495   8.211  17.489  0.00  0.00    -0.030 A 
ATOM     18  C   UNL     1      11.221   8.296  16.929  0.00  0.00    +0.008 A 
ATOM     19  C   UNL     1      13.542   8.964  16.959  0.00  0.00    +0.008 A 
ATOM     22  C   UNL     1      10.993   9.136  15.839  0.00  0.00    +0.038 A 
ATOM     23  C   UNL     1      13.315   9.803  15.867  0.00  0.00    +0.038 A 
ATOM     24  C   UNL     1      12.041   9.889  15.308  0.00  0.00    +0.123 A 
ENDBRANCH  15  17
ENDBRANCH   5  15
TORSDOF 4
ENDMDL
MODEL 6
REMARK VINA RESULT:      -6.4     14.900     16.766
REMARK  Name = 75537087
REMARK  4 active torsions:
REMARK  status: ('A' for Active; 'I' for Inactive)
REMARK    1  A    between atoms: N_4  and  C_14
REMARK    2  A    between atoms: N_5  and  C_15
REMARK    3  A    between atoms: C_14  and  C_16
REMARK    4  A    between atoms: C_15  and  C_17
REMARK                            x       y       z     vdW  Elec       q    Type
REMARK                         _______ _______ _______ _____ _____    ______ ____
ROOT
ATOM      2  O   UNL     1      15.460   8.558   2.789  0.00  0.00    -0.252 OA
ATOM      3  N   UNL     1      14.051   7.639   4.430  0.00  0.00    -0.278 N 
ATOM      4  N   UNL     1      11.667   6.899   5.728  0.00  0.00    -0.292 NA
ATOM      5  N   UNL     1      15.812   8.858   5.102  0.00  0.00    -0.279 N 
ATOM      8  C   UNL     1      14.045   7.520   5.873  0.00  0.00    +0.109 C 
ATOM      9  C   UNL     1      12.640   7.768   6.421  0.00  0.00    +0.109 C 
ATOM     10  C   UNL     1      15.097   8.531   6.324  0.00  0.00    +0.133 C 
ATOM     11  C   UNL     1      13.043   6.943   3.657  0.00  0.00    +0.125 C 
ATOM     12  C   UNL     1      11.661   7.169   4.276  0.00  0.00    +0.104 C 
ATOM     13  C   UNL     1      15.148   8.371   3.958  0.00  0.00    +0.305 C 
ENDROOT
BRANCH   4  14
ATOM     14  C   UNL     1      10.329   7.084   6.287  0.00  0.00    +0.158 C 
BRANCH  14  16
ATOM      6  N   UNL     1      10.185   4.729   7.121  0.00  0.00    -0.347 N 
ATOM      7  N   UNL     1       9.568   6.305   8.559  0.00  0.00    -0.239 NA
ATOM     16  C   UNL     1      10.017   6.067   7.347  0.00  0.00    +0.121 A 
ATOM     20  C   UNL     1       9.820   4.072   8.262  0.00  0.00    +0.104 A 
ATOM     21  C   UNL     1       9.443   5.065   9.135  0.00  0.00    +0.130 A 
ATOM     25  H   UNL     1      10.521   4.303   6.268  0.00  0.00    +0.167 HD
ENDBRANCH  14  16
ENDBRANCH   4  14
BRANCH   5  15
ATOM     15  C   UNL     1      16.978   9.715   5.102  0.00  0.00    +0.144 C 
BRANCH  15  17
ATOM      1  F   UNL     1      21.756   6.770   5.553  0.00  0.00    -0.205 F 
ATOM     17  C   UNL     1      18.252   8.929   5.222  0.00  0.00    -0.030 A 
ATOM     18  C   UNL     1      18.953   8.918   6.428  0.00  0.00    +0.008 A 
ATOM     19  C   UNL     1      18.735   8.212   4.128  0.00  0.00    +0.008 A 
ATOM     22  C   UNL     1      20.136   8.188   6.540  0.00  0.00    +0.038 A 
ATOM     23  C   UNL     1      19.919   7.483   4.240  0.00  0.00    +0.038 A 
ATOM     24  C   UNL     1      20.620   7.471   5.446  0.00  0.00    +0.123 A 
ENDBRANCH  15  17
ENDBRANCH   5  15
TORSDOF 4
ENDMDL
MODEL 7
REMARK VINA RESULT:      -6.4     27.296     30.137
REMARK  Name = 75537087
REMARK  4 active torsions:
REMARK  status: ('A' for Active; 'I' for Inactive)
REMARK    1  A    between atoms: N_4  and  C_14
REMARK    2  A    between atoms: N_5  and  C_15
REMARK    3  A    between atoms: C_14  and  C_16
REMARK    4  A    between atoms: C_15  and  C_17
REMARK                            x       y       z     vdW  Elec       q    Type
REMARK                         _______ _______ _______ _____ _____    ______ ____
ROOT
ATOM      2  O   UNL     1     -10.427 -11.396  17.999  0.00  0.00    -0.252 OA
ATOM      3  N   UNL     1      -8.231 -11.131  17.210  0.00  0.00    -0.278 N 
ATOM      4  N   UNL     1      -5.439 -11.448  17.058  0.00  0.00    -0.292 NA
ATOM      5  N   UNL     1      -9.529  -9.307  17.372  0.00  0.00    -0.279 N 
ATOM      8  C   UNL     1      -7.432 -10.065  16.639  0.00  0.00    +0.109 C 
ATOM      9  C   UNL     1      -6.016 -10.097  17.213  0.00  0.00    +0.109 C 
ATOM     10  C   UNL     1      -8.229  -8.803  16.965  0.00  0.00    +0.133 C 
ATOM     11  C   UNL     1      -7.695 -12.476  17.244  0.00  0.00    +0.125 C 
ATOM     12  C   UNL     1      -6.256 -12.454  17.767  0.00  0.00    +0.104 C 
ATOM     13  C   UNL     1      -9.512 -10.701  17.576  0.00  0.00    +0.305 C 
ENDROOT
BRANCH   4  14
ATOM     14  C   UNL     1      -4.062 -11.474  17.547  0.00  0.00    +0.158 C 
BRANCH  14  16
ATOM      6  N   UNL     1      -1.738 -11.041  16.729  0.00  0.00    -0.347 N 
ATOM      7  N   UNL     1      -3.341 -10.917  15.198  0.00  0.00    -0.239 NA
ATOM     16  C   UNL     1      -3.075 -11.142  16.465  0.00  0.00    +0.121 A 
ATOM     20  C   UNL     1      -1.111 -10.731  15.554  0.00  0.00    +0.104 A 
ATOM     21  C   UNL     1      -2.121 -10.660  14.625  0.00  0.00    +0.130 A 
ATOM     25  H   UNL     1      -1.291 -11.172  17.627  0.00  0.00    +0.167 HD
ENDBRANCH  14  16
ENDBRANCH   4  14
BRANCH   5  15
ATOM     15  C   UNL     1     -10.636  -8.423  17.667  0.00  0.00    +0.144 C 
BRANCH  15  17
ATOM      1  F   UNL     1     -12.705  -6.021  13.014  0.00  0.00    -0.205 F 
ATOM     17  C   UNL     1     -11.188  -7.782  16.427  0.00  0.00    -0.030 A 
ATOM     18  C   UNL     1     -11.629  -8.577  15.369  0.00  0.00    +0.008 A 
ATOM     19  C   UNL     1     -11.259  -6.392  16.331  0.00  0.00    +0.008 A 
ATOM     22  C   UNL     1     -12.142  -7.982  14.216  0.00  0.00    +0.038 A 
ATOM     23  C   UNL     1     -11.771  -5.798  15.178  0.00  0.00    +0.038 A 
ATOM     24  C   UNL     1     -12.213  -6.592  14.121  0.00  0.00    +0.123 A 
ENDBRANCH  15  17
ENDBRANCH   5  15
TORSDOF 4
ENDMDL
MODEL 8
REMARK VINA RESULT:      -6.2     28.230     31.031
REMARK  Name = 75537087
REMARK  4 active torsions:
REMARK  status: ('A' for Active; 'I' for Inactive)
REMARK    1  A    between atoms: N_4  and  C_14
REMARK    2  A    between atoms: N_5  and  C_15
REMARK    3  A    between atoms: C_14  and  C_16
REMARK    4  A    between atoms: C_15  and  C_17
REMARK                            x       y       z     vdW  Elec       q    Type
REMARK                         _______ _______ _______ _____ _____    ______ ____
ROOT
ATOM      2  O   UNL     1     -12.531  -8.477  13.558  0.00  0.00    -0.252 OA
ATOM      3  N   UNL     1     -10.610  -8.274  14.896  0.00  0.00    -0.278 N 
ATOM      4  N   UNL     1      -8.470  -9.046  16.550  0.00  0.00    -0.292 NA
ATOM      5  N   UNL     1     -12.264  -6.782  15.176  0.00  0.00    -0.279 N 
ATOM      8  C   UNL     1     -10.082  -7.322  15.852  0.00  0.00    +0.109 C 
ATOM      9  C   UNL     1      -9.450  -8.053  17.035  0.00  0.00    +0.109 C 
ATOM     10  C   UNL     1     -11.290  -6.455  16.203  0.00  0.00    +0.133 C 
ATOM     11  C   UNL     1      -9.779  -9.379  14.464  0.00  0.00    +0.125 C 
ATOM     12  C   UNL     1      -9.119 -10.042  15.675  0.00  0.00    +0.104 C 
ATOM     13  C   UNL     1     -11.881  -7.914  14.430  0.00  0.00    +0.305 C 
ENDROOT
BRANCH   4  14
ATOM     14  C   UNL     1      -7.814  -9.707  17.677  0.00  0.00    +0.158 C 
BRANCH  14  16
ATOM      6  N   UNL     1      -5.727 -11.019  18.108  0.00  0.00    -0.347 N 
ATOM      7  N   UNL     1      -5.664  -9.646  16.364  0.00  0.00    -0.239 NA
ATOM     16  C   UNL     1      -6.401 -10.101  17.353  0.00  0.00    +0.121 A 
ATOM     20  C   UNL     1      -4.480 -11.159  17.567  0.00  0.00    +0.104 A 
ATOM     21  C   UNL     1      -4.465 -10.302  16.492  0.00  0.00    +0.130 A 
ATOM     25  H   UNL     1      -6.085 -11.508  18.918  0.00  0.00    +0.167 HD
ENDBRANCH  14  16
ENDBRANCH   4  14
BRANCH   5  15
ATOM     15  C   UNL     1     -13.532  -6.092  15.075  0.00  0.00    +0.144 C 
BRANCH  15  17
ATOM      1  F   UNL     1     -13.744  -2.730  10.564  0.00  0.00    -0.205 F 
ATOM     17  C   UNL     1     -13.588  -5.195  13.872  0.00  0.00    -0.030 A 
ATOM     18  C   UNL     1     -14.806  -4.962  13.233  0.00  0.00    +0.008 A 
ATOM     19  C   UNL     1     -12.423  -4.596  13.394  0.00  0.00    +0.008 A 
ATOM     22  C   UNL     1     -14.859  -4.129  12.116  0.00  0.00    +0.038 A 
ATOM     23  C   UNL     1     -12.476  -3.764  12.275  0.00  0.00    +0.038 A 
ATOM     24  C   UNL     1     -13.693  -3.530  11.637  0.00  0.00    +0.123 A 
ENDBRANCH  15  17
ENDBRANCH   5  15
TORSDOF 4
ENDMDL
MODEL 9
REMARK VINA RESULT:      -6.1     25.556     28.439
REMARK  Name = 75537087
REMARK  4 active torsions:
REMARK  status: ('A' for Active; 'I' for Inactive)
REMARK    1  A    between atoms: N_4  and  C_14
REMARK    2  A    between atoms: N_5  and  C_15
REMARK    3  A    between atoms: C_14  and  C_16
REMARK    4  A    between atoms: C_15  and  C_17
REMARK                            x       y       z     vdW  Elec       q    Type
REMARK                         _______ _______ _______ _____ _____    ______ ____
ROOT
ATOM      2  O   UNL     1     -13.468   9.621  21.124  0.00  0.00    -0.252 OA
ATOM      3  N   UNL     1     -14.213   7.427  21.513  0.00  0.00    -0.278 N 
ATOM      4  N   UNL     1     -15.529   5.288  22.781  0.00  0.00    -0.292 NA
ATOM      5  N   UNL     1     -12.071   7.732  20.917  0.00  0.00    -0.279 N 
ATOM      8  C   UNL     1     -13.685   6.088  21.360  0.00  0.00    +0.109 C 
ATOM      9  C   UNL     1     -14.070   5.223  22.560  0.00  0.00    +0.109 C 
ATOM     10  C   UNL     1     -12.184   6.309  21.182  0.00  0.00    +0.133 C 
ATOM     11  C   UNL     1     -15.604   7.603  21.878  0.00  0.00    +0.125 C 
ATOM     12  C   UNL     1     -15.961   6.676  23.043  0.00  0.00    +0.104 C 
ATOM     13  C   UNL     1     -13.277   8.413  21.175  0.00  0.00    +0.305 C 
ENDROOT
BRANCH   4  14
ATOM     14  C   UNL     1     -15.916   4.416  23.888  0.00  0.00    +0.158 C 
BRANCH  14  16
ATOM      6  N   UNL     1     -16.713   2.370  22.687  0.00  0.00    -0.347 N 
ATOM      7  N   UNL     1     -18.256   3.483  23.832  0.00  0.00    -0.239 NA
ATOM     16  C   UNL     1     -16.988   3.442  23.489  0.00  0.00    +0.121 A 
ATOM     20  C   UNL     1     -17.880   1.683  22.506  0.00  0.00    +0.104 A 
ATOM     21  C   UNL     1     -18.818   2.389  23.222  0.00  0.00    +0.130 A 
ATOM     25  H   UNL     1     -15.810   2.127  22.300  0.00  0.00    +0.167 HD
ENDBRANCH  14  16
ENDBRANCH   4  14
BRANCH   5  15
ATOM     15  C   UNL     1     -10.806   8.351  20.580  0.00  0.00    +0.144 C 
BRANCH  15  17
ATOM      1  F   UNL     1     -10.525   9.728  15.128  0.00  0.00    -0.205 F 
ATOM     17  C   UNL     1     -10.732   8.719  19.126  0.00  0.00    -0.030 A 
ATOM     18  C   UNL     1     -11.149   7.808  18.155  0.00  0.00    +0.008 A 
ATOM     19  C   UNL     1     -10.245   9.969  18.747  0.00  0.00    +0.008 A 
ATOM     22  C   UNL     1     -11.079   8.149  16.804  0.00  0.00    +0.038 A 
ATOM     23  C   UNL     1     -10.175  10.309  17.396  0.00  0.00    +0.038 A 
ATOM     24  C   UNL     1     -10.592   9.400  16.425  0.00  0.00    +0.123 A 
ENDBRANCH  15  17
ENDBRANCH   5  15
TORSDOF 4
ENDMDL
MODEL 10
REMARK VINA RESULT:      -6.1     17.161     20.635
REMARK  Name = 75537087
REMARK  4 active torsions:
REMARK  status: ('A' for Active; 'I' for Inactive)
REMARK    1  A    between atoms: N_4  and  C_14
REMARK    2  A    between atoms: N_5  and  C_15
REMARK    3  A    between atoms: C_14  and  C_16
REMARK    4  A    between atoms: C_15  and  C_17
REMARK                            x       y       z     vdW  Elec       q    Type
REMARK                         _______ _______ _______ _____ _____    ______ ____
ROOT
ATOM      2  O   UNL     1      11.986   7.715   5.023  0.00  0.00    -0.252 OA
ATOM      3  N   UNL     1      12.322   6.272   3.200  0.00  0.00    -0.278 N 
ATOM      4  N   UNL     1      13.167   5.402   0.662  0.00  0.00    -0.292 NA
ATOM      5  N   UNL     1      10.308   6.280   4.193  0.00  0.00    -0.279 N 
ATOM      8  C   UNL     1      11.588   5.212   2.541  0.00  0.00    +0.109 C 
ATOM      9  C   UNL     1      11.737   5.326   1.024  0.00  0.00    +0.109 C 
ATOM     10  C   UNL     1      10.162   5.382   3.061  0.00  0.00    +0.133 C 
ATOM     11  C   UNL     1      13.693   6.531   2.813  0.00  0.00    +0.125 C 
ATOM     12  C   UNL     1      13.807   6.577   1.287  0.00  0.00    +0.104 C 
ATOM     13  C   UNL     1      11.591   6.861   4.240  0.00  0.00    +0.305 C 
ENDROOT
BRANCH   4  14
ATOM     14  C   UNL     1      13.323   5.450  -0.791  0.00  0.00    +0.158 C 
BRANCH  14  16
ATOM      6  N   UNL     1      11.630   4.525  -2.384  0.00  0.00    -0.347 N 
ATOM      7  N   UNL     1      12.848   3.026  -1.289  0.00  0.00    -0.239 NA
ATOM     16  C   UNL     1      12.622   4.308  -1.469  0.00  0.00    +0.121 A 
ATOM     20  C   UNL     1      11.195   3.303  -2.815  0.00  0.00    +0.104 A 
ATOM     21  C   UNL     1      11.962   2.394  -2.125  0.00  0.00    +0.130 A 
ATOM     25  H   UNL     1      11.281   5.424  -2.689  0.00  0.00    +0.167 HD
ENDBRANCH  14  16
ENDBRANCH   4  14
BRANCH   5  15
ATOM     15  C   UNL     1       9.193   6.622   5.049  0.00  0.00    +0.144 C 
BRANCH  15  17
ATOM      1  F   UNL     1       9.684   4.319  10.163  0.00  0.00    -0.205 F 
ATOM     17  C   UNL     1       9.324   6.007   6.413  0.00  0.00    -0.030 A 
ATOM     18  C   UNL     1       9.021   6.760   7.548  0.00  0.00    +0.008 A 
ATOM     19  C   UNL     1       9.749   4.686   6.544  0.00  0.00    +0.008 A 
ATOM     22  C   UNL     1       9.143   6.189   8.815  0.00  0.00    +0.038 A 
ATOM     23  C   UNL     1       9.871   4.116   7.812  0.00  0.00    +0.038 A 
ATOM     24  C   UNL     1       9.568   4.867   8.947  0.00  0.00    +0.123 A 
ENDBRANCH  15  17
ENDBRANCH   5  15
TORSDOF 4
ENDMDL
