MODEL 1
REMARK VINA RESULT:      -6.2      0.000      0.000
REMARK  Name = 71693886
REMARK  9 active torsions:
REMARK  status: ('A' for Active; 'I' for Inactive)
REMARK    1  A    between atoms: O_1  and  C_9
REMARK    2  A    between atoms: O_2  and  C_11
REMARK    3  A    between atoms: O_4  and  C_18
REMARK    4  A    between atoms: O_4  and  C_20
REMARK    5  A    between atoms: O_5  and  C_19
REMARK    6  A    between atoms: O_5  and  C_21
REMARK    7  A    between atoms: N_6  and  C_8
REMARK    8  A    between atoms: C_7  and  C_12
REMARK    9  A    between atoms: C_15  and  C_18
REMARK                            x       y       z     vdW  Elec       q    Type
REMARK                         _______ _______ _______ _____ _____    ______ ____
ROOT
ATOM      7  C   UNL     1      14.120   8.980  18.930  0.00  0.00    +0.044 C 
ATOM      8  C   UNL     1      12.870   8.800  19.822  0.00  0.00    +0.111 C 
ATOM      9  C   UNL     1      11.708   8.974  18.845  0.00  0.00    +0.164 C 
ATOM     10  C   UNL     1      13.658   8.654  17.485  0.00  0.00    +0.044 C 
ATOM     11  C   UNL     1      12.191   8.243  17.598  0.00  0.00    +0.145 C 
ENDROOT
BRANCH   7  12
ATOM     12  C   UNL     1      15.308   8.168  19.403  0.00  0.00    -0.042 A 
ATOM     13  C   UNL     1      15.517   6.883  18.904  0.00  0.00    +0.007 A 
ATOM     14  C   UNL     1      16.192   8.707  20.337  0.00  0.00    +0.007 A 
ATOM     16  C   UNL     1      16.609   6.135  19.340  0.00  0.00    +0.046 A 
ATOM     17  C   UNL     1      17.286   7.958  20.773  0.00  0.00    +0.046 A 
ATOM     19  C   UNL     1      17.495   6.673  20.275  0.00  0.00    +0.120 A 
BRANCH  19   5
ATOM      5  O   UNL     1      18.561   5.943  20.701  0.00  0.00    -0.495 OA
ATOM     21  C   UNL     1      19.481   6.589  21.579  0.00  0.00    +0.277 C 
ENDBRANCH  19   5
ENDBRANCH   7  12
BRANCH   8   6
ATOM      3  O   UNL     1      11.429   8.578  22.319  0.00  0.00    -0.273 OA
ATOM      6  N   UNL     1      12.825   9.766  20.889  0.00  0.00    -0.307 N 
ATOM     15  C   UNL     1      12.102   9.571  22.057  0.00  0.00    +0.239 C 
ATOM     22  H   UNL     1      13.394  10.605  20.800  0.00  0.00    +0.149 HD
BRANCH  15  18
ATOM     18  C   UNL     1      12.233  10.744  23.005  0.00  0.00    +0.255 C 
BRANCH  18   4
ATOM      4  O   UNL     1      11.031  11.483  23.054  0.00  0.00    -0.374 OA
ATOM     20  C   UNL     1      11.053  12.594  22.164  0.00  0.00    +0.194 C 
ENDBRANCH  18   4
ENDBRANCH  15  18
ENDBRANCH   8   6
BRANCH   9   1
ATOM      1  O   UNL     1      10.507   8.409  19.336  0.00  0.00    -0.387 OA
ATOM     23  H   UNL     1       9.793   8.668  18.727  0.00  0.00    +0.210 HD
ENDBRANCH   9   1
BRANCH  11   2
ATOM      2  O   UNL     1      12.125   6.831  17.776  0.00  0.00    -0.389 OA
ATOM     24  H   UNL     1      13.003   6.469  17.567  0.00  0.00    +0.210 HD
ENDBRANCH  11   2
TORSDOF 7
ENDMDL
MODEL 2
REMARK VINA RESULT:      -5.9      2.344      5.676
REMARK  Name = 71693886
REMARK  9 active torsions:
REMARK  status: ('A' for Active; 'I' for Inactive)
REMARK    1  A    between atoms: O_1  and  C_9
REMARK    2  A    between atoms: O_2  and  C_11
REMARK    3  A    between atoms: O_4  and  C_18
REMARK    4  A    between atoms: O_4  and  C_20
REMARK    5  A    between atoms: O_5  and  C_19
REMARK    6  A    between atoms: O_5  and  C_21
REMARK    7  A    between atoms: N_6  and  C_8
REMARK    8  A    between atoms: C_7  and  C_12
REMARK    9  A    between atoms: C_15  and  C_18
REMARK                            x       y       z     vdW  Elec       q    Type
REMARK                         _______ _______ _______ _____ _____    ______ ____
ROOT
ATOM      7  C   UNL     1      13.140   8.640  20.269  0.00  0.00    +0.044 C 
ATOM      8  C   UNL     1      13.083   7.103  20.419  0.00  0.00    +0.111 C 
ATOM      9  C   UNL     1      12.256   6.900  21.688  0.00  0.00    +0.164 C 
ATOM     10  C   UNL     1      11.915   9.187  21.048  0.00  0.00    +0.044 C 
ATOM     11  C   UNL     1      11.167   7.959  21.564  0.00  0.00    +0.145 C 
ENDROOT
BRANCH   7  12
ATOM     12  C   UNL     1      13.213   9.092  18.825  0.00  0.00    -0.042 A 
ATOM     13  C   UNL     1      14.364   9.720  18.348  0.00  0.00    +0.007 A 
ATOM     14  C   UNL     1      12.129   8.881  17.973  0.00  0.00    +0.007 A 
ATOM     16  C   UNL     1      14.431  10.137  17.019  0.00  0.00    +0.046 A 
ATOM     17  C   UNL     1      12.197   9.298  16.643  0.00  0.00    +0.046 A 
ATOM     19  C   UNL     1      13.347   9.925  16.166  0.00  0.00    +0.120 A 
BRANCH  19   5
ATOM      5  O   UNL     1      13.412  10.333  14.870  0.00  0.00    -0.495 OA
ATOM     21  C   UNL     1      13.897  11.652  14.628  0.00  0.00    +0.277 C 
ENDBRANCH  19   5
ENDBRANCH   7  12
BRANCH   8   6
ATOM      3  O   UNL     1      15.301   8.099  21.984  0.00  0.00    -0.273 OA
ATOM      6  N   UNL     1      14.396   6.523  20.534  0.00  0.00    -0.307 N 
ATOM     15  C   UNL     1      15.402   7.075  21.314  0.00  0.00    +0.239 C 
ATOM     22  H   UNL     1      14.573   5.639  20.062  0.00  0.00    +0.149 HD
BRANCH  15  18
ATOM     18  C   UNL     1      16.677   6.261  21.252  0.00  0.00    +0.255 C 
BRANCH  18   4
ATOM      4  O   UNL     1      17.537   6.755  20.249  0.00  0.00    -0.374 OA
ATOM     20  C   UNL     1      17.642   5.857  19.148  0.00  0.00    +0.194 C 
ENDBRANCH  18   4
ENDBRANCH  15  18
ENDBRANCH   8   6
BRANCH   9   1
ATOM      1  O   UNL     1      11.700   5.601  21.763  0.00  0.00    -0.387 OA
ATOM     23  H   UNL     1      12.371   5.019  22.160  0.00  0.00    +0.210 HD
ENDBRANCH   9   1
BRANCH  11   2
ATOM      2  O   UNL     1      10.192   7.578  20.598  0.00  0.00    -0.389 OA
ATOM     24  H   UNL     1      10.114   8.308  19.959  0.00  0.00    +0.210 HD
ENDBRANCH  11   2
TORSDOF 7
ENDMDL
MODEL 3
REMARK VINA RESULT:      -5.6      2.141      2.769
REMARK  Name = 71693886
REMARK  9 active torsions:
REMARK  status: ('A' for Active; 'I' for Inactive)
REMARK    1  A    between atoms: O_1  and  C_9
REMARK    2  A    between atoms: O_2  and  C_11
REMARK    3  A    between atoms: O_4  and  C_18
REMARK    4  A    between atoms: O_4  and  C_20
REMARK    5  A    between atoms: O_5  and  C_19
REMARK    6  A    between atoms: O_5  and  C_21
REMARK    7  A    between atoms: N_6  and  C_8
REMARK    8  A    between atoms: C_7  and  C_12
REMARK    9  A    between atoms: C_15  and  C_18
REMARK                            x       y       z     vdW  Elec       q    Type
REMARK                         _______ _______ _______ _____ _____    ______ ____
ROOT
ATOM      7  C   UNL     1      14.272   8.656  19.415  0.00  0.00    +0.044 C 
ATOM      8  C   UNL     1      13.281   7.510  19.108  0.00  0.00    +0.111 C 
ATOM      9  C   UNL     1      12.458   8.055  17.942  0.00  0.00    +0.164 C 
ATOM     10  C   UNL     1      14.374   9.487  18.109  0.00  0.00    +0.044 C 
ATOM     11  C   UNL     1      13.498   8.767  17.087  0.00  0.00    +0.145 C 
ENDROOT
BRANCH   7  12
ATOM     12  C   UNL     1      15.602   8.163  19.947  0.00  0.00    -0.042 A 
ATOM     13  C   UNL     1      16.106   6.931  19.531  0.00  0.00    +0.007 A 
ATOM     14  C   UNL     1      16.322   8.941  20.853  0.00  0.00    +0.007 A 
ATOM     16  C   UNL     1      17.329   6.476  20.021  0.00  0.00    +0.046 A 
ATOM     17  C   UNL     1      17.547   8.487  21.343  0.00  0.00    +0.046 A 
ATOM     19  C   UNL     1      18.051   7.255  20.926  0.00  0.00    +0.120 A 
BRANCH  19   5
ATOM      5  O   UNL     1      19.244   6.811  21.405  0.00  0.00    -0.495 OA
ATOM     21  C   UNL     1      20.210   6.385  20.446  0.00  0.00    +0.277 C 
ENDBRANCH  19   5
ENDBRANCH   7  12
BRANCH   8   6
ATOM      3  O   UNL     1      10.644   8.538  19.699  0.00  0.00    -0.273 OA
ATOM      6  N   UNL     1      12.458   7.189  20.245  0.00  0.00    -0.307 N 
ATOM     15  C   UNL     1      11.198   7.735  20.446  0.00  0.00    +0.239 C 
ATOM     22  H   UNL     1      12.797   6.490  20.901  0.00  0.00    +0.149 HD
BRANCH  15  18
ATOM     18  C   UNL     1      10.556   7.224  21.718  0.00  0.00    +0.255 C 
BRANCH  18   4
ATOM      4  O   UNL     1      11.215   6.064  22.177  0.00  0.00    -0.374 OA
ATOM     20  C   UNL     1      10.583   4.874  21.713  0.00  0.00    +0.194 C 
ENDBRANCH  18   4
ENDBRANCH  15  18
ENDBRANCH   8   6
BRANCH   9   1
ATOM      1  O   UNL     1      11.814   7.026  17.214  0.00  0.00    -0.387 OA
ATOM     23  H   UNL     1      10.857   7.199  17.249  0.00  0.00    +0.210 HD
ENDBRANCH   9   1
BRANCH  11   2
ATOM      2  O   UNL     1      14.301   7.831  16.375  0.00  0.00    -0.389 OA
ATOM     24  H   UNL     1      13.871   7.669  15.517  0.00  0.00    +0.210 HD
ENDBRANCH  11   2
TORSDOF 7
ENDMDL
MODEL 4
REMARK VINA RESULT:      -5.4      2.808      6.185
REMARK  Name = 71693886
REMARK  9 active torsions:
REMARK  status: ('A' for Active; 'I' for Inactive)
REMARK    1  A    between atoms: O_1  and  C_9
REMARK    2  A    between atoms: O_2  and  C_11
REMARK    3  A    between atoms: O_4  and  C_18
REMARK    4  A    between atoms: O_4  and  C_20
REMARK    5  A    between atoms: O_5  and  C_19
REMARK    6  A    between atoms: O_5  and  C_21
REMARK    7  A    between atoms: N_6  and  C_8
REMARK    8  A    between atoms: C_7  and  C_12
REMARK    9  A    between atoms: C_15  and  C_18
REMARK                            x       y       z     vdW  Elec       q    Type
REMARK                         _______ _______ _______ _____ _____    ______ ____
ROOT
ATOM      7  C   UNL     1      13.677   9.150  20.723  0.00  0.00    +0.044 C 
ATOM      8  C   UNL     1      12.736   8.468  19.704  0.00  0.00    +0.111 C 
ATOM      9  C   UNL     1      13.151   6.999  19.764  0.00  0.00    +0.164 C 
ATOM     10  C   UNL     1      14.126   8.029  21.698  0.00  0.00    +0.044 C 
ATOM     11  C   UNL     1      13.391   6.768  21.251  0.00  0.00    +0.145 C 
ENDROOT
BRANCH   7  12
ATOM     12  C   UNL     1      13.048  10.350  21.400  0.00  0.00    -0.042 A 
ATOM     13  C   UNL     1      11.692  10.337  21.724  0.00  0.00    +0.007 A 
ATOM     14  C   UNL     1      13.826  11.469  21.699  0.00  0.00    +0.007 A 
ATOM     16  C   UNL     1      11.113  11.442  22.346  0.00  0.00    +0.046 A 
ATOM     17  C   UNL     1      13.246  12.574  22.321  0.00  0.00    +0.046 A 
ATOM     19  C   UNL     1      11.890  12.561  22.646  0.00  0.00    +0.120 A 
BRANCH  19   5
ATOM      5  O   UNL     1      11.324  13.640  23.252  0.00  0.00    -0.495 OA
ATOM     21  C   UNL     1      11.516  13.767  24.660  0.00  0.00    +0.277 C 
ENDBRANCH  19   5
ENDBRANCH   7  12
BRANCH   8   6
ATOM      3  O   UNL     1      10.877   8.247  17.500  0.00  0.00    -0.273 OA
ATOM      6  N   UNL     1      12.887   9.016  18.380  0.00  0.00    -0.307 N 
ATOM     15  C   UNL     1      11.936   8.857  17.382  0.00  0.00    +0.239 C 
ATOM     22  H   UNL     1      13.705   9.589  18.189  0.00  0.00    +0.149 HD
BRANCH  15  18
ATOM     18  C   UNL     1      12.351   9.536  16.094  0.00  0.00    +0.255 C 
BRANCH  18   4
ATOM      4  O   UNL     1      13.049   8.637  15.259  0.00  0.00    -0.374 OA
ATOM     20  C   UNL     1      14.460   8.761  15.406  0.00  0.00    +0.194 C 
ENDBRANCH  18   4
ENDBRANCH  15  18
ENDBRANCH   8   6
BRANCH   9   1
ATOM      1  O   UNL     1      12.144   6.137  19.268  0.00  0.00    -0.387 OA
ATOM     23  H   UNL     1      12.074   5.386  19.883  0.00  0.00    +0.210 HD
ENDBRANCH   9   1
BRANCH  11   2
ATOM      2  O   UNL     1      12.158   6.682  21.960  0.00  0.00    -0.389 OA
ATOM     24  H   UNL     1      11.983   5.739  22.126  0.00  0.00    +0.210 HD
ENDBRANCH  11   2
TORSDOF 7
ENDMDL
MODEL 5
REMARK VINA RESULT:      -5.4     13.969     16.985
REMARK  Name = 71693886
REMARK  9 active torsions:
REMARK  status: ('A' for Active; 'I' for Inactive)
REMARK    1  A    between atoms: O_1  and  C_9
REMARK    2  A    between atoms: O_2  and  C_11
REMARK    3  A    between atoms: O_4  and  C_18
REMARK    4  A    between atoms: O_4  and  C_20
REMARK    5  A    between atoms: O_5  and  C_19
REMARK    6  A    between atoms: O_5  and  C_21
REMARK    7  A    between atoms: N_6  and  C_8
REMARK    8  A    between atoms: C_7  and  C_12
REMARK    9  A    between atoms: C_15  and  C_18
REMARK                            x       y       z     vdW  Elec       q    Type
REMARK                         _______ _______ _______ _____ _____    ______ ____
ROOT
ATOM      7  C   UNL     1      10.083   6.302   4.960  0.00  0.00    +0.044 C 
ATOM      8  C   UNL     1      11.377   6.275   5.805  0.00  0.00    +0.111 C 
ATOM      9  C   UNL     1      10.863   6.143   7.238  0.00  0.00    +0.164 C 
ATOM     10  C   UNL     1       8.998   5.611   5.827  0.00  0.00    +0.044 C 
ATOM     11  C   UNL     1       9.707   5.160   7.102  0.00  0.00    +0.145 C 
ENDROOT
BRANCH   7  12
ATOM     12  C   UNL     1      10.262   5.695   3.583  0.00  0.00    -0.042 A 
ATOM     13  C   UNL     1      10.824   4.426   3.448  0.00  0.00    +0.007 A 
ATOM     14  C   UNL     1       9.864   6.406   2.451  0.00  0.00    +0.007 A 
ATOM     16  C   UNL     1      10.989   3.868   2.182  0.00  0.00    +0.046 A 
ATOM     17  C   UNL     1      10.029   5.847   1.184  0.00  0.00    +0.046 A 
ATOM     19  C   UNL     1      10.591   4.578   1.049  0.00  0.00    +0.120 A 
BRANCH  19   5
ATOM      5  O   UNL     1      10.753   4.033  -0.187  0.00  0.00    -0.495 OA
ATOM     21  C   UNL     1      12.085   3.719  -0.589  0.00  0.00    +0.277 C 
ENDBRANCH  19   5
ENDBRANCH   7  12
BRANCH   8   6
ATOM      3  O   UNL     1      14.101   6.716   6.673  0.00  0.00    -0.273 OA
ATOM      6  N   UNL     1      12.166   7.466   5.623  0.00  0.00    -0.307 N 
ATOM     15  C   UNL     1      13.472   7.587   6.077  0.00  0.00    +0.239 C 
ATOM     22  H   UNL     1      11.760   8.233   5.092  0.00  0.00    +0.149 HD
BRANCH  15  18
ATOM     18  C   UNL     1      14.060   8.943   5.751  0.00  0.00    +0.255 C 
BRANCH  18   4
ATOM      4  O   UNL     1      15.396   8.816   5.314  0.00  0.00    -0.374 OA
ATOM     20  C   UNL     1      15.474   8.522   3.922  0.00  0.00    +0.194 C 
ENDBRANCH  18   4
ENDBRANCH  15  18
ENDBRANCH   8   6
BRANCH   9   1
ATOM      1  O   UNL     1      11.854   5.649   8.119  0.00  0.00    -0.387 OA
ATOM     23  H   UNL     1      11.670   6.017   9.001  0.00  0.00    +0.210 HD
ENDBRANCH   9   1
BRANCH  11   2
ATOM      2  O   UNL     1      10.186   3.832   6.913  0.00  0.00    -0.389 OA
ATOM     24  H   UNL     1      10.573   3.539   7.756  0.00  0.00    +0.210 HD
ENDBRANCH  11   2
TORSDOF 7
ENDMDL
MODEL 6
REMARK VINA RESULT:      -5.3     26.391     27.902
REMARK  Name = 71693886
REMARK  9 active torsions:
REMARK  status: ('A' for Active; 'I' for Inactive)
REMARK    1  A    between atoms: O_1  and  C_9
REMARK    2  A    between atoms: O_2  and  C_11
REMARK    3  A    between atoms: O_4  and  C_18
REMARK    4  A    between atoms: O_4  and  C_20
REMARK    5  A    between atoms: O_5  and  C_19
REMARK    6  A    between atoms: O_5  and  C_21
REMARK    7  A    between atoms: N_6  and  C_8
REMARK    8  A    between atoms: C_7  and  C_12
REMARK    9  A    between atoms: C_15  and  C_18
REMARK                            x       y       z     vdW  Elec       q    Type
REMARK                         _______ _______ _______ _____ _____    ______ ____
ROOT
ATOM      7  C   UNL     1      -3.386 -10.385  15.707  0.00  0.00    +0.044 C 
ATOM      8  C   UNL     1      -3.943 -10.888  14.355  0.00  0.00    +0.111 C 
ATOM      9  C   UNL     1      -2.686 -11.226  13.556  0.00  0.00    +0.164 C 
ATOM     10  C   UNL     1      -1.967 -10.999  15.833  0.00  0.00    +0.044 C 
ATOM     11  C   UNL     1      -1.779 -11.873  14.595  0.00  0.00    +0.145 C 
ENDROOT
BRANCH   7  12
ATOM     12  C   UNL     1      -4.302 -10.687  16.875  0.00  0.00    -0.042 A 
ATOM     13  C   UNL     1      -3.883 -11.554  17.884  0.00  0.00    +0.007 A 
ATOM     14  C   UNL     1      -5.565 -10.098  16.941  0.00  0.00    +0.007 A 
ATOM     16  C   UNL     1      -4.727 -11.833  18.958  0.00  0.00    +0.046 A 
ATOM     17  C   UNL     1      -6.408 -10.376  18.016  0.00  0.00    +0.046 A 
ATOM     19  C   UNL     1      -5.989 -11.243  19.025  0.00  0.00    +0.120 A 
BRANCH  19   5
ATOM      5  O   UNL     1      -6.813 -11.516  20.073  0.00  0.00    -0.495 OA
ATOM     21  C   UNL     1      -7.757 -12.571  19.899  0.00  0.00    +0.277 C 
ENDBRANCH  19   5
ENDBRANCH   7  12
BRANCH   8   6
ATOM      3  O   UNL     1      -5.958 -11.326  12.327  0.00  0.00    -0.273 OA
ATOM      6  N   UNL     1      -4.747  -9.890  13.698  0.00  0.00    -0.307 N 
ATOM     15  C   UNL     1      -5.694 -10.196  12.731  0.00  0.00    +0.239 C 
ATOM     22  H   UNL     1      -4.649  -8.923  13.997  0.00  0.00    +0.149 HD
BRANCH  15  18
ATOM     18  C   UNL     1      -6.391  -8.958  12.210  0.00  0.00    +0.255 C 
BRANCH  18   4
ATOM      4  O   UNL     1      -6.265  -8.866  10.808  0.00  0.00    -0.374 OA
ATOM     20  C   UNL     1      -5.003  -8.330  10.421  0.00  0.00    +0.194 C 
ENDBRANCH  18   4
ENDBRANCH  15  18
ENDBRANCH   8   6
BRANCH   9   1
ATOM      1  O   UNL     1      -2.953 -12.114  12.486  0.00  0.00    -0.387 OA
ATOM     23  H   UNL     1      -3.856 -12.456  12.610  0.00  0.00    +0.210 HD
ENDBRANCH   9   1
BRANCH  11   2
ATOM      2  O   UNL     1      -2.212 -13.196  14.899  0.00  0.00    -0.389 OA
ATOM     24  H   UNL     1      -1.780 -13.461  15.729  0.00  0.00    +0.210 HD
ENDBRANCH  11   2
TORSDOF 7
ENDMDL
MODEL 7
REMARK VINA RESULT:      -5.1     26.884     28.651
REMARK  Name = 71693886
REMARK  9 active torsions:
REMARK  status: ('A' for Active; 'I' for Inactive)
REMARK    1  A    between atoms: O_1  and  C_9
REMARK    2  A    between atoms: O_2  and  C_11
REMARK    3  A    between atoms: O_4  and  C_18
REMARK    4  A    between atoms: O_4  and  C_20
REMARK    5  A    between atoms: O_5  and  C_19
REMARK    6  A    between atoms: O_5  and  C_21
REMARK    7  A    between atoms: N_6  and  C_8
REMARK    8  A    between atoms: C_7  and  C_12
REMARK    9  A    between atoms: C_15  and  C_18
REMARK                            x       y       z     vdW  Elec       q    Type
REMARK                         _______ _______ _______ _____ _____    ______ ____
ROOT
ATOM      7  C   UNL     1      -7.547 -11.298  17.468  0.00  0.00    +0.044 C 
ATOM      8  C   UNL     1      -8.065 -10.258  18.487  0.00  0.00    +0.111 C 
ATOM      9  C   UNL     1      -9.223 -10.980  19.174  0.00  0.00    +0.164 C 
ATOM     10  C   UNL     1      -7.995 -12.680  18.010  0.00  0.00    +0.044 C 
ATOM     11  C   UNL     1      -8.696 -12.400  19.338  0.00  0.00    +0.145 C 
ENDROOT
BRANCH   7  12
ATOM     12  C   UNL     1      -6.059 -11.182  17.208  0.00  0.00    -0.042 A 
ATOM     13  C   UNL     1      -5.599 -10.735  15.970  0.00  0.00    +0.007 A 
ATOM     14  C   UNL     1      -5.148 -11.523  18.209  0.00  0.00    +0.007 A 
ATOM     16  C   UNL     1      -4.230 -10.629  15.731  0.00  0.00    +0.046 A 
ATOM     17  C   UNL     1      -3.778 -11.417  17.969  0.00  0.00    +0.046 A 
ATOM     19  C   UNL     1      -3.319 -10.970  16.731  0.00  0.00    +0.120 A 
BRANCH  19   5
ATOM      5  O   UNL     1      -1.983 -10.867  16.497  0.00  0.00    -0.495 OA
ATOM     21  C   UNL     1      -1.583 -10.296  15.252  0.00  0.00    +0.277 C 
ENDBRANCH  19   5
ENDBRANCH   7  12
BRANCH   8   6
ATOM      3  O   UNL     1     -10.204  -9.961  16.562  0.00  0.00    -0.273 OA
ATOM      6  N   UNL     1      -8.496  -9.042  17.845  0.00  0.00    -0.307 N 
ATOM     15  C   UNL     1      -9.537  -8.997  16.929  0.00  0.00    +0.239 C 
ATOM     22  H   UNL     1      -8.047  -8.171  18.118  0.00  0.00    +0.149 HD
BRANCH  15  18
ATOM     18  C   UNL     1      -9.776  -7.593  16.413  0.00  0.00    +0.255 C 
BRANCH  18   4
ATOM      4  O   UNL     1     -10.974  -7.065  16.940  0.00  0.00    -0.374 OA
ATOM     20  C   UNL     1     -11.492  -6.014  16.131  0.00  0.00    +0.194 C 
ENDBRANCH  18   4
ENDBRANCH  15  18
ENDBRANCH   8   6
BRANCH   9   1
ATOM      1  O   UNL     1      -9.544 -10.406  20.428  0.00  0.00    -0.387 OA
ATOM     23  H   UNL     1      -9.846 -11.125  21.009  0.00  0.00    +0.210 HD
ENDBRANCH   9   1
BRANCH  11   2
ATOM      2  O   UNL     1      -7.734 -12.470  20.386  0.00  0.00    -0.389 OA
ATOM     24  H   UNL     1      -7.186 -13.258  20.228  0.00  0.00    +0.210 HD
ENDBRANCH  11   2
TORSDOF 7
ENDMDL
MODEL 8
REMARK VINA RESULT:      -5.0     12.511     15.882
REMARK  Name = 71693886
REMARK  9 active torsions:
REMARK  status: ('A' for Active; 'I' for Inactive)
REMARK    1  A    between atoms: O_1  and  C_9
REMARK    2  A    between atoms: O_2  and  C_11
REMARK    3  A    between atoms: O_4  and  C_18
REMARK    4  A    between atoms: O_4  and  C_20
REMARK    5  A    between atoms: O_5  and  C_19
REMARK    6  A    between atoms: O_5  and  C_21
REMARK    7  A    between atoms: N_6  and  C_8
REMARK    8  A    between atoms: C_7  and  C_12
REMARK    9  A    between atoms: C_15  and  C_18
REMARK                            x       y       z     vdW  Elec       q    Type
REMARK                         _______ _______ _______ _____ _____    ______ ____
ROOT
ATOM      7  C   UNL     1      11.330   7.232   4.859  0.00  0.00    +0.044 C 
ATOM      8  C   UNL     1      11.840   7.061   6.309  0.00  0.00    +0.111 C 
ATOM      9  C   UNL     1      13.359   7.014   6.148  0.00  0.00    +0.164 C 
ATOM     10  C   UNL     1      12.511   7.853   4.067  0.00  0.00    +0.044 C 
ATOM     11  C   UNL     1      13.627   8.073   5.085  0.00  0.00    +0.145 C 
ENDROOT
BRANCH   7  12
ATOM     12  C   UNL     1      10.039   8.020   4.775  0.00  0.00    -0.042 A 
ATOM     13  C   UNL     1       9.922   9.240   5.441  0.00  0.00    +0.007 A 
ATOM     14  C   UNL     1       8.968   7.526   4.030  0.00  0.00    +0.007 A 
ATOM     16  C   UNL     1       8.733   9.964   5.364  0.00  0.00    +0.046 A 
ATOM     17  C   UNL     1       7.780   8.251   3.953  0.00  0.00    +0.046 A 
ATOM     19  C   UNL     1       7.662   9.471   4.619  0.00  0.00    +0.120 A 
BRANCH  19   5
ATOM      5  O   UNL     1       6.502  10.178   4.544  0.00  0.00    -0.495 OA
ATOM     21  C   UNL     1       5.832  10.195   3.285  0.00  0.00    +0.277 C 
ENDBRANCH  19   5
ENDBRANCH   7  12
BRANCH   8   6
ATOM      3  O   UNL     1       9.537   6.838   8.044  0.00  0.00    -0.273 OA
ATOM      6  N   UNL     1      11.327   5.864   6.923  0.00  0.00    -0.307 N 
ATOM     15  C   UNL     1      10.209   5.854   7.746  0.00  0.00    +0.239 C 
ATOM     22  H   UNL     1      11.776   4.979   6.699  0.00  0.00    +0.149 HD
BRANCH  15  18
ATOM     18  C   UNL     1       9.893   4.464   8.253  0.00  0.00    +0.255 C 
BRANCH  18   4
ATOM      4  O   UNL     1      10.094   4.383   9.648  0.00  0.00    -0.374 OA
ATOM     20  C   UNL     1       8.878   4.551  10.371  0.00  0.00    +0.194 C 
ENDBRANCH  18   4
ENDBRANCH  15  18
ENDBRANCH   8   6
BRANCH   9   1
ATOM      1  O   UNL     1      14.035   7.317   7.354  0.00  0.00    -0.387 OA
ATOM     23  H   UNL     1      14.601   8.090   7.185  0.00  0.00    +0.210 HD
ENDBRANCH   9   1
BRANCH  11   2
ATOM      2  O   UNL     1      13.500   9.384   5.628  0.00  0.00    -0.389 OA
ATOM     24  H   UNL     1      12.759   9.368   6.257  0.00  0.00    +0.210 HD
ENDBRANCH  11   2
TORSDOF 7
ENDMDL
MODEL 9
REMARK VINA RESULT:      -4.9     15.237     18.392
REMARK  Name = 71693886
REMARK  9 active torsions:
REMARK  status: ('A' for Active; 'I' for Inactive)
REMARK    1  A    between atoms: O_1  and  C_9
REMARK    2  A    between atoms: O_2  and  C_11
REMARK    3  A    between atoms: O_4  and  C_18
REMARK    4  A    between atoms: O_4  and  C_20
REMARK    5  A    between atoms: O_5  and  C_19
REMARK    6  A    between atoms: O_5  and  C_21
REMARK    7  A    between atoms: N_6  and  C_8
REMARK    8  A    between atoms: C_7  and  C_12
REMARK    9  A    between atoms: C_15  and  C_18
REMARK                            x       y       z     vdW  Elec       q    Type
REMARK                         _______ _______ _______ _____ _____    ______ ____
ROOT
ATOM      7  C   UNL     1      12.673   6.836   3.013  0.00  0.00    +0.044 C 
ATOM      8  C   UNL     1      13.267   5.669   2.191  0.00  0.00    +0.111 C 
ATOM      9  C   UNL     1      14.609   6.219   1.710  0.00  0.00    +0.164 C 
ATOM     10  C   UNL     1      13.883   7.703   3.449  0.00  0.00    +0.044 C 
ATOM     11  C   UNL     1      15.123   6.984   2.923  0.00  0.00    +0.145 C 
ENDROOT
BRANCH   7  12
ATOM     12  C   UNL     1      11.796   6.369   4.156  0.00  0.00    -0.042 A 
ATOM     13  C   UNL     1      11.994   6.877   5.440  0.00  0.00    +0.007 A 
ATOM     14  C   UNL     1      10.790   5.430   3.925  0.00  0.00    +0.007 A 
ATOM     16  C   UNL     1      11.188   6.447   6.492  0.00  0.00    +0.046 A 
ATOM     17  C   UNL     1       9.983   5.001   4.978  0.00  0.00    +0.046 A 
ATOM     19  C   UNL     1      10.181   5.509   6.262  0.00  0.00    +0.120 A 
BRANCH  19   5
ATOM      5  O   UNL     1       9.395   5.089   7.289  0.00  0.00    -0.495 OA
ATOM     21  C   UNL     1       9.939   5.183   8.604  0.00  0.00    +0.277 C 
ENDBRANCH  19   5
ENDBRANCH   7  12
BRANCH   8   6
ATOM      3  O   UNL     1      13.078   3.071   0.934  0.00  0.00    -0.273 OA
ATOM      6  N   UNL     1      12.414   5.294   1.093  0.00  0.00    -0.307 N 
ATOM     15  C   UNL     1      12.392   4.015   0.553  0.00  0.00    +0.239 C 
ATOM     22  H   UNL     1      11.762   5.986   0.734  0.00  0.00    +0.149 HD
BRANCH  15  18
ATOM     18  C   UNL     1      11.405   3.901  -0.589  0.00  0.00    +0.255 C 
BRANCH  18   4
ATOM      4  O   UNL     1      10.149   4.427  -0.217  0.00  0.00    -0.374 OA
ATOM     20  C   UNL     1       9.657   5.357  -1.177  0.00  0.00    +0.194 C 
ENDBRANCH  18   4
ENDBRANCH  15  18
ENDBRANCH   8   6
BRANCH   9   1
ATOM      1  O   UNL     1      15.506   5.191   1.335  0.00  0.00    -0.387 OA
ATOM     23  H   UNL     1      15.243   4.883   0.450  0.00  0.00    +0.210 HD
ENDBRANCH   9   1
BRANCH  11   2
ATOM      2  O   UNL     1      15.595   6.092   3.927  0.00  0.00    -0.389 OA
ATOM     24  H   UNL     1      15.102   6.284   4.743  0.00  0.00    +0.210 HD
ENDBRANCH  11   2
TORSDOF 7
ENDMDL
MODEL 10
REMARK VINA RESULT:      -4.7     14.114     16.778
REMARK  Name = 71693886
REMARK  9 active torsions:
REMARK  status: ('A' for Active; 'I' for Inactive)
REMARK    1  A    between atoms: O_1  and  C_9
REMARK    2  A    between atoms: O_2  and  C_11
REMARK    3  A    between atoms: O_4  and  C_18
REMARK    4  A    between atoms: O_4  and  C_20
REMARK    5  A    between atoms: O_5  and  C_19
REMARK    6  A    between atoms: O_5  and  C_21
REMARK    7  A    between atoms: N_6  and  C_8
REMARK    8  A    between atoms: C_7  and  C_12
REMARK    9  A    between atoms: C_15  and  C_18
REMARK                            x       y       z     vdW  Elec       q    Type
REMARK                         _______ _______ _______ _____ _____    ______ ____
ROOT
ATOM      7  C   UNL     1       9.671   5.175   5.089  0.00  0.00    +0.044 C 
ATOM      8  C   UNL     1       9.495   6.583   5.703  0.00  0.00    +0.111 C 
ATOM      9  C   UNL     1       9.087   6.293   7.147  0.00  0.00    +0.164 C 
ATOM     10  C   UNL     1       9.942   4.224   6.284  0.00  0.00    +0.044 C 
ATOM     11  C   UNL     1       9.973   5.113   7.526  0.00  0.00    +0.145 C 
ENDROOT
BRANCH   7  12
ATOM     12  C   UNL     1      10.727   5.129   4.004  0.00  0.00    -0.042 A 
ATOM     13  C   UNL     1      11.600   6.203   3.835  0.00  0.00    +0.007 A 
ATOM     14  C   UNL     1      10.825   4.013   3.174  0.00  0.00    +0.007 A 
ATOM     16  C   UNL     1      12.572   6.162   2.836  0.00  0.00    +0.046 A 
ATOM     17  C   UNL     1      11.798   3.971   2.174  0.00  0.00    +0.046 A 
ATOM     19  C   UNL     1      12.671   5.045   2.006  0.00  0.00    +0.120 A 
BRANCH  19   5
ATOM      5  O   UNL     1      13.618   5.005   1.030  0.00  0.00    -0.495 OA
ATOM     21  C   UNL     1      14.012   3.717   0.560  0.00  0.00    +0.277 C 
ENDBRANCH  19   5
ENDBRANCH   7  12
BRANCH   8   6
ATOM      3  O   UNL     1       9.842   9.173   4.463  0.00  0.00    -0.273 OA
ATOM      6  N   UNL     1       8.498   7.354   5.007  0.00  0.00    -0.307 N 
ATOM     15  C   UNL     1       8.759   8.595   4.441  0.00  0.00    +0.239 C 
ATOM     22  H   UNL     1       7.576   6.944   4.880  0.00  0.00    +0.149 HD
BRANCH  15  18
ATOM     18  C   UNL     1       7.533   9.180   3.773  0.00  0.00    +0.255 C 
BRANCH  18   4
ATOM      4  O   UNL     1       6.740   9.878   4.708  0.00  0.00    -0.374 OA
ATOM     20  C   UNL     1       6.220  11.088   4.165  0.00  0.00    +0.194 C 
ENDBRANCH  18   4
ENDBRANCH  15  18
ENDBRANCH   8   6
BRANCH   9   1
ATOM      1  O   UNL     1       9.315   7.399   8.000  0.00  0.00    -0.387 OA
ATOM     23  H   UNL     1       8.708   7.313   8.756  0.00  0.00    +0.210 HD
ENDBRANCH   9   1
BRANCH  11   2
ATOM      2  O   UNL     1      11.315   5.534   7.753  0.00  0.00    -0.389 OA
ATOM     24  H   UNL     1      11.285   6.465   8.032  0.00  0.00    +0.210 HD
ENDBRANCH  11   2
TORSDOF 7
ENDMDL
