MODEL 1
REMARK VINA RESULT:      -6.6      0.000      0.000
REMARK  Name = 45784223
REMARK  5 active torsions:
REMARK  status: ('A' for Active; 'I' for Inactive)
REMARK    1  A    between atoms: N_1  and  C_8
REMARK    2  A    between atoms: C_4  and  C_9
REMARK    3  A    between atoms: C_8  and  C_10
REMARK    4  A    between atoms: C_8  and  C_11
REMARK    5  A    between atoms: C_16  and  C_18
REMARK                            x       y       z     vdW  Elec       q    Type
REMARK                         _______ _______ _______ _____ _____    ______ ____
ROOT
ATOM      2  N   UNL     1      10.317   4.608   5.273  0.00  0.00    -0.342 N 
ATOM      3  N   UNL     1       9.662   6.710   4.978  0.00  0.00    -0.232 NA
ATOM      9  C   UNL     1      10.146   5.639   4.392  0.00  0.00    +0.113 A 
ATOM     12  C   UNL     1       9.917   5.043   6.510  0.00  0.00    +0.066 A 
ATOM     13  C   UNL     1       9.512   6.358   6.300  0.00  0.00    +0.089 A 
ATOM     14  C   UNL     1       9.875   4.418   7.757  0.00  0.00    +0.031 A 
ATOM     15  C   UNL     1       9.036   7.110   7.387  0.00  0.00    +0.030 A 
ATOM     16  C   UNL     1       9.397   5.180   8.827  0.00  0.00    -0.048 A 
ATOM     17  C   UNL     1       8.984   6.503   8.648  0.00  0.00    +0.005 A 
ATOM     18  C   UNL     1       9.328   4.568  10.188  0.00  0.00    +0.044 C 
ATOM     19  H   UNL     1      10.674   3.686   5.055  0.00  0.00    +0.167 HD
ENDROOT
BRANCH   9   4
ATOM      1  N   UNL     1      11.980   4.413   1.466  0.00  0.00    -0.299 NA
ATOM      4  C   UNL     1      10.497   5.489   2.930  0.00  0.00    +0.070 C 
ATOM      5  C   UNL     1      11.096   4.117   2.595  0.00  0.00    +0.096 C 
ATOM      6  C   UNL     1      11.528   6.504   2.405  0.00  0.00    +0.028 C 
ATOM      7  C   UNL     1      12.658   5.656   1.833  0.00  0.00    +0.085 C 
BRANCH   1   8
ATOM      8  C   UNL     1      12.914   3.331   1.192  0.00  0.00    +0.050 C 
ATOM     10  C   UNL     1      14.296   3.673   1.742  0.00  0.00    +0.024 C 
ATOM     11  C   UNL     1      12.969   3.075  -0.310  0.00  0.00    +0.024 C 
ENDBRANCH   1   8
ENDBRANCH   9   4
TORSDOF 2
ENDMDL
MODEL 2
REMARK VINA RESULT:      -6.5     12.646     16.249
REMARK  Name = 45784223
REMARK  5 active torsions:
REMARK  status: ('A' for Active; 'I' for Inactive)
REMARK    1  A    between atoms: N_1  and  C_8
REMARK    2  A    between atoms: C_4  and  C_9
REMARK    3  A    between atoms: C_8  and  C_10
REMARK    4  A    between atoms: C_8  and  C_11
REMARK    5  A    between atoms: C_16  and  C_18
REMARK                            x       y       z     vdW  Elec       q    Type
REMARK                         _______ _______ _______ _____ _____    ______ ____
ROOT
ATOM      2  N   UNL     1      16.076   6.117  19.233  0.00  0.00    -0.342 N 
ATOM      3  N   UNL     1      15.640   7.950  20.411  0.00  0.00    -0.232 NA
ATOM      9  C   UNL     1      15.149   7.059  19.579  0.00  0.00    +0.113 A 
ATOM     12  C   UNL     1      17.245   6.421  19.883  0.00  0.00    +0.066 A 
ATOM     13  C   UNL     1      16.947   7.568  20.612  0.00  0.00    +0.089 A 
ATOM     14  C   UNL     1      18.498   5.808  19.896  0.00  0.00    +0.031 A 
ATOM     15  C   UNL     1      17.947   8.154  21.406  0.00  0.00    +0.030 A 
ATOM     16  C   UNL     1      19.481   6.403  20.693  0.00  0.00    -0.048 A 
ATOM     17  C   UNL     1      19.213   7.556  21.435  0.00  0.00    +0.005 A 
ATOM     18  C   UNL     1      20.844   5.795  20.749  0.00  0.00    +0.044 C 
ATOM     19  H   UNL     1      15.931   5.334  18.609  0.00  0.00    +0.167 HD
ENDROOT
BRANCH   9   4
ATOM      1  N   UNL     1      12.209   8.219  17.725  0.00  0.00    -0.299 NA
ATOM      4  C   UNL     1      13.741   7.016  19.030  0.00  0.00    +0.070 C 
ATOM      5  C   UNL     1      13.597   7.757  17.693  0.00  0.00    +0.096 C 
ATOM      6  C   UNL     1      12.672   7.643  19.941  0.00  0.00    +0.028 C 
ATOM      7  C   UNL     1      12.007   8.715  19.087  0.00  0.00    +0.085 C 
BRANCH   1   8
ATOM      8  C   UNL     1      11.938   9.235  16.718  0.00  0.00    +0.050 C 
ATOM     10  C   UNL     1      10.661   8.897  15.955  0.00  0.00    +0.024 C 
ATOM     11  C   UNL     1      13.130   9.342  15.772  0.00  0.00    +0.024 C 
ENDBRANCH   1   8
ENDBRANCH   9   4
TORSDOF 2
ENDMDL
MODEL 3
REMARK VINA RESULT:      -6.4     15.586     18.405
REMARK  Name = 45784223
REMARK  5 active torsions:
REMARK  status: ('A' for Active; 'I' for Inactive)
REMARK    1  A    between atoms: N_1  and  C_8
REMARK    2  A    between atoms: C_4  and  C_9
REMARK    3  A    between atoms: C_8  and  C_10
REMARK    4  A    between atoms: C_8  and  C_11
REMARK    5  A    between atoms: C_16  and  C_18
REMARK                            x       y       z     vdW  Elec       q    Type
REMARK                         _______ _______ _______ _____ _____    ______ ____
ROOT
ATOM      2  N   UNL     1      11.355   9.760  23.552  0.00  0.00    -0.342 N 
ATOM      3  N   UNL     1      11.362  10.709  21.543  0.00  0.00    -0.232 NA
ATOM      9  C   UNL     1      11.480   9.579  22.203  0.00  0.00    +0.113 A 
ATOM     12  C   UNL     1      11.142  11.096  23.777  0.00  0.00    +0.066 A 
ATOM     13  C   UNL     1      11.151  11.667  22.508  0.00  0.00    +0.089 A 
ATOM     14  C   UNL     1      10.948  11.832  24.947  0.00  0.00    +0.031 A 
ATOM     15  C   UNL     1      10.957  13.052  22.378  0.00  0.00    +0.030 A 
ATOM     16  C   UNL     1      10.756  13.209  24.800  0.00  0.00    -0.048 A 
ATOM     17  C   UNL     1      10.760  13.811  23.539  0.00  0.00    +0.005 A 
ATOM     18  C   UNL     1      10.544  14.051  26.015  0.00  0.00    +0.044 C 
ATOM     19  H   UNL     1      11.408   9.040  24.261  0.00  0.00    +0.167 HD
ENDROOT
BRANCH   9   4
ATOM      1  N   UNL     1      13.364   6.887  20.582  0.00  0.00    -0.299 NA
ATOM      4  C   UNL     1      11.726   8.209  21.614  0.00  0.00    +0.070 C 
ATOM      5  C   UNL     1      13.184   7.751  21.750  0.00  0.00    +0.096 C 
ATOM      6  C   UNL     1      11.416   8.087  20.112  0.00  0.00    +0.028 C 
ATOM      7  C   UNL     1      12.715   7.599  19.481  0.00  0.00    +0.085 C 
BRANCH   1   8
ATOM      8  C   UNL     1      14.766   6.605  20.310  0.00  0.00    +0.050 C 
ATOM     10  C   UNL     1      15.645   7.176  21.420  0.00  0.00    +0.024 C 
ATOM     11  C   UNL     1      15.148   7.189  18.954  0.00  0.00    +0.024 C 
ENDBRANCH   1   8
ENDBRANCH   9   4
TORSDOF 2
ENDMDL
MODEL 4
REMARK VINA RESULT:      -6.3     15.141     17.706
REMARK  Name = 45784223
REMARK  5 active torsions:
REMARK  status: ('A' for Active; 'I' for Inactive)
REMARK    1  A    between atoms: N_1  and  C_8
REMARK    2  A    between atoms: C_4  and  C_9
REMARK    3  A    between atoms: C_8  and  C_10
REMARK    4  A    between atoms: C_8  and  C_11
REMARK    5  A    between atoms: C_16  and  C_18
REMARK                            x       y       z     vdW  Elec       q    Type
REMARK                         _______ _______ _______ _____ _____    ______ ____
ROOT
ATOM      2  N   UNL     1      16.242   6.864  19.635  0.00  0.00    -0.342 N 
ATOM      3  N   UNL     1      16.510   8.603  20.993  0.00  0.00    -0.232 NA
ATOM      9  C   UNL     1      15.688   7.993  20.170  0.00  0.00    +0.113 A 
ATOM     12  C   UNL     1      17.508   6.737  20.147  0.00  0.00    +0.066 A 
ATOM     13  C   UNL     1      17.652   7.834  20.992  0.00  0.00    +0.089 A 
ATOM     14  C   UNL     1      18.509   5.785  19.950  0.00  0.00    +0.031 A 
ATOM     15  C   UNL     1      18.859   8.008  21.689  0.00  0.00    +0.030 A 
ATOM     16  C   UNL     1      19.704   5.973  20.652  0.00  0.00    -0.048 A 
ATOM     17  C   UNL     1      19.878   7.065  21.507  0.00  0.00    +0.005 A 
ATOM     18  C   UNL     1      20.814   4.989  20.483  0.00  0.00    +0.044 C 
ATOM     19  H   UNL     1      15.801   6.232  18.979  0.00  0.00    +0.167 HD
ENDROOT
BRANCH   9   4
ATOM      1  N   UNL     1      12.025   8.018  20.280  0.00  0.00    -0.299 NA
ATOM      4  C   UNL     1      14.285   8.426  19.808  0.00  0.00    +0.070 C 
ATOM      5  C   UNL     1      13.293   8.271  20.968  0.00  0.00    +0.096 C 
ATOM      6  C   UNL     1      13.649   7.647  18.643  0.00  0.00    +0.028 C 
ATOM      7  C   UNL     1      12.356   7.075  19.212  0.00  0.00    +0.085 C 
BRANCH   1   8
ATOM      8  C   UNL     1      11.000   7.504  21.177  0.00  0.00    +0.050 C 
ATOM     10  C   UNL     1      10.937   8.347  22.447  0.00  0.00    +0.024 C 
ATOM     11  C   UNL     1      11.296   6.043  21.503  0.00  0.00    +0.024 C 
ENDBRANCH   1   8
ENDBRANCH   9   4
TORSDOF 2
ENDMDL
MODEL 5
REMARK VINA RESULT:      -6.2     15.794     18.124
REMARK  Name = 45784223
REMARK  5 active torsions:
REMARK  status: ('A' for Active; 'I' for Inactive)
REMARK    1  A    between atoms: N_1  and  C_8
REMARK    2  A    between atoms: C_4  and  C_9
REMARK    3  A    between atoms: C_8  and  C_10
REMARK    4  A    between atoms: C_8  and  C_11
REMARK    5  A    between atoms: C_16  and  C_18
REMARK                            x       y       z     vdW  Elec       q    Type
REMARK                         _______ _______ _______ _____ _____    ______ ____
ROOT
ATOM      2  N   UNL     1      14.881   8.116  21.175  0.00  0.00    -0.342 N 
ATOM      3  N   UNL     1      14.288   6.929  19.393  0.00  0.00    -0.232 NA
ATOM      9  C   UNL     1      13.873   7.754  20.327  0.00  0.00    +0.113 A 
ATOM     12  C   UNL     1      16.024   7.480  20.762  0.00  0.00    +0.066 A 
ATOM     13  C   UNL     1      15.628   6.745  19.649  0.00  0.00    +0.089 A 
ATOM     14  C   UNL     1      17.330   7.485  21.252  0.00  0.00    +0.031 A 
ATOM     15  C   UNL     1      16.578   5.962  18.971  0.00  0.00    +0.030 A 
ATOM     16  C   UNL     1      18.263   6.701  20.566  0.00  0.00    -0.048 A 
ATOM     17  C   UNL     1      17.895   5.952  19.445  0.00  0.00    +0.005 A 
ATOM     18  C   UNL     1      19.678   6.663  21.042  0.00  0.00    +0.044 C 
ATOM     19  H   UNL     1      14.804   8.741  21.967  0.00  0.00    +0.167 HD
ENDROOT
BRANCH   9   4
ATOM      1  N   UNL     1      11.222   9.933  21.613  0.00  0.00    -0.299 NA
ATOM      4  C   UNL     1      12.469   8.285  20.505  0.00  0.00    +0.070 C 
ATOM      5  C   UNL     1      12.429   9.790  20.797  0.00  0.00    +0.096 C 
ATOM      6  C   UNL     1      11.677   7.643  21.658  0.00  0.00    +0.028 C 
ATOM      7  C   UNL     1      11.262   8.809  22.547  0.00  0.00    +0.085 C 
BRANCH   1   8
ATOM      8  C   UNL     1      11.160  11.219  22.293  0.00  0.00    +0.050 C 
ATOM     10  C   UNL     1      12.443  12.009  22.050  0.00  0.00    +0.024 C 
ATOM     11  C   UNL     1      10.929  10.994  23.784  0.00  0.00    +0.024 C 
ENDBRANCH   1   8
ENDBRANCH   9   4
TORSDOF 2
ENDMDL
MODEL 6
REMARK VINA RESULT:      -6.1     14.365     16.300
REMARK  Name = 45784223
REMARK  5 active torsions:
REMARK  status: ('A' for Active; 'I' for Inactive)
REMARK    1  A    between atoms: N_1  and  C_8
REMARK    2  A    between atoms: C_4  and  C_9
REMARK    3  A    between atoms: C_8  and  C_10
REMARK    4  A    between atoms: C_8  and  C_11
REMARK    5  A    between atoms: C_16  and  C_18
REMARK                            x       y       z     vdW  Elec       q    Type
REMARK                         _______ _______ _______ _____ _____    ______ ____
ROOT
ATOM      2  N   UNL     1       0.447   0.319  -5.613  0.00  0.00    -0.342 N 
ATOM      3  N   UNL     1      -0.113   1.960  -7.003  0.00  0.00    -0.232 NA
ATOM      9  C   UNL     1       0.731   1.574  -6.074  0.00  0.00    +0.113 A 
ATOM     12  C   UNL     1      -0.656  -0.135  -6.291  0.00  0.00    +0.066 A 
ATOM     13  C   UNL     1      -0.987   0.907  -7.152  0.00  0.00    +0.089 A 
ATOM     14  C   UNL     1      -1.370  -1.332  -6.226  0.00  0.00    +0.031 A 
ATOM     15  C   UNL     1      -2.093   0.764  -8.007  0.00  0.00    +0.030 A 
ATOM     16  C   UNL     1      -2.468  -1.457  -7.083  0.00  0.00    -0.048 A 
ATOM     17  C   UNL     1      -2.824  -0.429  -7.959  0.00  0.00    +0.005 A 
ATOM     18  C   UNL     1      -3.273  -2.715  -7.061  0.00  0.00    +0.044 C 
ATOM     19  H   UNL     1       0.956  -0.188  -4.901  0.00  0.00    +0.167 HD
ENDROOT
BRANCH   9   4
ATOM      1  N   UNL     1       2.618   4.547  -5.058  0.00  0.00    -0.299 NA
ATOM      4  C   UNL     1       1.898   2.365  -5.528  0.00  0.00    +0.070 C 
ATOM      5  C   UNL     1       1.469   3.666  -4.838  0.00  0.00    +0.096 C 
ATOM      6  C   UNL     1       2.930   2.804  -6.582  0.00  0.00    +0.028 C 
ATOM      7  C   UNL     1       3.006   4.320  -6.450  0.00  0.00    +0.085 C 
BRANCH   1   8
ATOM      8  C   UNL     1       2.308   5.943  -4.788  0.00  0.00    +0.050 C 
ATOM     10  C   UNL     1       1.106   6.388  -5.615  0.00  0.00    +0.024 C 
ATOM     11  C   UNL     1       3.531   6.803  -5.092  0.00  0.00    +0.024 C 
ENDBRANCH   1   8
ENDBRANCH   9   4
TORSDOF 2
ENDMDL
MODEL 7
REMARK VINA RESULT:      -6.0     22.130     25.103
REMARK  Name = 45784223
REMARK  5 active torsions:
REMARK  status: ('A' for Active; 'I' for Inactive)
REMARK    1  A    between atoms: N_1  and  C_8
REMARK    2  A    between atoms: C_4  and  C_9
REMARK    3  A    between atoms: C_8  and  C_10
REMARK    4  A    between atoms: C_8  and  C_11
REMARK    5  A    between atoms: C_16  and  C_18
REMARK                            x       y       z     vdW  Elec       q    Type
REMARK                         _______ _______ _______ _____ _____    ______ ____
ROOT
ATOM      2  N   UNL     1     -10.364  11.422  18.426  0.00  0.00    -0.342 N 
ATOM      3  N   UNL     1     -10.050  10.433  16.461  0.00  0.00    -0.232 NA
ATOM      9  C   UNL     1     -10.015  11.572  17.113  0.00  0.00    +0.113 A 
ATOM     12  C   UNL     1     -10.645  10.096  18.635  0.00  0.00    +0.066 A 
ATOM     13  C   UNL     1     -10.441   9.499  17.395  0.00  0.00    +0.089 A 
ATOM     14  C   UNL     1     -11.046   9.390  19.769  0.00  0.00    +0.031 A 
ATOM     15  C   UNL     1     -10.646   8.116  17.258  0.00  0.00    +0.030 A 
ATOM     16  C   UNL     1     -11.245   8.014  19.616  0.00  0.00    -0.048 A 
ATOM     17  C   UNL     1     -11.049   7.386  18.383  0.00  0.00    +0.005 A 
ATOM     18  C   UNL     1     -11.676   7.202  20.793  0.00  0.00    +0.044 C 
ATOM     19  H   UNL     1     -10.410  12.155  19.122  0.00  0.00    +0.167 HD
ENDROOT
BRANCH   9   4
ATOM      1  N   UNL     1      -7.846  14.406  16.281  0.00  0.00    -0.299 NA
ATOM      4  C   UNL     1      -9.644  12.925  16.549  0.00  0.00    +0.070 C 
ATOM      5  C   UNL     1      -8.186  12.997  16.076  0.00  0.00    +0.096 C 
ATOM      6  C   UNL     1      -9.793  14.099  17.533  0.00  0.00    +0.028 C 
ATOM      7  C   UNL     1      -8.415  14.747  17.584  0.00  0.00    +0.085 C 
BRANCH   1   8
ATOM      8  C   UNL     1      -6.411  14.645  16.221  0.00  0.00    +0.050 C 
ATOM     10  C   UNL     1      -5.725  13.554  15.405  0.00  0.00    +0.024 C 
ATOM     11  C   UNL     1      -5.847  14.707  17.637  0.00  0.00    +0.024 C 
ENDBRANCH   1   8
ENDBRANCH   9   4
TORSDOF 2
ENDMDL
MODEL 8
REMARK VINA RESULT:      -5.8     16.520     19.388
REMARK  Name = 45784223
REMARK  5 active torsions:
REMARK  status: ('A' for Active; 'I' for Inactive)
REMARK    1  A    between atoms: N_1  and  C_8
REMARK    2  A    between atoms: C_4  and  C_9
REMARK    3  A    between atoms: C_8  and  C_10
REMARK    4  A    between atoms: C_8  and  C_11
REMARK    5  A    between atoms: C_16  and  C_18
REMARK                            x       y       z     vdW  Elec       q    Type
REMARK                         _______ _______ _______ _____ _____    ______ ____
ROOT
ATOM      2  N   UNL     1      20.028   5.462  20.391  0.00  0.00    -0.342 N 
ATOM      3  N   UNL     1      20.198   7.052  21.933  0.00  0.00    -0.232 NA
ATOM      9  C   UNL     1      20.798   6.031  21.365  0.00  0.00    +0.113 A 
ATOM     12  C   UNL     1      18.851   6.161  20.326  0.00  0.00    +0.066 A 
ATOM     13  C   UNL     1      18.980   7.149  21.298  0.00  0.00    +0.089 A 
ATOM     14  C   UNL     1      17.718   6.020  19.524  0.00  0.00    +0.031 A 
ATOM     15  C   UNL     1      17.928   8.057  21.497  0.00  0.00    +0.030 A 
ATOM     16  C   UNL     1      16.680   6.933  19.734  0.00  0.00    -0.048 A 
ATOM     17  C   UNL     1      16.780   7.934  20.703  0.00  0.00    +0.005 A 
ATOM     18  C   UNL     1      15.440   6.833  18.908  0.00  0.00    +0.044 C 
ATOM     19  H   UNL     1      20.278   4.666  19.817  0.00  0.00    +0.167 HD
ENDROOT
BRANCH   9   4
ATOM      1  N   UNL     1      23.635   3.713  21.257  0.00  0.00    -0.299 NA
ATOM      4  C   UNL     1      22.172   5.493  21.695  0.00  0.00    +0.070 C 
ATOM      5  C   UNL     1      22.785   4.675  20.551  0.00  0.00    +0.096 C 
ATOM      6  C   UNL     1      22.224   4.557  22.916  0.00  0.00    +0.028 C 
ATOM      7  C   UNL     1      22.832   3.261  22.392  0.00  0.00    +0.085 C 
BRANCH   1   8
ATOM      8  C   UNL     1      24.057   2.613  20.402  0.00  0.00    +0.050 C 
ATOM     10  C   UNL     1      24.489   1.420  21.250  0.00  0.00    +0.024 C 
ATOM     11  C   UNL     1      25.191   3.081  19.495  0.00  0.00    +0.024 C 
ENDBRANCH   1   8
ENDBRANCH   9   4
TORSDOF 2
ENDMDL
MODEL 9
REMARK VINA RESULT:      -5.7     24.632     27.236
REMARK  Name = 45784223
REMARK  5 active torsions:
REMARK  status: ('A' for Active; 'I' for Inactive)
REMARK    1  A    between atoms: N_1  and  C_8
REMARK    2  A    between atoms: C_4  and  C_9
REMARK    3  A    between atoms: C_8  and  C_10
REMARK    4  A    between atoms: C_8  and  C_11
REMARK    5  A    between atoms: C_16  and  C_18
REMARK                            x       y       z     vdW  Elec       q    Type
REMARK                         _______ _______ _______ _____ _____    ______ ____
ROOT
ATOM      2  N   UNL     1     -11.106   7.562  19.958  0.00  0.00    -0.342 N 
ATOM      3  N   UNL     1     -12.683   8.506  18.709  0.00  0.00    -0.232 NA
ATOM      9  C   UNL     1     -11.391   8.407  18.922  0.00  0.00    +0.113 A 
ATOM     12  C   UNL     1     -12.295   7.084  20.447  0.00  0.00    +0.066 A 
ATOM     13  C   UNL     1     -13.264   7.687  19.651  0.00  0.00    +0.089 A 
ATOM     14  C   UNL     1     -12.596   6.203  21.486  0.00  0.00    +0.031 A 
ATOM     15  C   UNL     1     -14.620   7.407  19.891  0.00  0.00    +0.030 A 
ATOM     16  C   UNL     1     -13.950   5.933  21.710  0.00  0.00    -0.048 A 
ATOM     17  C   UNL     1     -14.946   6.524  20.928  0.00  0.00    +0.005 A 
ATOM     18  C   UNL     1     -14.337   4.998  22.808  0.00  0.00    +0.044 C 
ATOM     19  H   UNL     1     -10.185   7.328  20.305  0.00  0.00    +0.167 HD
ENDROOT
BRANCH   9   4
ATOM      1  N   UNL     1      -9.745  11.141  17.121  0.00  0.00    -0.299 NA
ATOM      4  C   UNL     1     -10.293   9.110  18.158  0.00  0.00    +0.070 C 
ATOM      5  C   UNL     1     -10.284  10.628  18.382  0.00  0.00    +0.096 C 
ATOM      6  C   UNL     1     -10.359   8.941  16.630  0.00  0.00    +0.028 C 
ATOM      7  C   UNL     1     -10.413  10.361  16.079  0.00  0.00    +0.085 C 
BRANCH   1   8
ATOM      8  C   UNL     1      -9.959  12.572  16.966  0.00  0.00    +0.050 C 
ATOM     10  C   UNL     1      -8.624  13.291  16.793  0.00  0.00    +0.024 C 
ATOM     11  C   UNL     1     -10.716  13.107  18.178  0.00  0.00    +0.024 C 
ENDBRANCH   1   8
ENDBRANCH   9   4
TORSDOF 2
ENDMDL
MODEL 10
REMARK VINA RESULT:      -5.6     21.738     25.075
REMARK  Name = 45784223
REMARK  5 active torsions:
REMARK  status: ('A' for Active; 'I' for Inactive)
REMARK    1  A    between atoms: N_1  and  C_8
REMARK    2  A    between atoms: C_4  and  C_9
REMARK    3  A    between atoms: C_8  and  C_10
REMARK    4  A    between atoms: C_8  and  C_11
REMARK    5  A    between atoms: C_16  and  C_18
REMARK                            x       y       z     vdW  Elec       q    Type
REMARK                         _______ _______ _______ _____ _____    ______ ____
ROOT
ATOM      2  N   UNL     1      -4.735 -10.799  13.761  0.00  0.00    -0.342 N 
ATOM      3  N   UNL     1      -2.558 -11.053  14.129  0.00  0.00    -0.232 NA
ATOM      9  C   UNL     1      -3.763 -11.222  14.624  0.00  0.00    +0.113 A 
ATOM     12  C   UNL     1      -4.115 -10.323  12.634  0.00  0.00    +0.066 A 
ATOM     13  C   UNL     1      -2.757 -10.492  12.887  0.00  0.00    +0.089 A 
ATOM     14  C   UNL     1      -4.612  -9.776  11.451  0.00  0.00    +0.031 A 
ATOM     15  C   UNL     1      -1.824 -10.098  11.914  0.00  0.00    +0.030 A 
ATOM     16  C   UNL     1      -3.670  -9.390  10.492  0.00  0.00    -0.048 A 
ATOM     17  C   UNL     1      -2.300  -9.547  10.718  0.00  0.00    +0.005 A 
ATOM     18  C   UNL     1      -4.138  -8.797   9.204  0.00  0.00    +0.044 C 
ATOM     19  H   UNL     1      -5.733 -10.829  13.922  0.00  0.00    +0.167 HD
ENDROOT
BRANCH   9   4
ATOM      1  N   UNL     1      -5.771 -11.822  17.630  0.00  0.00    -0.299 NA
ATOM      4  C   UNL     1      -4.111 -11.807  15.974  0.00  0.00    +0.070 C 
ATOM      5  C   UNL     1      -5.622 -11.976  16.181  0.00  0.00    +0.096 C 
ATOM      6  C   UNL     1      -3.642 -10.974  17.179  0.00  0.00    +0.028 C 
ATOM      7  C   UNL     1      -4.908 -10.695  17.981  0.00  0.00    +0.085 C 
BRANCH   1   8
ATOM      8  C   UNL     1      -7.155 -11.606  18.025  0.00  0.00    +0.050 C 
ATOM     10  C   UNL     1      -7.520 -10.131  17.890  0.00  0.00    +0.024 C 
ATOM     11  C   UNL     1      -7.356 -12.091  19.458  0.00  0.00    +0.024 C 
ENDBRANCH   1   8
ENDBRANCH   9   4
TORSDOF 2
ENDMDL
