MODEL 1
REMARK VINA RESULT:      -7.1      0.000      0.000
REMARK  Name = 45360723
REMARK  10 active torsions:
REMARK  status: ('A' for Active; 'I' for Inactive)
REMARK    1  A    between atoms: N_5  and  C_10
REMARK    2  A    between atoms: N_5  and  C_20
REMARK    3  A    between atoms: N_6  and  C_16
REMARK    4  A    between atoms: N_7  and  C_27
REMARK    5  A    between atoms: N_7  and  C_28
REMARK    6  A    between atoms: N_7  and  C_29
REMARK    7  A    between atoms: C_9  and  C_14
REMARK    8  A    between atoms: C_14  and  C_17
REMARK    9  A    between atoms: C_17  and  C_21
REMARK   10  A    between atoms: C_20  and  C_22
REMARK                            x       y       z     vdW  Elec       q    Type
REMARK                         _______ _______ _______ _____ _____    ______ ____
ROOT
ATOM      1  O   UNL     1      10.704   6.970  21.779  0.00  0.00    -0.274 OA
ATOM      3  N   UNL     1      11.940  10.112  20.393  0.00  0.00    -0.286 NA
ATOM      4  N   UNL     1      11.370   8.867  22.842  0.00  0.00    -0.313 N 
ATOM      8  C   UNL     1      11.217   8.834  20.357  0.00  0.00    +0.145 C 
ATOM      9  C   UNL     1      11.642  10.939  21.557  0.00  0.00    +0.075 C 
ATOM     10  C   UNL     1      13.193   8.844  18.947  0.00  0.00    +0.070 C 
ATOM     11  C   UNL     1      12.014   7.968  19.370  0.00  0.00    +0.048 C 
ATOM     12  C   UNL     1      13.343   9.822  20.105  0.00  0.00    +0.104 C 
ATOM     13  C   UNL     1      11.948  10.191  22.845  0.00  0.00    +0.123 C 
ATOM     15  C   UNL     1      11.098   8.138  21.710  0.00  0.00    +0.230 C 
ATOM     30  H   UNL     1      11.266   8.399  23.737  0.00  0.00    +0.149 HD
ENDROOT
BRANCH  10   5
ATOM      5  N   UNL     1      14.400   8.083  18.672  0.00  0.00    -0.308 NA
ATOM     31  H   UNL     1      14.339   7.690  17.733  0.00  0.00    +0.123 HD
BRANCH   5  20
ATOM     20  C   UNL     1      14.564   6.996  19.630  0.00  0.00    +0.116 C 
BRANCH  20  22
ATOM     22  C   UNL     1      16.013   6.729  19.934  0.00  0.00    -0.033 A 
ATOM     23  C   UNL     1      16.766   5.920  19.085  0.00  0.00    +0.007 A 
ATOM     24  C   UNL     1      16.603   7.291  21.067  0.00  0.00    +0.007 A 
ATOM     25  C   UNL     1      18.110   5.672  19.367  0.00  0.00    +0.023 A 
ATOM     26  C   UNL     1      17.946   7.043  21.349  0.00  0.00    +0.023 A 
ATOM     27  C   UNL     1      18.699   6.234  20.499  0.00  0.00    +0.029 A 
BRANCH  27   7
ATOM      7  N   UNL     1      20.058   5.984  20.784  0.00  0.00    -0.336 N 
ATOM     28  C   UNL     1      20.842   6.950  21.527  0.00  0.00    +0.129 C 
ATOM     29  C   UNL     1      20.690   4.760  20.332  0.00  0.00    +0.129 C 
ENDBRANCH  27   7
ENDBRANCH  20  22
ENDBRANCH   5  20
ENDBRANCH  10   5
BRANCH   9  14
ATOM     14  C   UNL     1      12.357  12.290  21.524  0.00  0.00    +0.029 C 
BRANCH  14  17
ATOM     17  C   UNL     1      11.439  13.387  21.002  0.00  0.00    +0.097 C 
BRANCH  17  21
ATOM      2  O   UNL     1       9.349  14.303  21.812  0.00  0.00    -0.276 OA
ATOM      6  N   UNL     1      11.020  13.783  23.337  0.00  0.00    -0.312 N 
ATOM     21  C   UNL     1      10.473  13.877  22.064  0.00  0.00    +0.213 C 
ATOM     32  H   UNL     1      11.964  13.425  23.455  0.00  0.00    +0.149 HD
BRANCH   6  16
ATOM     16  C   UNL     1      10.306  14.184  24.515  0.00  0.00    +0.073 C 
ATOM     18  C   UNL     1      10.425  15.577  25.060  0.00  0.00    +0.024 C 
ATOM     19  C   UNL     1      11.020  14.424  25.813  0.00  0.00    +0.024 C 
ENDBRANCH   6  16
ENDBRANCH  17  21
ENDBRANCH  14  17
ENDBRANCH   9  14
TORSDOF 8
ENDMDL
MODEL 2
REMARK VINA RESULT:      -7.0      2.698      4.168
REMARK  Name = 45360723
REMARK  10 active torsions:
REMARK  status: ('A' for Active; 'I' for Inactive)
REMARK    1  A    between atoms: N_5  and  C_10
REMARK    2  A    between atoms: N_5  and  C_20
REMARK    3  A    between atoms: N_6  and  C_16
REMARK    4  A    between atoms: N_7  and  C_27
REMARK    5  A    between atoms: N_7  and  C_28
REMARK    6  A    between atoms: N_7  and  C_29
REMARK    7  A    between atoms: C_9  and  C_14
REMARK    8  A    between atoms: C_14  and  C_17
REMARK    9  A    between atoms: C_17  and  C_21
REMARK   10  A    between atoms: C_20  and  C_22
REMARK                            x       y       z     vdW  Elec       q    Type
REMARK                         _______ _______ _______ _____ _____    ______ ____
ROOT
ATOM      1  O   UNL     1      10.225   6.663  21.968  0.00  0.00    -0.274 OA
ATOM      3  N   UNL     1      12.456   9.107  20.426  0.00  0.00    -0.286 NA
ATOM      4  N   UNL     1      10.939   8.677  22.747  0.00  0.00    -0.313 N 
ATOM      8  C   UNL     1      11.520   7.976  20.430  0.00  0.00    +0.145 C 
ATOM      9  C   UNL     1      12.013  10.256  21.208  0.00  0.00    +0.075 C 
ATOM     10  C   UNL     1      13.777   7.335  19.808  0.00  0.00    +0.070 C 
ATOM     11  C   UNL     1      12.367   6.773  19.988  0.00  0.00    +0.048 C 
ATOM     12  C   UNL     1      13.786   8.567  20.702  0.00  0.00    +0.104 C 
ATOM     13  C   UNL     1      11.760   9.862  22.655  0.00  0.00    +0.123 C 
ATOM     15  C   UNL     1      10.862   7.704  21.780  0.00  0.00    +0.230 C 
ATOM     30  H   UNL     1      10.479   8.493  23.634  0.00  0.00    +0.149 HD
ENDROOT
BRANCH  10   5
ATOM      5  N   UNL     1      14.820   6.376  20.134  0.00  0.00    -0.308 NA
ATOM     31  H   UNL     1      15.124   6.529  21.095  0.00  0.00    +0.123 HD
BRANCH   5  20
ATOM     20  C   UNL     1      15.965   6.524  19.245  0.00  0.00    +0.116 C 
BRANCH  20  22
ATOM     22  C   UNL     1      17.255   6.660  20.008  0.00  0.00    -0.033 A 
ATOM     23  C   UNL     1      18.301   5.768  19.775  0.00  0.00    +0.007 A 
ATOM     24  C   UNL     1      17.404   7.679  20.950  0.00  0.00    +0.007 A 
ATOM     25  C   UNL     1      19.496   5.894  20.483  0.00  0.00    +0.023 A 
ATOM     26  C   UNL     1      18.599   7.805  21.658  0.00  0.00    +0.023 A 
ATOM     27  C   UNL     1      19.645   6.913  21.424  0.00  0.00    +0.029 A 
BRANCH  27   7
ATOM      7  N   UNL     1      20.853   7.041  22.140  0.00  0.00    -0.336 N 
ATOM     28  C   UNL     1      21.507   8.330  22.252  0.00  0.00    +0.129 C 
ATOM     29  C   UNL     1      21.462   5.883  22.766  0.00  0.00    +0.129 C 
ENDBRANCH  27   7
ENDBRANCH  20  22
ENDBRANCH   5  20
ENDBRANCH  10   5
BRANCH   9  14
ATOM     14  C   UNL     1      12.979  11.439  21.123  0.00  0.00    +0.029 C 
BRANCH  14  17
ATOM     17  C   UNL     1      12.733  12.261  19.864  0.00  0.00    +0.097 C 
BRANCH  17  21
ATOM      2  O   UNL     1      14.784  12.473  18.595  0.00  0.00    -0.276 OA
ATOM      6  N   UNL     1      13.220  10.883  17.953  0.00  0.00    -0.312 N 
ATOM     21  C   UNL     1      13.705  11.909  18.753  0.00  0.00    +0.213 C 
ATOM     32  H   UNL     1      12.310  10.476  18.152  0.00  0.00    +0.149 HD
BRANCH   6  16
ATOM     16  C   UNL     1      13.952  10.366  16.833  0.00  0.00    +0.073 C 
ATOM     18  C   UNL     1      13.287  10.140  15.507  0.00  0.00    +0.024 C 
ATOM     19  C   UNL     1      13.726   8.969  16.335  0.00  0.00    +0.024 C 
ENDBRANCH   6  16
ENDBRANCH  17  21
ENDBRANCH  14  17
ENDBRANCH   9  14
TORSDOF 8
ENDMDL
MODEL 3
REMARK VINA RESULT:      -6.9     27.284     30.394
REMARK  Name = 45360723
REMARK  10 active torsions:
REMARK  status: ('A' for Active; 'I' for Inactive)
REMARK    1  A    between atoms: N_5  and  C_10
REMARK    2  A    between atoms: N_5  and  C_20
REMARK    3  A    between atoms: N_6  and  C_16
REMARK    4  A    between atoms: N_7  and  C_27
REMARK    5  A    between atoms: N_7  and  C_28
REMARK    6  A    between atoms: N_7  and  C_29
REMARK    7  A    between atoms: C_9  and  C_14
REMARK    8  A    between atoms: C_14  and  C_17
REMARK    9  A    between atoms: C_17  and  C_21
REMARK   10  A    between atoms: C_20  and  C_22
REMARK                            x       y       z     vdW  Elec       q    Type
REMARK                         _______ _______ _______ _____ _____    ______ ____
ROOT
ATOM      1  O   UNL     1     -18.399   0.834  22.445  0.00  0.00    -0.274 OA
ATOM      3  N   UNL     1     -17.045   3.005  25.048  0.00  0.00    -0.286 NA
ATOM      4  N   UNL     1     -17.542   0.302  24.483  0.00  0.00    -0.313 N 
ATOM      8  C   UNL     1     -17.853   2.693  23.862  0.00  0.00    +0.145 C 
ATOM      9  C   UNL     1     -17.213   2.068  26.154  0.00  0.00    +0.075 C 
ATOM     10  C   UNL     1     -15.974   4.150  23.372  0.00  0.00    +0.070 C 
ATOM     11  C   UNL     1     -17.180   3.471  22.722  0.00  0.00    +0.048 C 
ATOM     12  C   UNL     1     -15.686   3.276  24.585  0.00  0.00    +0.104 C 
ATOM     13  C   UNL     1     -16.876   0.651  25.717  0.00  0.00    +0.123 C 
ATOM     15  C   UNL     1     -17.933   1.206  23.526  0.00  0.00    +0.230 C 
ATOM     30  H   UNL     1     -17.620  -0.685  24.255  0.00  0.00    +0.149 HD
ENDROOT
BRANCH  10   5
ATOM      5  N   UNL     1     -14.841   4.282  22.471  0.00  0.00    -0.308 NA
ATOM     31  H   UNL     1     -14.276   3.434  22.521  0.00  0.00    +0.123 HD
BRANCH   5  20
ATOM     20  C   UNL     1     -14.012   5.425  22.836  0.00  0.00    +0.116 C 
BRANCH  20  22
ATOM     22  C   UNL     1     -13.545   6.189  21.626  0.00  0.00    -0.033 A 
ATOM     23  C   UNL     1     -14.471   6.841  20.814  0.00  0.00    +0.007 A 
ATOM     24  C   UNL     1     -12.185   6.245  21.319  0.00  0.00    +0.007 A 
ATOM     25  C   UNL     1     -14.039   7.549  19.692  0.00  0.00    +0.023 A 
ATOM     26  C   UNL     1     -11.753   6.953  20.198  0.00  0.00    +0.023 A 
ATOM     27  C   UNL     1     -12.679   7.605  19.385  0.00  0.00    +0.029 A 
BRANCH  27   7
ATOM      7  N   UNL     1     -12.241   8.321  18.251  0.00  0.00    -0.336 N 
ATOM     28  C   UNL     1     -13.080   9.347  17.663  0.00  0.00    +0.129 C 
ATOM     29  C   UNL     1     -10.951   8.037  17.656  0.00  0.00    +0.129 C 
ENDBRANCH  27   7
ENDBRANCH  20  22
ENDBRANCH   5  20
ENDBRANCH  10   5
BRANCH   9  14
ATOM     14  C   UNL     1     -16.412   2.465  27.395  0.00  0.00    +0.029 C 
BRANCH  14  17
ATOM     17  C   UNL     1     -16.965   1.795  28.645  0.00  0.00    +0.097 C 
BRANCH  17  21
ATOM      2  O   UNL     1     -15.245   0.132  29.016  0.00  0.00    -0.276 OA
ATOM      6  N   UNL     1     -15.716   1.663  30.696  0.00  0.00    -0.312 N 
ATOM     21  C   UNL     1     -15.883   1.090  29.442  0.00  0.00    +0.213 C 
ATOM     32  H   UNL     1     -16.295   2.452  30.972  0.00  0.00    +0.149 HD
BRANCH   6  16
ATOM     16  C   UNL     1     -14.753   1.178  31.642  0.00  0.00    +0.073 C 
ATOM     18  C   UNL     1     -14.810   1.583  33.086  0.00  0.00    +0.024 C 
ATOM     19  C   UNL     1     -13.699   2.083  32.211  0.00  0.00    +0.024 C 
ENDBRANCH   6  16
ENDBRANCH  17  21
ENDBRANCH  14  17
ENDBRANCH   9  14
TORSDOF 8
ENDMDL
MODEL 4
REMARK VINA RESULT:      -6.8      1.908      2.840
REMARK  Name = 45360723
REMARK  10 active torsions:
REMARK  status: ('A' for Active; 'I' for Inactive)
REMARK    1  A    between atoms: N_5  and  C_10
REMARK    2  A    between atoms: N_5  and  C_20
REMARK    3  A    between atoms: N_6  and  C_16
REMARK    4  A    between atoms: N_7  and  C_27
REMARK    5  A    between atoms: N_7  and  C_28
REMARK    6  A    between atoms: N_7  and  C_29
REMARK    7  A    between atoms: C_9  and  C_14
REMARK    8  A    between atoms: C_14  and  C_17
REMARK    9  A    between atoms: C_17  and  C_21
REMARK   10  A    between atoms: C_20  and  C_22
REMARK                            x       y       z     vdW  Elec       q    Type
REMARK                         _______ _______ _______ _____ _____    ______ ____
ROOT
ATOM      1  O   UNL     1      11.009   6.344  21.184  0.00  0.00    -0.274 OA
ATOM      3  N   UNL     1      11.841   9.769  20.236  0.00  0.00    -0.286 NA
ATOM      4  N   UNL     1      11.316   8.182  22.488  0.00  0.00    -0.313 N 
ATOM      8  C   UNL     1      11.321   8.414  20.010  0.00  0.00    +0.145 C 
ATOM      9  C   UNL     1      11.352  10.405  21.454  0.00  0.00    +0.075 C 
ATOM     10  C   UNL     1      13.356   8.869  18.765  0.00  0.00    +0.070 C 
ATOM     11  C   UNL     1      12.298   7.790  19.002  0.00  0.00    +0.048 C 
ATOM     12  C   UNL     1      13.286   9.717  20.028  0.00  0.00    +0.104 C 
ATOM     13  C   UNL     1      11.688   9.565  22.676  0.00  0.00    +0.123 C 
ATOM     15  C   UNL     1      11.226   7.557  21.269  0.00  0.00    +0.230 C 
ATOM     30  H   UNL     1      11.230   7.603  23.319  0.00  0.00    +0.149 HD
ENDROOT
BRANCH  10   5
ATOM      5  N   UNL     1      14.678   8.324  18.506  0.00  0.00    -0.308 NA
ATOM     31  H   UNL     1      14.815   8.249  17.497  0.00  0.00    +0.123 HD
BRANCH   5  20
ATOM     20  C   UNL     1      14.827   7.002  19.103  0.00  0.00    +0.116 C 
BRANCH  20  22
ATOM     22  C   UNL     1      16.192   6.809  19.707  0.00  0.00    -0.033 A 
ATOM     23  C   UNL     1      17.095   5.926  19.119  0.00  0.00    +0.007 A 
ATOM     24  C   UNL     1      16.552   7.515  20.855  0.00  0.00    +0.007 A 
ATOM     25  C   UNL     1      18.360   5.746  19.679  0.00  0.00    +0.023 A 
ATOM     26  C   UNL     1      17.817   7.336  21.415  0.00  0.00    +0.023 A 
ATOM     27  C   UNL     1      18.721   6.452  20.827  0.00  0.00    +0.029 A 
BRANCH  27   7
ATOM      7  N   UNL     1      20.000   6.271  21.393  0.00  0.00    -0.336 N 
ATOM     28  C   UNL     1      20.236   6.586  22.788  0.00  0.00    +0.129 C 
ATOM     29  C   UNL     1      21.097   5.775  20.585  0.00  0.00    +0.129 C 
ENDBRANCH  27   7
ENDBRANCH  20  22
ENDBRANCH   5  20
ENDBRANCH  10   5
BRANCH   9  14
ATOM     14  C   UNL     1      11.857  11.840  21.619  0.00  0.00    +0.029 C 
BRANCH  14  17
ATOM     17  C   UNL     1      12.258  12.120  23.060  0.00  0.00    +0.097 C 
BRANCH  17  21
ATOM      2  O   UNL     1      13.966  13.777  23.508  0.00  0.00    -0.276 OA
ATOM      6  N   UNL     1      14.607  11.650  22.835  0.00  0.00    -0.312 N 
ATOM     21  C   UNL     1      13.683  12.632  23.168  0.00  0.00    +0.213 C 
ATOM     32  H   UNL     1      14.283  10.727  22.556  0.00  0.00    +0.149 HD
BRANCH   6  16
ATOM     16  C   UNL     1      16.022  11.883  22.857  0.00  0.00    +0.073 C 
ATOM     18  C   UNL     1      16.739  12.430  21.658  0.00  0.00    +0.024 C 
ATOM     19  C   UNL     1      16.966  11.009  22.084  0.00  0.00    +0.024 C 
ENDBRANCH   6  16
ENDBRANCH  17  21
ENDBRANCH  14  17
ENDBRANCH   9  14
TORSDOF 8
ENDMDL
MODEL 5
REMARK VINA RESULT:      -6.5     26.730     29.254
REMARK  Name = 45360723
REMARK  10 active torsions:
REMARK  status: ('A' for Active; 'I' for Inactive)
REMARK    1  A    between atoms: N_5  and  C_10
REMARK    2  A    between atoms: N_5  and  C_20
REMARK    3  A    between atoms: N_6  and  C_16
REMARK    4  A    between atoms: N_7  and  C_27
REMARK    5  A    between atoms: N_7  and  C_28
REMARK    6  A    between atoms: N_7  and  C_29
REMARK    7  A    between atoms: C_9  and  C_14
REMARK    8  A    between atoms: C_14  and  C_17
REMARK    9  A    between atoms: C_17  and  C_21
REMARK   10  A    between atoms: C_20  and  C_22
REMARK                            x       y       z     vdW  Elec       q    Type
REMARK                         _______ _______ _______ _____ _____    ______ ____
ROOT
ATOM      1  O   UNL     1      -3.471 -14.314  13.606  0.00  0.00    -0.274 OA
ATOM      3  N   UNL     1      -2.260 -11.131  12.294  0.00  0.00    -0.286 NA
ATOM      4  N   UNL     1      -4.352 -12.976  11.993  0.00  0.00    -0.313 N 
ATOM      8  C   UNL     1      -2.130 -12.427  12.972  0.00  0.00    +0.145 C 
ATOM      9  C   UNL     1      -2.982 -11.185  11.027  0.00  0.00    +0.075 C 
ATOM     10  C   UNL     1      -1.814 -10.539  14.466  0.00  0.00    +0.070 C 
ATOM     11  C   UNL     1      -1.800 -12.068  14.429  0.00  0.00    +0.048 C 
ATOM     12  C   UNL     1      -2.710 -10.164  13.293  0.00  0.00    +0.104 C 
ATOM     13  C   UNL     1      -4.379 -11.753  11.224  0.00  0.00    +0.123 C 
ATOM     15  C   UNL     1      -3.378 -13.303  12.904  0.00  0.00    +0.230 C 
ATOM     30  H   UNL     1      -5.168 -13.580  11.942  0.00  0.00    +0.149 HD
ENDROOT
BRANCH  10   5
ATOM      5  N   UNL     1      -2.272 -10.004  15.738  0.00  0.00    -0.308 NA
ATOM     31  H   UNL     1      -1.475  -9.611  16.239  0.00  0.00    +0.123 HD
BRANCH   5  20
ATOM     20  C   UNL     1      -2.879 -11.046  16.557  0.00  0.00    +0.116 C 
BRANCH  20  22
ATOM     22  C   UNL     1      -4.309 -10.728  16.902  0.00  0.00    -0.033 A 
ATOM     23  C   UNL     1      -4.823 -11.091  18.146  0.00  0.00    +0.007 A 
ATOM     24  C   UNL     1      -5.119 -10.068  15.977  0.00  0.00    +0.007 A 
ATOM     25  C   UNL     1      -6.148 -10.796  18.466  0.00  0.00    +0.023 A 
ATOM     26  C   UNL     1      -6.445  -9.774  16.297  0.00  0.00    +0.023 A 
ATOM     27  C   UNL     1      -6.959 -10.137  17.541  0.00  0.00    +0.029 A 
BRANCH  27   7
ATOM      7  N   UNL     1      -8.299  -9.838  17.865  0.00  0.00    -0.336 N 
ATOM     28  C   UNL     1      -8.973  -8.718  17.239  0.00  0.00    +0.129 C 
ATOM     29  C   UNL     1      -9.017 -10.644  18.833  0.00  0.00    +0.129 C 
ENDBRANCH  27   7
ENDBRANCH  20  22
ENDBRANCH   5  20
ENDBRANCH  10   5
BRANCH   9  14
ATOM     14  C   UNL     1      -3.036  -9.832  10.316  0.00  0.00    +0.029 C 
BRANCH  14  17
ATOM     17  C   UNL     1      -4.191  -9.775   9.326  0.00  0.00    +0.097 C 
BRANCH  17  21
ATOM      2  O   UNL     1      -5.167  -8.066  10.737  0.00  0.00    -0.276 OA
ATOM      6  N   UNL     1      -6.141  -8.522   8.680  0.00  0.00    -0.312 N 
ATOM     21  C   UNL     1      -5.197  -8.696   9.684  0.00  0.00    +0.213 C 
ATOM     32  H   UNL     1      -6.096  -9.095   7.841  0.00  0.00    +0.149 HD
BRANCH   6  16
ATOM     16  C   UNL     1      -7.201  -7.561   8.776  0.00  0.00    +0.073 C 
ATOM     18  C   UNL     1      -8.638  -7.990   8.822  0.00  0.00    +0.024 C 
ATOM     19  C   UNL     1      -8.105  -7.282   7.612  0.00  0.00    +0.024 C 
ENDBRANCH   6  16
ENDBRANCH  17  21
ENDBRANCH  14  17
ENDBRANCH   9  14
TORSDOF 8
ENDMDL
MODEL 6
REMARK VINA RESULT:      -6.4     27.639     29.316
REMARK  Name = 45360723
REMARK  10 active torsions:
REMARK  status: ('A' for Active; 'I' for Inactive)
REMARK    1  A    between atoms: N_5  and  C_10
REMARK    2  A    between atoms: N_5  and  C_20
REMARK    3  A    between atoms: N_6  and  C_16
REMARK    4  A    between atoms: N_7  and  C_27
REMARK    5  A    between atoms: N_7  and  C_28
REMARK    6  A    between atoms: N_7  and  C_29
REMARK    7  A    between atoms: C_9  and  C_14
REMARK    8  A    between atoms: C_14  and  C_17
REMARK    9  A    between atoms: C_17  and  C_21
REMARK   10  A    between atoms: C_20  and  C_22
REMARK                            x       y       z     vdW  Elec       q    Type
REMARK                         _______ _______ _______ _____ _____    ______ ____
ROOT
ATOM      1  O   UNL     1      -4.465 -13.523  18.281  0.00  0.00    -0.274 OA
ATOM      3  N   UNL     1      -6.106 -10.929  16.306  0.00  0.00    -0.286 NA
ATOM      4  N   UNL     1      -5.666 -11.717  18.963  0.00  0.00    -0.313 N 
ATOM      8  C   UNL     1      -5.520 -12.256  16.537  0.00  0.00    +0.145 C 
ATOM      9  C   UNL     1      -7.042 -10.498  17.339  0.00  0.00    +0.075 C 
ATOM     10  C   UNL     1      -4.223 -10.902  14.994  0.00  0.00    +0.070 C 
ATOM     11  C   UNL     1      -4.269 -12.284  15.646  0.00  0.00    +0.048 C 
ATOM     12  C   UNL     1      -5.010 -10.027  15.961  0.00  0.00    +0.104 C 
ATOM     13  C   UNL     1      -6.372 -10.484  18.704  0.00  0.00    +0.123 C 
ATOM     15  C   UNL     1      -5.152 -12.540  17.991  0.00  0.00    +0.230 C 
ATOM     30  H   UNL     1      -5.431 -11.929  19.929  0.00  0.00    +0.149 HD
ENDROOT
BRANCH  10   5
ATOM      5  N   UNL     1      -2.870 -10.429  14.755  0.00  0.00    -0.308 NA
ATOM     31  H   UNL     1      -2.910  -9.480  14.382  0.00  0.00    +0.123 HD
BRANCH   5  20
ATOM     20  C   UNL     1      -2.177 -11.283  13.799  0.00  0.00    +0.116 C 
BRANCH  20  22
ATOM     22  C   UNL     1      -2.775 -11.186  12.421  0.00  0.00    -0.033 A 
ATOM     23  C   UNL     1      -3.355 -12.309  11.833  0.00  0.00    +0.007 A 
ATOM     24  C   UNL     1      -2.749  -9.972  11.734  0.00  0.00    +0.007 A 
ATOM     25  C   UNL     1      -3.909 -12.219  10.556  0.00  0.00    +0.023 A 
ATOM     26  C   UNL     1      -3.303  -9.883  10.457  0.00  0.00    +0.023 A 
ATOM     27  C   UNL     1      -3.883 -11.005   9.868  0.00  0.00    +0.029 A 
BRANCH  27   7
ATOM      7  N   UNL     1      -4.444 -10.914   8.577  0.00  0.00    -0.336 N 
ATOM     28  C   UNL     1      -4.483 -12.076   7.711  0.00  0.00    +0.129 C 
ATOM     29  C   UNL     1      -4.982  -9.657   8.097  0.00  0.00    +0.129 C 
ENDBRANCH  27   7
ENDBRANCH  20  22
ENDBRANCH   5  20
ENDBRANCH  10   5
BRANCH   9  14
ATOM     14  C   UNL     1      -7.686  -9.146  17.029  0.00  0.00    +0.029 C 
BRANCH  14  17
ATOM     17  C   UNL     1      -9.034  -9.322  16.345  0.00  0.00    +0.097 C 
BRANCH  17  21
ATOM      2  O   UNL     1      -9.485 -10.941  14.603  0.00  0.00    -0.276 OA
ATOM      6  N   UNL     1      -8.035  -9.183  14.161  0.00  0.00    -0.312 N 
ATOM     21  C   UNL     1      -8.898  -9.923  14.959  0.00  0.00    +0.213 C 
ATOM     32  H   UNL     1      -7.585  -8.354  14.540  0.00  0.00    +0.149 HD
BRANCH   6  16
ATOM     16  C   UNL     1      -7.738  -9.543  12.805  0.00  0.00    +0.073 C 
ATOM     18  C   UNL     1      -6.730 -10.608  12.487  0.00  0.00    +0.024 C 
ATOM     19  C   UNL     1      -6.429  -9.173  12.172  0.00  0.00    +0.024 C 
ENDBRANCH   6  16
ENDBRANCH  17  21
ENDBRANCH  14  17
ENDBRANCH   9  14
TORSDOF 8
ENDMDL
MODEL 7
REMARK VINA RESULT:      -6.2     26.966     29.688
REMARK  Name = 45360723
REMARK  10 active torsions:
REMARK  status: ('A' for Active; 'I' for Inactive)
REMARK    1  A    between atoms: N_5  and  C_10
REMARK    2  A    between atoms: N_5  and  C_20
REMARK    3  A    between atoms: N_6  and  C_16
REMARK    4  A    between atoms: N_7  and  C_27
REMARK    5  A    between atoms: N_7  and  C_28
REMARK    6  A    between atoms: N_7  and  C_29
REMARK    7  A    between atoms: C_9  and  C_14
REMARK    8  A    between atoms: C_14  and  C_17
REMARK    9  A    between atoms: C_17  and  C_21
REMARK   10  A    between atoms: C_20  and  C_22
REMARK                            x       y       z     vdW  Elec       q    Type
REMARK                         _______ _______ _______ _____ _____    ______ ____
ROOT
ATOM      1  O   UNL     1      -3.799 -14.376  13.869  0.00  0.00    -0.274 OA
ATOM      3  N   UNL     1      -2.537 -11.382  12.206  0.00  0.00    -0.286 NA
ATOM      4  N   UNL     1      -4.736 -13.125  12.217  0.00  0.00    -0.313 N 
ATOM      8  C   UNL     1      -2.419 -12.624  12.980  0.00  0.00    +0.145 C 
ATOM      9  C   UNL     1      -3.357 -11.497  11.005  0.00  0.00    +0.075 C 
ATOM     10  C   UNL     1      -1.894 -10.643  14.282  0.00  0.00    +0.070 C 
ATOM     11  C   UNL     1      -1.959 -12.168  14.373  0.00  0.00    +0.048 C 
ATOM     12  C   UNL     1      -2.858 -10.314  13.150  0.00  0.00    +0.104 C 
ATOM     13  C   UNL     1      -4.761 -11.968  11.352  0.00  0.00    +0.123 C 
ATOM     15  C   UNL     1      -3.711 -13.432  13.079  0.00  0.00    +0.230 C 
ATOM     30  H   UNL     1      -5.582 -13.683  12.278  0.00  0.00    +0.149 HD
ENDROOT
BRANCH  10   5
ATOM      5  N   UNL     1      -2.223  -9.983  15.534  0.00  0.00    -0.308 NA
ATOM     31  H   UNL     1      -1.400  -9.487  15.876  0.00  0.00    +0.123 HD
BRANCH   5  20
ATOM     20  C   UNL     1      -2.646 -10.948  16.541  0.00  0.00    +0.116 C 
BRANCH  20  22
ATOM     22  C   UNL     1      -4.077 -10.737  16.956  0.00  0.00    -0.033 A 
ATOM     23  C   UNL     1      -4.932  -9.985  16.152  0.00  0.00    +0.007 A 
ATOM     24  C   UNL     1      -4.548 -11.295  18.145  0.00  0.00    +0.007 A 
ATOM     25  C   UNL     1      -6.259  -9.789  16.536  0.00  0.00    +0.023 A 
ATOM     26  C   UNL     1      -5.875 -11.099  18.529  0.00  0.00    +0.023 A 
ATOM     27  C   UNL     1      -6.730 -10.347  17.725  0.00  0.00    +0.029 A 
BRANCH  27   7
ATOM      7  N   UNL     1      -8.071 -10.149  18.114  0.00  0.00    -0.336 N 
ATOM     28  C   UNL     1      -8.630 -10.893  19.225  0.00  0.00    +0.129 C 
ATOM     29  C   UNL     1      -8.910  -9.205  17.402  0.00  0.00    +0.129 C 
ENDBRANCH  27   7
ENDBRANCH  20  22
ENDBRANCH   5  20
ENDBRANCH  10   5
BRANCH   9  14
ATOM     14  C   UNL     1      -3.398 -10.205  10.188  0.00  0.00    +0.029 C 
BRANCH  14  17
ATOM     17  C   UNL     1      -4.726  -9.482  10.366  0.00  0.00    +0.097 C 
BRANCH  17  21
ATOM      2  O   UNL     1      -6.341  -8.455   8.884  0.00  0.00    -0.276 OA
ATOM      6  N   UNL     1      -4.977 -10.146   8.067  0.00  0.00    -0.312 N 
ATOM     21  C   UNL     1      -5.449  -9.282   9.047  0.00  0.00    +0.213 C 
ATOM     32  H   UNL     1      -4.238 -10.807   8.291  0.00  0.00    +0.149 HD
BRANCH   6  16
ATOM     16  C   UNL     1      -5.498 -10.155   6.731  0.00  0.00    +0.073 C 
ATOM     18  C   UNL     1      -6.538 -11.151   6.309  0.00  0.00    +0.024 C 
ATOM     19  C   UNL     1      -5.143 -11.248   5.766  0.00  0.00    +0.024 C 
ENDBRANCH   6  16
ENDBRANCH  17  21
ENDBRANCH  14  17
ENDBRANCH   9  14
TORSDOF 8
ENDMDL
MODEL 8
REMARK VINA RESULT:      -6.2     27.835     29.538
REMARK  Name = 45360723
REMARK  10 active torsions:
REMARK  status: ('A' for Active; 'I' for Inactive)
REMARK    1  A    between atoms: N_5  and  C_10
REMARK    2  A    between atoms: N_5  and  C_20
REMARK    3  A    between atoms: N_6  and  C_16
REMARK    4  A    between atoms: N_7  and  C_27
REMARK    5  A    between atoms: N_7  and  C_28
REMARK    6  A    between atoms: N_7  and  C_29
REMARK    7  A    between atoms: C_9  and  C_14
REMARK    8  A    between atoms: C_14  and  C_17
REMARK    9  A    between atoms: C_17  and  C_21
REMARK   10  A    between atoms: C_20  and  C_22
REMARK                            x       y       z     vdW  Elec       q    Type
REMARK                         _______ _______ _______ _____ _____    ______ ____
ROOT
ATOM      1  O   UNL     1      -4.696 -15.642  15.979  0.00  0.00    -0.274 OA
ATOM      3  N   UNL     1      -5.111 -12.027  16.259  0.00  0.00    -0.286 NA
ATOM      4  N   UNL     1      -4.516 -14.293  17.801  0.00  0.00    -0.313 N 
ATOM      8  C   UNL     1      -5.298 -13.344  15.637  0.00  0.00    +0.145 C 
ATOM      9  C   UNL     1      -5.372 -11.997  17.694  0.00  0.00    +0.075 C 
ATOM     10  C   UNL     1      -3.912 -11.856  14.310  0.00  0.00    +0.070 C 
ATOM     11  C   UNL     1      -4.530 -13.255  14.309  0.00  0.00    +0.048 C 
ATOM     12  C   UNL     1      -3.830 -11.505  15.789  0.00  0.00    +0.104 C 
ATOM     13  C   UNL     1      -4.484 -12.991  18.426  0.00  0.00    +0.123 C 
ATOM     15  C   UNL     1      -4.791 -14.515  16.474  0.00  0.00    +0.230 C 
ATOM     30  H   UNL     1      -4.200 -15.086  18.353  0.00  0.00    +0.149 HD
ENDROOT
BRANCH  10   5
ATOM      5  N   UNL     1      -2.628 -11.800  13.629  0.00  0.00    -0.308 NA
ATOM     31  H   UNL     1      -1.882 -11.857  14.323  0.00  0.00    +0.123 HD
BRANCH   5  20
ATOM     20  C   UNL     1      -2.486 -10.558  12.880  0.00  0.00    +0.116 C 
BRANCH  20  22
ATOM     22  C   UNL     1      -3.099 -10.656  11.509  0.00  0.00    -0.033 A 
ATOM     23  C   UNL     1      -3.394  -9.497  10.794  0.00  0.00    +0.007 A 
ATOM     24  C   UNL     1      -3.371 -11.907  10.954  0.00  0.00    +0.007 A 
ATOM     25  C   UNL     1      -3.963  -9.587   9.523  0.00  0.00    +0.023 A 
ATOM     26  C   UNL     1      -3.939 -11.997   9.684  0.00  0.00    +0.023 A 
ATOM     27  C   UNL     1      -4.235 -10.838   8.968  0.00  0.00    +0.029 A 
BRANCH  27   7
ATOM      7  N   UNL     1      -4.809 -10.929   7.683  0.00  0.00    -0.336 N 
ATOM     28  C   UNL     1      -4.479 -12.037   6.809  0.00  0.00    +0.129 C 
ATOM     29  C   UNL     1      -5.731  -9.912   7.217  0.00  0.00    +0.129 C 
ENDBRANCH  27   7
ENDBRANCH  20  22
ENDBRANCH   5  20
ENDBRANCH  10   5
BRANCH   9  14
ATOM     14  C   UNL     1      -5.238 -10.597  18.293  0.00  0.00    +0.029 C 
BRANCH  14  17
ATOM     17  C   UNL     1      -6.132 -10.432  19.514  0.00  0.00    +0.097 C 
BRANCH  17  21
ATOM      2  O   UNL     1      -8.436 -11.149  19.713  0.00  0.00    -0.276 OA
ATOM      6  N   UNL     1      -7.883  -9.565  18.110  0.00  0.00    -0.312 N 
ATOM     21  C   UNL     1      -7.606 -10.443  19.149  0.00  0.00    +0.213 C 
ATOM     32  H   UNL     1      -7.131  -9.022  17.694  0.00  0.00    +0.149 HD
BRANCH   6  16
ATOM     16  C   UNL     1      -9.204  -9.391  17.580  0.00  0.00    +0.073 C 
ATOM     18  C   UNL     1      -9.421  -8.871  16.188  0.00  0.00    +0.024 C 
ATOM     19  C   UNL     1      -9.783  -8.022  17.370  0.00  0.00    +0.024 C 
ENDBRANCH   6  16
ENDBRANCH  17  21
ENDBRANCH  14  17
ENDBRANCH   9  14
TORSDOF 8
ENDMDL
MODEL 9
REMARK VINA RESULT:      -6.1     15.885     18.602
REMARK  Name = 45360723
REMARK  10 active torsions:
REMARK  status: ('A' for Active; 'I' for Inactive)
REMARK    1  A    between atoms: N_5  and  C_10
REMARK    2  A    between atoms: N_5  and  C_20
REMARK    3  A    between atoms: N_6  and  C_16
REMARK    4  A    between atoms: N_7  and  C_27
REMARK    5  A    between atoms: N_7  and  C_28
REMARK    6  A    between atoms: N_7  and  C_29
REMARK    7  A    between atoms: C_9  and  C_14
REMARK    8  A    between atoms: C_14  and  C_17
REMARK    9  A    between atoms: C_17  and  C_21
REMARK   10  A    between atoms: C_20  and  C_22
REMARK                            x       y       z     vdW  Elec       q    Type
REMARK                         _______ _______ _______ _____ _____    ______ ____
ROOT
ATOM      1  O   UNL     1      10.558   5.248   8.393  0.00  0.00    -0.274 OA
ATOM      3  N   UNL     1      11.808   7.727   6.024  0.00  0.00    -0.286 NA
ATOM      4  N   UNL     1      12.696   5.870   7.931  0.00  0.00    -0.313 N 
ATOM      8  C   UNL     1      10.800   7.106   6.893  0.00  0.00    +0.145 C 
ATOM      9  C   UNL     1      13.107   7.926   6.658  0.00  0.00    +0.075 C 
ATOM     10  C   UNL     1      10.272   6.904   4.532  0.00  0.00    +0.070 C 
ATOM     11  C   UNL     1       9.736   6.568   5.924  0.00  0.00    +0.048 C 
ATOM     12  C   UNL     1      11.775   7.017   4.748  0.00  0.00    +0.104 C 
ATOM     13  C   UNL     1      13.671   6.606   7.161  0.00  0.00    +0.123 C 
ATOM     15  C   UNL     1      11.335   5.985   7.780  0.00  0.00    +0.230 C 
ATOM     30  H   UNL     1      13.039   5.133   8.541  0.00  0.00    +0.149 HD
ENDROOT
BRANCH  10   5
ATOM      5  N   UNL     1       9.904   5.919   3.527  0.00  0.00    -0.308 NA
ATOM     31  H   UNL     1       8.954   5.597   3.710  0.00  0.00    +0.123 HD
BRANCH   5  20
ATOM     20  C   UNL     1      10.807   4.775   3.559  0.00  0.00    +0.116 C 
BRANCH  20  22
ATOM     22  C   UNL     1      11.267   4.384   2.181  0.00  0.00    -0.033 A 
ATOM     23  C   UNL     1      10.479   4.685   1.071  0.00  0.00    +0.007 A 
ATOM     24  C   UNL     1      12.483   3.720   2.014  0.00  0.00    +0.007 A 
ATOM     25  C   UNL     1      10.905   4.322  -0.207  0.00  0.00    +0.023 A 
ATOM     26  C   UNL     1      12.909   3.357   0.736  0.00  0.00    +0.023 A 
ATOM     27  C   UNL     1      12.121   3.658  -0.373  0.00  0.00    +0.029 A 
BRANCH  27   7
ATOM      7  N   UNL     1      12.552   3.292  -1.666  0.00  0.00    -0.336 N 
ATOM     28  C   UNL     1      11.875   2.237  -2.394  0.00  0.00    +0.129 C 
ATOM     29  C   UNL     1      13.683   3.960  -2.279  0.00  0.00    +0.129 C 
ENDBRANCH  27   7
ENDBRANCH  20  22
ENDBRANCH   5  20
ENDBRANCH  10   5
BRANCH   9  14
ATOM     14  C   UNL     1      14.108   8.640   5.749  0.00  0.00    +0.029 C 
BRANCH  14  17
ATOM     17  C   UNL     1      15.311   7.755   5.453  0.00  0.00    +0.097 C 
BRANCH  17  21
ATOM      2  O   UNL     1      16.656   9.299   4.160  0.00  0.00    -0.276 OA
ATOM      6  N   UNL     1      17.547   8.372   6.092  0.00  0.00    -0.312 N 
ATOM     21  C   UNL     1      16.555   8.566   5.140  0.00  0.00    +0.213 C 
ATOM     32  H   UNL     1      17.382   7.738   6.871  0.00  0.00    +0.149 HD
BRANCH   6  16
ATOM     16  C   UNL     1      18.821   9.027   6.024  0.00  0.00    +0.073 C 
ATOM     18  C   UNL     1      20.098   8.268   6.234  0.00  0.00    +0.024 C 
ATOM     19  C   UNL     1      19.641   9.263   7.259  0.00  0.00    +0.024 C 
ENDBRANCH   6  16
ENDBRANCH  17  21
ENDBRANCH  14  17
ENDBRANCH   9  14
TORSDOF 8
ENDMDL
MODEL 10
REMARK VINA RESULT:      -6.1     16.970     20.260
REMARK  Name = 45360723
REMARK  10 active torsions:
REMARK  status: ('A' for Active; 'I' for Inactive)
REMARK    1  A    between atoms: N_5  and  C_10
REMARK    2  A    between atoms: N_5  and  C_20
REMARK    3  A    between atoms: N_6  and  C_16
REMARK    4  A    between atoms: N_7  and  C_27
REMARK    5  A    between atoms: N_7  and  C_28
REMARK    6  A    between atoms: N_7  and  C_29
REMARK    7  A    between atoms: C_9  and  C_14
REMARK    8  A    between atoms: C_14  and  C_17
REMARK    9  A    between atoms: C_17  and  C_21
REMARK   10  A    between atoms: C_20  and  C_22
REMARK                            x       y       z     vdW  Elec       q    Type
REMARK                         _______ _______ _______ _____ _____    ______ ____
ROOT
ATOM      1  O   UNL     1      17.641   7.368  -0.198  0.00  0.00    -0.274 OA
ATOM      3  N   UNL     1      14.516   5.661   0.603  0.00  0.00    -0.286 NA
ATOM      4  N   UNL     1      16.975   5.248  -0.682  0.00  0.00    -0.313 N 
ATOM      8  C   UNL     1      15.373   6.832   0.378  0.00  0.00    +0.145 C 
ATOM      9  C   UNL     1      14.613   4.637  -0.431  0.00  0.00    +0.075 C 
ATOM     10  C   UNL     1      14.676   6.599   2.691  0.00  0.00    +0.070 C 
ATOM     11  C   UNL     1      15.477   7.504   1.755  0.00  0.00    +0.048 C 
ATOM     12  C   UNL     1      14.706   5.247   1.991  0.00  0.00    +0.104 C 
ATOM     13  C   UNL     1      16.046   4.147  -0.575  0.00  0.00    +0.123 C 
ATOM     15  C   UNL     1      16.761   6.503  -0.166  0.00  0.00    +0.230 C 
ATOM     30  H   UNL     1      17.897   5.048  -1.061  0.00  0.00    +0.149 HD
ENDROOT
BRANCH  10   5
ATOM      5  N   UNL     1      15.208   6.563   4.044  0.00  0.00    -0.308 NA
ATOM     31  H   UNL     1      14.859   5.729   4.517  0.00  0.00    +0.123 HD
BRANCH   5  20
ATOM     20  C   UNL     1      14.802   7.741   4.799  0.00  0.00    +0.116 C 
BRANCH  20  22
ATOM     22  C   UNL     1      13.535   7.502   5.574  0.00  0.00    -0.033 A 
ATOM     23  C   UNL     1      12.330   8.039   5.123  0.00  0.00    +0.007 A 
ATOM     24  C   UNL     1      13.566   6.743   6.745  0.00  0.00    +0.007 A 
ATOM     25  C   UNL     1      11.155   7.818   5.842  0.00  0.00    +0.023 A 
ATOM     26  C   UNL     1      12.391   6.522   7.463  0.00  0.00    +0.023 A 
ATOM     27  C   UNL     1      11.186   7.059   7.012  0.00  0.00    +0.029 A 
BRANCH  27   7
ATOM      7  N   UNL     1       9.998   6.835   7.739  0.00  0.00    -0.336 N 
ATOM     28  C   UNL     1       8.880   7.750   7.617  0.00  0.00    +0.129 C 
ATOM     29  C   UNL     1       9.882   5.691   8.621  0.00  0.00    +0.129 C 
ENDBRANCH  27   7
ENDBRANCH  20  22
ENDBRANCH   5  20
ENDBRANCH  10   5
BRANCH   9  14
ATOM     14  C   UNL     1      13.654   3.468  -0.201  0.00  0.00    +0.029 C 
BRANCH  14  17
ATOM     17  C   UNL     1      12.390   3.620  -1.035  0.00  0.00    +0.097 C 
BRANCH  17  21
ATOM      2  O   UNL     1      10.138   4.439  -0.687  0.00  0.00    -0.276 OA
ATOM      6  N   UNL     1      11.500   4.069   1.155  0.00  0.00    -0.312 N 
ATOM     21  C   UNL     1      11.210   4.088  -0.203  0.00  0.00    +0.213 C 
ATOM     32  H   UNL     1      12.419   3.770   1.470  0.00  0.00    +0.149 HD
BRANCH   6  16
ATOM     16  C   UNL     1      10.549   4.466   2.153  0.00  0.00    +0.073 C 
ATOM     18  C   UNL     1      10.446   5.894   2.604  0.00  0.00    +0.024 C 
ATOM     19  C   UNL     1      10.988   4.851   3.536  0.00  0.00    +0.024 C 
ENDBRANCH   6  16
ENDBRANCH  17  21
ENDBRANCH  14  17
ENDBRANCH   9  14
TORSDOF 8
ENDMDL
