MODEL 1
REMARK VINA RESULT:      -7.7      0.000      0.000
REMARK  Name = 7143920
REMARK  4 active torsions:
REMARK  status: ('A' for Active; 'I' for Inactive)
REMARK    1  A    between atoms: S_2  and  N_6
REMARK    2  A    between atoms: S_2  and  C_19
REMARK    3  A    between atoms: C_17  and  C_20
REMARK    4  A    between atoms: C_21  and  C_22
REMARK                            x       y       z     vdW  Elec       q    Type
REMARK                         _______ _______ _______ _____ _____    ______ ____
ROOT
ATOM      5  O   UNL     1      15.097   5.841  20.099  0.00  0.00    -0.267 OA
ATOM      6  N   UNL     1      12.924   9.389  17.369  0.00  0.00    -0.180 NA
ATOM      7  N   UNL     1      14.204   7.986  19.896  0.00  0.00    -0.311 N 
ATOM      8  C   UNL     1      11.740   8.402  19.334  0.00  0.00    +0.025 C 
ATOM      9  C   UNL     1      13.256  10.306  19.656  0.00  0.00    +0.052 C 
ATOM     10  C   UNL     1      11.930   9.701  20.106  0.00  0.00    +0.017 C 
ATOM     11  C   UNL     1      11.695   8.675  17.822  0.00  0.00    +0.114 C 
ATOM     12  C   UNL     1      13.190  10.633  18.153  0.00  0.00    +0.118 C 
ATOM     13  C   UNL     1      12.857   7.425  19.720  0.00  0.00    +0.130 C 
ATOM     14  C   UNL     1      14.412   9.366  19.943  0.00  0.00    +0.026 A 
ATOM     15  C   UNL     1      15.631   9.854  20.219  0.00  0.00    +0.022 A 
ATOM     16  C   UNL     1      15.250   7.064  20.114  0.00  0.00    +0.259 A 
ATOM     17  C   UNL     1      16.611   7.642  20.395  0.00  0.00    +0.040 A 
ATOM     18  C   UNL     1      16.743   8.975  20.445  0.00  0.00    +0.015 A 
ENDROOT
BRANCH   6   2
ATOM      2  S   UNL     1      13.118   9.527  15.675  0.00  0.00    +0.029 S 
ATOM      3  O   UNL     1      11.824   9.766  15.075  0.00  0.00    -0.158 OA
ATOM      4  O   UNL     1      13.982   8.462  15.216  0.00  0.00    -0.158 OA
ATOM     19  C   UNL     1      14.038  11.043  15.616  0.00  0.00    +0.215 C 
ENDBRANCH   6   2
BRANCH  17  20
ATOM     20  C   UNL     1      17.734   6.765  20.613  0.00  0.00    +0.014 C 
ATOM     21  C   UNL     1      18.790   7.108  21.360  0.00  0.00    +0.008 C 
BRANCH  21  22
ATOM      1 CL   UNL     1      23.541   3.638  22.347  0.00  0.00    -0.084 Cl
ATOM     22  C   UNL     1      19.964   6.251  21.604  0.00  0.00    -0.025 A 
ATOM     23  C   UNL     1      20.313   5.294  20.664  0.00  0.00    +0.009 A 
ATOM     24  C   UNL     1      20.696   6.418  22.768  0.00  0.00    +0.009 A 
ATOM     25  C   UNL     1      21.423   4.483  20.895  0.00  0.00    +0.020 A 
ATOM     26  C   UNL     1      21.807   5.606  22.999  0.00  0.00    +0.020 A 
ATOM     27  C   UNL     1      22.171   4.639  22.062  0.00  0.00    +0.041 A 
ENDBRANCH  21  22
ENDBRANCH  17  20
TORSDOF 3
ENDMDL
MODEL 2
REMARK VINA RESULT:      -7.4      2.471      3.515
REMARK  Name = 7143920
REMARK  4 active torsions:
REMARK  status: ('A' for Active; 'I' for Inactive)
REMARK    1  A    between atoms: S_2  and  N_6
REMARK    2  A    between atoms: S_2  and  C_19
REMARK    3  A    between atoms: C_17  and  C_20
REMARK    4  A    between atoms: C_21  and  C_22
REMARK                            x       y       z     vdW  Elec       q    Type
REMARK                         _______ _______ _______ _____ _____    ______ ____
ROOT
ATOM      5  O   UNL     1      17.404   8.957  21.508  0.00  0.00    -0.267 OA
ATOM      6  N   UNL     1      12.610   8.846  20.178  0.00  0.00    -0.180 NA
ATOM      7  N   UNL     1      15.755   8.777  19.869  0.00  0.00    -0.311 N 
ATOM      8  C   UNL     1      14.107  10.670  19.362  0.00  0.00    +0.025 C 
ATOM      9  C   UNL     1      13.965   8.563  18.112  0.00  0.00    +0.052 C 
ATOM     10  C   UNL     1      14.074  10.077  17.960  0.00  0.00    +0.017 C 
ATOM     11  C   UNL     1      12.819  10.322  20.126  0.00  0.00    +0.114 C 
ATOM     12  C   UNL     1      12.646   8.211  18.826  0.00  0.00    +0.118 C 
ATOM     13  C   UNL     1      15.368  10.179  20.083  0.00  0.00    +0.130 C 
ATOM     14  C   UNL     1      15.148   8.003  18.879  0.00  0.00    +0.026 A 
ATOM     15  C   UNL     1      15.595   6.763  18.624  0.00  0.00    +0.022 A 
ATOM     16  C   UNL     1      16.833   8.294  20.641  0.00  0.00    +0.259 A 
ATOM     17  C   UNL     1      17.295   6.891  20.351  0.00  0.00    +0.040 A 
ATOM     18  C   UNL     1      16.684   6.204  19.376  0.00  0.00    +0.015 A 
ENDROOT
BRANCH   6   2
ATOM      2  S   UNL     1      11.356   8.312  21.212  0.00  0.00    +0.029 S 
ATOM      3  O   UNL     1      11.885   7.305  22.105  0.00  0.00    -0.158 OA
ATOM      4  O   UNL     1      10.168   8.078  20.421  0.00  0.00    -0.158 OA
ATOM     19  C   UNL     1      11.107   9.799  22.148  0.00  0.00    +0.215 C 
ENDBRANCH   6   2
BRANCH  17  20
ATOM     20  C   UNL     1      18.380   6.320  21.108  0.00  0.00    +0.014 C 
ATOM     21  C   UNL     1      19.503   5.864  20.539  0.00  0.00    +0.008 C 
BRANCH  21  22
ATOM      1 CL   UNL     1      24.082   3.437  23.494  0.00  0.00    -0.084 Cl
ATOM     22  C   UNL     1      20.634   5.264  21.269  0.00  0.00    -0.025 A 
ATOM     23  C   UNL     1      21.154   5.921  22.373  0.00  0.00    +0.009 A 
ATOM     24  C   UNL     1      21.155   4.056  20.838  0.00  0.00    +0.009 A 
ATOM     25  C   UNL     1      22.225   5.354  23.063  0.00  0.00    +0.020 A 
ATOM     26  C   UNL     1      22.226   3.488  21.529  0.00  0.00    +0.020 A 
ATOM     27  C   UNL     1      22.761   4.136  22.642  0.00  0.00    +0.041 A 
ENDBRANCH  21  22
ENDBRANCH  17  20
TORSDOF 3
ENDMDL
MODEL 3
REMARK VINA RESULT:      -6.9     27.820     30.216
REMARK  Name = 7143920
REMARK  4 active torsions:
REMARK  status: ('A' for Active; 'I' for Inactive)
REMARK    1  A    between atoms: S_2  and  N_6
REMARK    2  A    between atoms: S_2  and  C_19
REMARK    3  A    between atoms: C_17  and  C_20
REMARK    4  A    between atoms: C_21  and  C_22
REMARK                            x       y       z     vdW  Elec       q    Type
REMARK                         _______ _______ _______ _____ _____    ______ ____
ROOT
ATOM      5  O   UNL     1      -6.619  -9.895  14.001  0.00  0.00    -0.267 OA
ATOM      6  N   UNL     1      -2.939 -13.087  12.988  0.00  0.00    -0.180 NA
ATOM      7  N   UNL     1      -4.354 -10.447  13.997  0.00  0.00    -0.311 N 
ATOM      8  C   UNL     1      -3.046 -10.874  11.837  0.00  0.00    +0.025 C 
ATOM      9  C   UNL     1      -1.912 -11.064  14.006  0.00  0.00    +0.052 C 
ATOM     10  C   UNL     1      -1.842 -10.394  12.637  0.00  0.00    +0.017 C 
ATOM     11  C   UNL     1      -3.007 -12.401  11.665  0.00  0.00    +0.114 C 
ATOM     12  C   UNL     1      -1.815 -12.592  13.837  0.00  0.00    +0.118 C 
ATOM     13  C   UNL     1      -4.328 -10.395  12.528  0.00  0.00    +0.130 C 
ATOM     14  C   UNL     1      -3.192 -10.693  14.732  0.00  0.00    +0.026 A 
ATOM     15  C   UNL     1      -3.216 -10.623  16.072  0.00  0.00    +0.022 A 
ATOM     16  C   UNL     1      -5.581 -10.136  14.620  0.00  0.00    +0.259 A 
ATOM     17  C   UNL     1      -5.582 -10.091  16.124  0.00  0.00    +0.040 A 
ATOM     18  C   UNL     1      -4.432 -10.319  16.773  0.00  0.00    +0.015 A 
ENDROOT
BRANCH   6   2
ATOM      2  S   UNL     1      -3.146 -14.785  12.952  0.00  0.00    +0.029 S 
ATOM      3  O   UNL     1      -2.639 -15.290  11.695  0.00  0.00    -0.158 OA
ATOM      4  O   UNL     1      -4.479 -15.102  13.415  0.00  0.00    -0.158 OA
ATOM     19  C   UNL     1      -2.000 -15.239  14.227  0.00  0.00    +0.215 C 
ENDBRANCH   6   2
BRANCH  17  20
ATOM     20  C   UNL     1      -6.801  -9.797  16.834  0.00  0.00    +0.014 C 
ATOM     21  C   UNL     1      -7.512 -10.731  17.477  0.00  0.00    +0.008 C 
BRANCH  21  22
ATOM      1 CL   UNL     1     -12.593  -9.717  20.434  0.00  0.00    -0.084 Cl
ATOM     22  C   UNL     1      -8.767 -10.481  18.208  0.00  0.00    -0.025 A 
ATOM     23  C   UNL     1      -9.701  -9.608  17.673  0.00  0.00    +0.009 A 
ATOM     24  C   UNL     1      -8.989 -11.123  19.415  0.00  0.00    +0.009 A 
ATOM     25  C   UNL     1     -10.889  -9.371  18.364  0.00  0.00    +0.020 A 
ATOM     26  C   UNL     1     -10.178 -10.886  20.106  0.00  0.00    +0.020 A 
ATOM     27  C   UNL     1     -11.128 -10.010  19.581  0.00  0.00    +0.041 A 
ENDBRANCH  21  22
ENDBRANCH  17  20
TORSDOF 3
ENDMDL
MODEL 4
REMARK VINA RESULT:      -6.8     27.399     30.042
REMARK  Name = 7143920
REMARK  4 active torsions:
REMARK  status: ('A' for Active; 'I' for Inactive)
REMARK    1  A    between atoms: S_2  and  N_6
REMARK    2  A    between atoms: S_2  and  C_19
REMARK    3  A    between atoms: C_17  and  C_20
REMARK    4  A    between atoms: C_21  and  C_22
REMARK                            x       y       z     vdW  Elec       q    Type
REMARK                         _______ _______ _______ _____ _____    ______ ____
ROOT
ATOM      5  O   UNL     1     -14.827   9.181  20.126  0.00  0.00    -0.267 OA
ATOM      6  N   UNL     1     -11.512   9.357  16.419  0.00  0.00    -0.180 NA
ATOM      7  N   UNL     1     -12.625   9.355  19.378  0.00  0.00    -0.311 N 
ATOM      8  C   UNL     1     -11.812  11.313  17.941  0.00  0.00    +0.025 C 
ATOM      9  C   UNL     1     -10.251   9.521  18.556  0.00  0.00    +0.052 C 
ATOM     10  C   UNL     1     -10.457  11.033  18.577  0.00  0.00    +0.017 C 
ATOM     11  C   UNL     1     -11.842  10.809  16.489  0.00  0.00    +0.114 C 
ATOM     12  C   UNL     1     -10.223   9.025  17.098  0.00  0.00    +0.118 C 
ATOM     13  C   UNL     1     -12.909  10.678  18.804  0.00  0.00    +0.130 C 
ATOM     14  C   UNL     1     -11.341   8.810  19.336  0.00  0.00    +0.026 A 
ATOM     15  C   UNL     1     -11.080   7.653  19.966  0.00  0.00    +0.022 A 
ATOM     16  C   UNL     1     -13.687   8.718  20.054  0.00  0.00    +0.259 A 
ATOM     17  C   UNL     1     -13.370   7.409  20.727  0.00  0.00    +0.040 A 
ATOM     18  C   UNL     1     -12.114   6.947  20.668  0.00  0.00    +0.015 A 
ENDROOT
BRANCH   6   2
ATOM      2  S   UNL     1     -11.758   8.614  14.897  0.00  0.00    +0.029 S 
ATOM      3  O   UNL     1     -13.059   7.983  14.891  0.00  0.00    -0.158 OA
ATOM      4  O   UNL     1     -10.560   7.889  14.534  0.00  0.00    -0.158 OA
ATOM     19  C   UNL     1     -11.848  10.067  13.883  0.00  0.00    +0.215 C 
ENDBRANCH   6   2
BRANCH  17  20
ATOM     20  C   UNL     1     -14.406   6.690  21.425  0.00  0.00    +0.014 C 
ATOM     21  C   UNL     1     -14.163   5.601  22.164  0.00  0.00    +0.008 C 
BRANCH  21  22
ATOM      1 CL   UNL     1     -18.311   2.467  25.089  0.00  0.00    -0.084 Cl
ATOM     22  C   UNL     1     -15.188   4.827  22.886  0.00  0.00    -0.025 A 
ATOM     23  C   UNL     1     -14.854   4.206  24.079  0.00  0.00    +0.009 A 
ATOM     24  C   UNL     1     -16.466   4.735  22.360  0.00  0.00    +0.009 A 
ATOM     25  C   UNL     1     -15.823   3.473  24.763  0.00  0.00    +0.020 A 
ATOM     26  C   UNL     1     -17.436   4.002  23.044  0.00  0.00    +0.020 A 
ATOM     27  C   UNL     1     -17.115   3.372  24.246  0.00  0.00    +0.041 A 
ENDBRANCH  21  22
ENDBRANCH  17  20
TORSDOF 3
ENDMDL
MODEL 5
REMARK VINA RESULT:      -6.7      5.285      8.996
REMARK  Name = 7143920
REMARK  4 active torsions:
REMARK  status: ('A' for Active; 'I' for Inactive)
REMARK    1  A    between atoms: S_2  and  N_6
REMARK    2  A    between atoms: S_2  and  C_19
REMARK    3  A    between atoms: C_17  and  C_20
REMARK    4  A    between atoms: C_21  and  C_22
REMARK                            x       y       z     vdW  Elec       q    Type
REMARK                         _______ _______ _______ _____ _____    ______ ____
ROOT
ATOM      5  O   UNL     1      13.978   8.679  15.296  0.00  0.00    -0.267 OA
ATOM      6  N   UNL     1      12.769   8.383  20.115  0.00  0.00    -0.180 NA
ATOM      7  N   UNL     1      14.518   8.965  17.547  0.00  0.00    -0.311 N 
ATOM      8  C   UNL     1      14.638   7.007  19.193  0.00  0.00    +0.025 C 
ATOM      9  C   UNL     1      15.081   9.290  19.980  0.00  0.00    +0.052 C 
ATOM     10  C   UNL     1      15.648   7.874  19.933  0.00  0.00    +0.017 C 
ATOM     11  C   UNL     1      13.290   6.998  19.932  0.00  0.00    +0.114 C 
ATOM     12  C   UNL     1      13.759   9.290  20.770  0.00  0.00    +0.118 C 
ATOM     13  C   UNL     1      14.511   7.510  17.750  0.00  0.00    +0.130 C 
ATOM     14  C   UNL     1      14.861   9.838  18.582  0.00  0.00    +0.026 A 
ATOM     15  C   UNL     1      14.973  11.154  18.344  0.00  0.00    +0.022 A 
ATOM     16  C   UNL     1      14.263   9.423  16.237  0.00  0.00    +0.259 A 
ATOM     17  C   UNL     1      14.370  10.907  16.007  0.00  0.00    +0.040 A 
ATOM     18  C   UNL     1      14.720  11.690  17.036  0.00  0.00    +0.015 A 
ENDROOT
BRANCH   6   2
ATOM      2  S   UNL     1      11.164   8.500  20.694  0.00  0.00    +0.029 S 
ATOM      3  O   UNL     1      10.255   8.392  19.574  0.00  0.00    -0.158 OA
ATOM      4  O   UNL     1      11.085   9.598  21.632  0.00  0.00    -0.158 OA
ATOM     19  C   UNL     1      11.082   6.986  21.615  0.00  0.00    +0.215 C 
ENDBRANCH   6   2
BRANCH  17  20
ATOM     20  C   UNL     1      14.108  11.453  14.700  0.00  0.00    +0.014 C 
ATOM     21  C   UNL     1      15.070  11.658  13.791  0.00  0.00    +0.008 C 
BRANCH  21  22
ATOM      1 CL   UNL     1      14.195  13.942   8.350  0.00  0.00    -0.084 Cl
ATOM     22  C   UNL     1      14.853  12.222  12.447  0.00  0.00    -0.025 A 
ATOM     23  C   UNL     1      15.939  12.405  11.605  0.00  0.00    +0.009 A 
ATOM     24  C   UNL     1      13.569  12.558  12.051  0.00  0.00    +0.009 A 
ATOM     25  C   UNL     1      15.734  12.940  10.334  0.00  0.00    +0.020 A 
ATOM     26  C   UNL     1      13.365  13.092  10.778  0.00  0.00    +0.020 A 
ATOM     27  C   UNL     1      14.447  13.282   9.919  0.00  0.00    +0.041 A 
ENDBRANCH  21  22
ENDBRANCH  17  20
TORSDOF 3
ENDMDL
MODEL 6
REMARK VINA RESULT:      -6.7     16.001     19.452
REMARK  Name = 7143920
REMARK  4 active torsions:
REMARK  status: ('A' for Active; 'I' for Inactive)
REMARK    1  A    between atoms: S_2  and  N_6
REMARK    2  A    between atoms: S_2  and  C_19
REMARK    3  A    between atoms: C_17  and  C_20
REMARK    4  A    between atoms: C_21  and  C_22
REMARK                            x       y       z     vdW  Elec       q    Type
REMARK                         _______ _______ _______ _____ _____    ______ ____
ROOT
ATOM      5  O   UNL     1      12.395   2.956   2.146  0.00  0.00    -0.267 OA
ATOM      6  N   UNL     1      14.046   5.917  -1.498  0.00  0.00    -0.180 NA
ATOM      7  N   UNL     1      12.023   4.169   0.189  0.00  0.00    -0.311 N 
ATOM      8  C   UNL     1      13.208   3.623  -2.015  0.00  0.00    +0.025 C 
ATOM      9  C   UNL     1      11.629   5.500  -1.912  0.00  0.00    +0.052 C 
ATOM     10  C   UNL     1      11.967   4.217  -2.666  0.00  0.00    +0.017 C 
ATOM     11  C   UNL     1      14.389   4.601  -2.110  0.00  0.00    +0.114 C 
ATOM     12  C   UNL     1      12.790   6.502  -2.056  0.00  0.00    +0.118 C 
ATOM     13  C   UNL     1      12.877   3.242  -0.566  0.00  0.00    +0.130 C 
ATOM     14  C   UNL     1      11.354   5.217  -0.447  0.00  0.00    +0.026 A 
ATOM     15  C   UNL     1      10.490   5.980   0.240  0.00  0.00    +0.022 A 
ATOM     16  C   UNL     1      11.836   3.884   1.558  0.00  0.00    +0.259 A 
ATOM     17  C   UNL     1      10.882   4.774   2.309  0.00  0.00    +0.040 A 
ATOM     18  C   UNL     1      10.257   5.752   1.639  0.00  0.00    +0.015 A 
ENDROOT
BRANCH   6   2
ATOM      2  S   UNL     1      15.350   7.008  -1.309  0.00  0.00    +0.029 S 
ATOM      3  O   UNL     1      14.958   8.047  -0.381  0.00  0.00    -0.158 OA
ATOM      4  O   UNL     1      15.890   7.320  -2.614  0.00  0.00    -0.158 OA
ATOM     19  C   UNL     1      16.499   5.939  -0.481  0.00  0.00    +0.215 C 
ENDBRANCH   6   2
BRANCH  17  20
ATOM     20  C   UNL     1      10.651   4.557   3.714  0.00  0.00    +0.014 C 
ATOM     21  C   UNL     1      10.132   5.493   4.519  0.00  0.00    +0.008 C 
BRANCH  21  22
ATOM      1 CL   UNL     1       9.137   4.799  10.360  0.00  0.00    -0.084 Cl
ATOM     22  C   UNL     1       9.887   5.322   5.962  0.00  0.00    -0.025 A 
ATOM     23  C   UNL     1       9.958   4.054   6.517  0.00  0.00    +0.009 A 
ATOM     24  C   UNL     1       9.589   6.432   6.736  0.00  0.00    +0.009 A 
ATOM     25  C   UNL     1       9.724   3.892   7.882  0.00  0.00    +0.020 A 
ATOM     26  C   UNL     1       9.357   6.269   8.102  0.00  0.00    +0.020 A 
ATOM     27  C   UNL     1       9.425   5.000   8.676  0.00  0.00    +0.041 A 
ENDBRANCH  21  22
ENDBRANCH  17  20
TORSDOF 3
ENDMDL
MODEL 7
REMARK VINA RESULT:      -6.6     29.064     31.276
REMARK  Name = 7143920
REMARK  4 active torsions:
REMARK  status: ('A' for Active; 'I' for Inactive)
REMARK    1  A    between atoms: S_2  and  N_6
REMARK    2  A    between atoms: S_2  and  C_19
REMARK    3  A    between atoms: C_17  and  C_20
REMARK    4  A    between atoms: C_21  and  C_22
REMARK                            x       y       z     vdW  Elec       q    Type
REMARK                         _______ _______ _______ _____ _____    ______ ____
ROOT
ATOM      5  O   UNL     1     -10.455  -9.406  14.097  0.00  0.00    -0.267 OA
ATOM      6  N   UNL     1     -13.072  -5.477  12.524  0.00  0.00    -0.180 NA
ATOM      7  N   UNL     1     -12.176  -7.861  14.396  0.00  0.00    -0.311 N 
ATOM      8  C   UNL     1     -14.173  -7.701  12.800  0.00  0.00    +0.025 C 
ATOM      9  C   UNL     1     -14.017  -6.174  14.716  0.00  0.00    +0.052 C 
ATOM     10  C   UNL     1     -14.925  -7.183  14.019  0.00  0.00    +0.017 C 
ATOM     11  C   UNL     1     -13.848  -6.548  11.836  0.00  0.00    +0.114 C 
ATOM     12  C   UNL     1     -13.739  -4.991  13.769  0.00  0.00    +0.118 C 
ATOM     13  C   UNL     1     -12.916  -8.445  13.268  0.00  0.00    +0.130 C 
ATOM     14  C   UNL     1     -12.716  -6.819  15.153  0.00  0.00    +0.026 A 
ATOM     15  C   UNL     1     -12.074  -6.379  16.246  0.00  0.00    +0.022 A 
ATOM     16  C   UNL     1     -10.950  -8.472  14.731  0.00  0.00    +0.259 A 
ATOM     17  C   UNL     1     -10.240  -7.939  15.947  0.00  0.00    +0.040 A 
ATOM     18  C   UNL     1     -10.817  -6.950  16.643  0.00  0.00    +0.015 A 
ENDROOT
BRANCH   6   2
ATOM      2  S   UNL     1     -12.429  -4.260  11.508  0.00  0.00    +0.029 S 
ATOM      3  O   UNL     1     -11.584  -4.882  10.513  0.00  0.00    -0.158 OA
ATOM      4  O   UNL     1     -11.957  -3.167  12.330  0.00  0.00    -0.158 OA
ATOM     19  C   UNL     1     -13.924  -3.737  10.708  0.00  0.00    +0.215 C 
ENDBRANCH   6   2
BRANCH  17  20
ATOM     20  C   UNL     1      -8.974  -8.500  16.345  0.00  0.00    +0.014 C 
ATOM     21  C   UNL     1      -8.853  -9.392  17.335  0.00  0.00    +0.008 C 
BRANCH  21  22
ATOM      1 CL   UNL     1      -3.705 -11.798  19.151  0.00  0.00    -0.084 Cl
ATOM     22  C   UNL     1      -7.581  -9.987  17.784  0.00  0.00    -0.025 A 
ATOM     23  C   UNL     1      -6.451  -9.848  16.994  0.00  0.00    +0.009 A 
ATOM     24  C   UNL     1      -7.540 -10.672  18.987  0.00  0.00    +0.009 A 
ATOM     25  C   UNL     1      -5.248 -10.411  17.419  0.00  0.00    +0.020 A 
ATOM     26  C   UNL     1      -6.335 -11.234  19.412  0.00  0.00    +0.020 A 
ATOM     27  C   UNL     1      -5.189 -11.103  18.628  0.00  0.00    +0.041 A 
ENDBRANCH  21  22
ENDBRANCH  17  20
TORSDOF 3
ENDMDL
MODEL 8
REMARK VINA RESULT:      -6.4     27.752     30.393
REMARK  Name = 7143920
REMARK  4 active torsions:
REMARK  status: ('A' for Active; 'I' for Inactive)
REMARK    1  A    between atoms: S_2  and  N_6
REMARK    2  A    between atoms: S_2  and  C_19
REMARK    3  A    between atoms: C_17  and  C_20
REMARK    4  A    between atoms: C_21  and  C_22
REMARK                            x       y       z     vdW  Elec       q    Type
REMARK                         _______ _______ _______ _____ _____    ______ ____
ROOT
ATOM      5  O   UNL     1      -5.241 -12.108   9.732  0.00  0.00    -0.267 OA
ATOM      6  N   UNL     1      -3.894 -11.323  14.458  0.00  0.00    -0.180 NA
ATOM      7  N   UNL     1      -3.596 -11.694  11.332  0.00  0.00    -0.311 N 
ATOM      8  C   UNL     1      -3.077 -13.336  13.228  0.00  0.00    +0.025 C 
ATOM      9  C   UNL     1      -1.833 -11.226  13.069  0.00  0.00    +0.052 C 
ATOM     10  C   UNL     1      -1.677 -12.740  13.171  0.00  0.00    +0.017 C 
ATOM     11  C   UNL     1      -3.838 -12.813  14.457  0.00  0.00    +0.114 C 
ATOM     12  C   UNL     1      -2.545 -10.695  14.327  0.00  0.00    +0.118 C 
ATOM     13  C   UNL     1      -3.805 -13.028  11.913  0.00  0.00    +0.130 C 
ATOM     14  C   UNL     1      -2.607 -10.839  11.822  0.00  0.00    +0.026 A 
ATOM     15  C   UNL     1      -2.358  -9.674  11.204  0.00  0.00    +0.022 A 
ATOM     16  C   UNL     1      -4.373 -11.369  10.201  0.00  0.00    +0.259 A 
ATOM     17  C   UNL     1      -4.090 -10.044   9.545  0.00  0.00    +0.040 A 
ATOM     18  C   UNL     1      -3.115  -9.275  10.051  0.00  0.00    +0.015 A 
ENDROOT
BRANCH   6   2
ATOM      2  S   UNL     1      -4.926 -10.621  15.629  0.00  0.00    +0.029 S 
ATOM      3  O   UNL     1      -5.901  -9.793  14.955  0.00  0.00    -0.158 OA
ATOM      4  O   UNL     1      -4.119 -10.113  16.716  0.00  0.00    -0.158 OA
ATOM     19  C   UNL     1      -5.750 -12.086  16.196  0.00  0.00    +0.215 C 
ENDBRANCH   6   2
BRANCH  17  20
ATOM     20  C   UNL     1      -4.852  -9.632   8.394  0.00  0.00    +0.014 C 
ATOM     21  C   UNL     1      -6.089  -9.127   8.484  0.00  0.00    +0.008 C 
BRANCH  21  22
ATOM      1 CL   UNL     1      -9.418  -7.407   3.842  0.00  0.00    -0.084 Cl
ATOM     22  C   UNL     1      -6.911  -8.702   7.336  0.00  0.00    -0.025 A 
ATOM     23  C   UNL     1      -7.894  -7.744   7.524  0.00  0.00    +0.009 A 
ATOM     24  C   UNL     1      -6.684  -9.268   6.093  0.00  0.00    +0.009 A 
ATOM     25  C   UNL     1      -8.673  -7.343   6.439  0.00  0.00    +0.020 A 
ATOM     26  C   UNL     1      -7.463  -8.866   5.007  0.00  0.00    +0.020 A 
ATOM     27  C   UNL     1      -8.457  -7.903   5.180  0.00  0.00    +0.041 A 
ENDBRANCH  21  22
ENDBRANCH  17  20
TORSDOF 3
ENDMDL
MODEL 9
REMARK VINA RESULT:      -6.4      5.404      9.517
REMARK  Name = 7143920
REMARK  4 active torsions:
REMARK  status: ('A' for Active; 'I' for Inactive)
REMARK    1  A    between atoms: S_2  and  N_6
REMARK    2  A    between atoms: S_2  and  C_19
REMARK    3  A    between atoms: C_17  and  C_20
REMARK    4  A    between atoms: C_21  and  C_22
REMARK                            x       y       z     vdW  Elec       q    Type
REMARK                         _______ _______ _______ _____ _____    ______ ____
ROOT
ATOM      5  O   UNL     1      19.311   7.928  22.832  0.00  0.00    -0.267 OA
ATOM      6  N   UNL     1      23.834   7.175  20.899  0.00  0.00    -0.180 NA
ATOM      7  N   UNL     1      21.023   6.489  22.170  0.00  0.00    -0.311 N 
ATOM      8  C   UNL     1      23.342   6.518  23.257  0.00  0.00    +0.025 C 
ATOM      9  C   UNL     1      22.870   4.946  21.431  0.00  0.00    +0.052 C 
ATOM     10  C   UNL     1      23.390   5.048  22.862  0.00  0.00    +0.017 C 
ATOM     11  C   UNL     1      24.231   7.357  22.325  0.00  0.00    +0.114 C 
ATOM     12  C   UNL     1      23.795   5.739  20.489  0.00  0.00    +0.118 C 
ATOM     13  C   UNL     1      21.882   6.989  23.253  0.00  0.00    +0.130 C 
ATOM     14  C   UNL     1      21.446   5.458  21.329  0.00  0.00    +0.026 A 
ATOM     15  C   UNL     1      20.603   4.941  20.422  0.00  0.00    +0.022 A 
ATOM     16  C   UNL     1      19.723   7.032  22.093  0.00  0.00    +0.259 A 
ATOM     17  C   UNL     1      18.809   6.450  21.048  0.00  0.00    +0.040 A 
ATOM     18  C   UNL     1      19.267   5.449  20.283  0.00  0.00    +0.015 A 
ENDROOT
BRANCH   6   2
ATOM      2  S   UNL     1      24.573   8.242  19.783  0.00  0.00    +0.029 S 
ATOM      3  O   UNL     1      23.542   8.887  19.001  0.00  0.00    -0.158 OA
ATOM      4  O   UNL     1      25.688   7.564  19.159  0.00  0.00    -0.158 OA
ATOM     19  C   UNL     1      25.226   9.436  20.921  0.00  0.00    +0.215 C 
ENDBRANCH   6   2
BRANCH  17  20
ATOM     20  C   UNL     1      17.471   6.962  20.896  0.00  0.00    +0.014 C 
ATOM     21  C   UNL     1      16.629   6.529  19.950  0.00  0.00    +0.008 C 
BRANCH  21  22
ATOM      1 CL   UNL     1      11.075   8.549  19.138  0.00  0.00    -0.084 Cl
ATOM     22  C   UNL     1      15.257   7.028  19.749  0.00  0.00    -0.025 A 
ATOM     23  C   UNL     1      14.278   6.713  20.678  0.00  0.00    +0.009 A 
ATOM     24  C   UNL     1      14.973   7.803  18.637  0.00  0.00    +0.009 A 
ATOM     25  C   UNL     1      12.980   7.185  20.488  0.00  0.00    +0.020 A 
ATOM     26  C   UNL     1      13.674   8.276  18.447  0.00  0.00    +0.020 A 
ATOM     27  C   UNL     1      12.677   7.967  19.373  0.00  0.00    +0.041 A 
ENDBRANCH  21  22
ENDBRANCH  17  20
TORSDOF 3
ENDMDL
MODEL 10
REMARK VINA RESULT:      -6.4     15.495     19.234
REMARK  Name = 7143920
REMARK  4 active torsions:
REMARK  status: ('A' for Active; 'I' for Inactive)
REMARK    1  A    between atoms: S_2  and  N_6
REMARK    2  A    between atoms: S_2  and  C_19
REMARK    3  A    between atoms: C_17  and  C_20
REMARK    4  A    between atoms: C_21  and  C_22
REMARK                            x       y       z     vdW  Elec       q    Type
REMARK                         _______ _______ _______ _____ _____    ______ ____
ROOT
ATOM      5  O   UNL     1       9.407   7.472   1.764  0.00  0.00    -0.267 OA
ATOM      6  N   UNL     1      11.474   7.848   6.275  0.00  0.00    -0.180 NA
ATOM      7  N   UNL     1       9.639   6.723   3.960  0.00  0.00    -0.311 N 
ATOM      8  C   UNL     1       9.016   8.170   5.980  0.00  0.00    +0.025 C 
ATOM      9  C   UNL     1       9.914   5.912   6.328  0.00  0.00    +0.052 C 
ATOM     10  C   UNL     1       8.753   6.840   6.674  0.00  0.00    +0.017 C 
ATOM     11  C   UNL     1      10.333   8.787   6.476  0.00  0.00    +0.114 C 
ATOM     12  C   UNL     1      11.227   6.503   6.876  0.00  0.00    +0.118 C 
ATOM     13  C   UNL     1       9.006   7.952   4.462  0.00  0.00    +0.130 C 
ATOM     14  C   UNL     1      10.016   5.698   4.830  0.00  0.00    +0.026 A 
ATOM     15  C   UNL     1      10.486   4.540   4.341  0.00  0.00    +0.022 A 
ATOM     16  C   UNL     1       9.749   6.595   2.560  0.00  0.00    +0.259 A 
ATOM     17  C   UNL     1      10.304   5.295   2.042  0.00  0.00    +0.040 A 
ATOM     18  C   UNL     1      10.631   4.342   2.926  0.00  0.00    +0.015 A 
ENDROOT
BRANCH   6   2
ATOM      2  S   UNL     1      13.030   8.505   6.548  0.00  0.00    +0.029 S 
ATOM      3  O   UNL     1      13.922   7.440   6.953  0.00  0.00    -0.158 OA
ATOM      4  O   UNL     1      12.895   9.717   7.324  0.00  0.00    -0.158 OA
ATOM     19  C   UNL     1      13.443   8.962   4.884  0.00  0.00    +0.215 C 
ENDBRANCH   6   2
BRANCH  17  20
ATOM     20  C   UNL     1      10.462   5.094   0.624  0.00  0.00    +0.014 C 
ATOM     21  C   UNL     1      11.132   4.057   0.107  0.00  0.00    +0.008 C 
BRANCH  21  22
ATOM      1 CL   UNL     1      11.927   3.075  -5.723  0.00  0.00    -0.084 Cl
ATOM     22  C   UNL     1      11.329   3.814  -1.333  0.00  0.00    -0.025 A 
ATOM     23  C   UNL     1      10.605   4.559  -2.252  0.00  0.00    +0.009 A 
ATOM     24  C   UNL     1      12.233   2.847  -1.741  0.00  0.00    +0.009 A 
ATOM     25  C   UNL     1      10.791   4.328  -3.614  0.00  0.00    +0.020 A 
ATOM     26  C   UNL     1      12.419   2.618  -3.105  0.00  0.00    +0.020 A 
ATOM     27  C   UNL     1      11.698   3.359  -4.042  0.00  0.00    +0.041 A 
ENDBRANCH  21  22
ENDBRANCH  17  20
TORSDOF 3
ENDMDL
