MODEL 1
REMARK VINA RESULT:      -7.9      0.000      0.000
REMARK  Name = 11942333
REMARK  6 active torsions:
REMARK  status: ('A' for Active; 'I' for Inactive)
REMARK    1  A    between atoms: N_4  and  C_15
REMARK    2  A    between atoms: N_5  and  C_18
REMARK    3  A    between atoms: C_9  and  C_15
REMARK    4  A    between atoms: C_10  and  C_16
REMARK    5  A    between atoms: C_18  and  C_20
REMARK    6  A    between atoms: C_19  and  C_21
REMARK                            x       y       z     vdW  Elec       q    Type
REMARK                         _______ _______ _______ _____ _____    ______ ____
ROOT
ATOM      3  N   UNL     1     -17.945   3.268  26.142  0.00  0.00    -0.297 NA
ATOM      8  C   UNL     1     -17.953   0.743  26.771  0.00  0.00    +0.005 C 
ATOM      9  C   UNL     1     -16.974   2.530  25.289  0.00  0.00    +0.078 C 
ATOM     10  C   UNL     1     -17.749   1.627  28.016  0.00  0.00    +0.092 C 
ATOM     11  C   UNL     1     -16.847   1.059  25.744  0.00  0.00    +0.025 C 
ATOM     12  C   UNL     1     -19.294   1.161  26.144  0.00  0.00    +0.020 C 
ATOM     13  C   UNL     1     -17.605   3.095  27.577  0.00  0.00    +0.097 C 
ATOM     14  C   UNL     1     -19.290   2.683  25.912  0.00  0.00    +0.085 C 
ENDROOT
BRANCH  10  16
ATOM      2  O   UNL     1     -16.520   0.047  29.318  0.00  0.00    -0.275 OA
ATOM      5  N   UNL     1     -15.599   2.150  28.933  0.00  0.00    -0.311 N 
ATOM     16  C   UNL     1     -16.568   1.169  28.819  0.00  0.00    +0.218 C 
ATOM     32  H   UNL     1     -15.714   3.032  28.444  0.00  0.00    +0.149 HD
BRANCH   5  18
ATOM     18  C   UNL     1     -14.373   1.968  29.676  0.00  0.00    +0.139 C 
BRANCH  18  20
ATOM      1  F   UNL     1     -14.747   4.041  34.886  0.00  0.00    -0.205 F 
ATOM     20  C   UNL     1     -14.472   2.522  31.068  0.00  0.00    -0.030 A 
ATOM     22  C   UNL     1     -14.483   3.898  31.261  0.00  0.00    +0.008 A 
ATOM     23  C   UNL     1     -14.552   1.653  32.149  0.00  0.00    +0.008 A 
ATOM     26  C   UNL     1     -14.576   4.413  32.554  0.00  0.00    +0.038 A 
ATOM     27  C   UNL     1     -14.645   2.167  33.443  0.00  0.00    +0.038 A 
ATOM     28  C   UNL     1     -14.657   3.547  33.645  0.00  0.00    +0.123 A 
ENDBRANCH  18  20
ENDBRANCH   5  18
ENDBRANCH  10  16
BRANCH   9  15
ATOM     15  C   UNL     1     -15.613   3.225  25.222  0.00  0.00    +0.164 C 
BRANCH  15   4
ATOM      4  N   UNL     1     -15.411   3.892  23.947  0.00  0.00    -0.250 N 
ATOM      6  N   UNL     1     -16.242   3.658  22.926  0.00  0.00    -0.065 NA
ATOM      7  N   UNL     1     -15.816   4.395  21.907  0.00  0.00    -0.130 NA
ATOM     17  C   UNL     1     -14.435   4.774  23.628  0.00  0.00    +0.138 A 
ATOM     19  C   UNL     1     -14.711   5.085  22.320  0.00  0.00    +0.113 A 
BRANCH  19  21
ATOM     21  C   UNL     1     -13.964   5.988  21.505  0.00  0.00    +0.004 A 
ATOM     24  C   UNL     1     -14.621   6.846  20.616  0.00  0.00    +0.010 A 
ATOM     25  C   UNL     1     -12.567   6.022  21.586  0.00  0.00    +0.010 A 
ATOM     29  C   UNL     1     -13.890   7.728  19.819  0.00  0.00    +0.001 A 
ATOM     30  C   UNL     1     -11.837   6.905  20.790  0.00  0.00    +0.001 A 
ATOM     31  C   UNL     1     -12.499   7.757  19.906  0.00  0.00    +0.000 A 
ENDBRANCH  19  21
ENDBRANCH  15   4
ENDBRANCH   9  15
TORSDOF 6
ENDMDL
MODEL 2
REMARK VINA RESULT:      -7.3      2.651      4.020
REMARK  Name = 11942333
REMARK  6 active torsions:
REMARK  status: ('A' for Active; 'I' for Inactive)
REMARK    1  A    between atoms: N_4  and  C_15
REMARK    2  A    between atoms: N_5  and  C_18
REMARK    3  A    between atoms: C_9  and  C_15
REMARK    4  A    between atoms: C_10  and  C_16
REMARK    5  A    between atoms: C_18  and  C_20
REMARK    6  A    between atoms: C_19  and  C_21
REMARK                            x       y       z     vdW  Elec       q    Type
REMARK                         _______ _______ _______ _____ _____    ______ ____
ROOT
ATOM      3  N   UNL     1     -17.366   5.048  22.515  0.00  0.00    -0.297 NA
ATOM      8  C   UNL     1     -16.730   3.309  24.343  0.00  0.00    +0.005 C 
ATOM      9  C   UNL     1     -15.888   5.006  22.682  0.00  0.00    +0.078 C 
ATOM     10  C   UNL     1     -17.785   4.303  24.863  0.00  0.00    +0.092 C 
ATOM     11  C   UNL     1     -15.492   4.095  23.865  0.00  0.00    +0.025 C 
ATOM     12  C   UNL     1     -17.338   2.618  23.111  0.00  0.00    +0.020 C 
ATOM     13  C   UNL     1     -18.019   5.393  23.802  0.00  0.00    +0.097 C 
ATOM     14  C   UNL     1     -17.819   3.691  22.116  0.00  0.00    +0.085 C 
ENDROOT
BRANCH  10  16
ATOM      2  O   UNL     1     -17.393   6.100  26.385  0.00  0.00    -0.275 OA
ATOM      5  N   UNL     1     -16.976   3.919  27.084  0.00  0.00    -0.311 N 
ATOM     16  C   UNL     1     -17.377   4.889  26.182  0.00  0.00    +0.218 C 
ATOM     32  H   UNL     1     -17.043   2.938  26.833  0.00  0.00    +0.149 HD
BRANCH   5  18
ATOM     18  C   UNL     1     -16.513   4.224  28.419  0.00  0.00    +0.139 C 
BRANCH  18  20
ATOM      1  F   UNL     1     -13.437   0.048  30.583  0.00  0.00    -0.205 F 
ATOM     20  C   UNL     1     -15.692   3.109  28.997  0.00  0.00    -0.030 A 
ATOM     22  C   UNL     1     -16.000   1.791  28.679  0.00  0.00    +0.008 A 
ATOM     23  C   UNL     1     -14.631   3.404  29.845  0.00  0.00    +0.008 A 
ATOM     26  C   UNL     1     -15.237   0.755  29.216  0.00  0.00    +0.038 A 
ATOM     27  C   UNL     1     -13.867   2.368  30.382  0.00  0.00    +0.038 A 
ATOM     28  C   UNL     1     -14.171   1.043  30.068  0.00  0.00    +0.123 A 
ENDBRANCH  18  20
ENDBRANCH   5  18
ENDBRANCH  10  16
BRANCH   9  15
ATOM     15  C   UNL     1     -15.276   6.402  22.809  0.00  0.00    +0.164 C 
BRANCH  15   4
ATOM      4  N   UNL     1     -14.064   6.533  22.018  0.00  0.00    -0.250 N 
ATOM      6  N   UNL     1     -13.127   5.581  22.061  0.00  0.00    -0.065 NA
ATOM      7  N   UNL     1     -12.149   5.967  21.249  0.00  0.00    -0.130 NA
ATOM     17  C   UNL     1     -13.731   7.551  21.190  0.00  0.00    +0.138 A 
ATOM     19  C   UNL     1     -12.503   7.171  20.708  0.00  0.00    +0.113 A 
BRANCH  19  21
ATOM     21  C   UNL     1     -11.708   7.912  19.783  0.00  0.00    +0.004 A 
ATOM     24  C   UNL     1     -11.410   7.382  18.523  0.00  0.00    +0.010 A 
ATOM     25  C   UNL     1     -11.216   9.176  20.129  0.00  0.00    +0.010 A 
ATOM     29  C   UNL     1     -10.632   8.107  17.619  0.00  0.00    +0.001 A 
ATOM     30  C   UNL     1     -10.439   9.901  19.225  0.00  0.00    +0.001 A 
ATOM     31  C   UNL     1     -10.147   9.366  17.971  0.00  0.00    +0.000 A 
ENDBRANCH  19  21
ENDBRANCH  15   4
ENDBRANCH   9  15
TORSDOF 6
ENDMDL
MODEL 3
REMARK VINA RESULT:      -7.2     32.430     38.190
REMARK  Name = 11942333
REMARK  6 active torsions:
REMARK  status: ('A' for Active; 'I' for Inactive)
REMARK    1  A    between atoms: N_4  and  C_15
REMARK    2  A    between atoms: N_5  and  C_18
REMARK    3  A    between atoms: C_9  and  C_15
REMARK    4  A    between atoms: C_10  and  C_16
REMARK    5  A    between atoms: C_18  and  C_20
REMARK    6  A    between atoms: C_19  and  C_21
REMARK                            x       y       z     vdW  Elec       q    Type
REMARK                         _______ _______ _______ _____ _____    ______ ____
ROOT
ATOM      3  N   UNL     1      13.341   5.603   1.757  0.00  0.00    -0.297 NA
ATOM      8  C   UNL     1      14.375   4.013  -0.024  0.00  0.00    +0.005 C 
ATOM      9  C   UNL     1      12.548   4.347   1.678  0.00  0.00    +0.078 C 
ATOM     10  C   UNL     1      14.122   5.415  -0.609  0.00  0.00    +0.092 C 
ATOM     11  C   UNL     1      13.047   3.450   0.524  0.00  0.00    +0.025 C 
ATOM     12  C   UNL     1      15.324   4.195   1.173  0.00  0.00    +0.020 C 
ATOM     13  C   UNL     1      13.379   6.271   0.432  0.00  0.00    +0.097 C 
ATOM     14  C   UNL     1      14.730   5.243   2.134  0.00  0.00    +0.085 C 
ENDROOT
BRANCH  10  16
ATOM      2  O   UNL     1      12.462   6.118  -2.174  0.00  0.00    -0.275 OA
ATOM      5  N   UNL     1      13.805   4.291  -2.700  0.00  0.00    -0.311 N 
ATOM     16  C   UNL     1      13.369   5.335  -1.903  0.00  0.00    +0.218 C 
ATOM     32  H   UNL     1      14.596   3.727  -2.404  0.00  0.00    +0.149 HD
BRANCH   5  18
ATOM     18  C   UNL     1      13.227   3.985  -3.989  0.00  0.00    +0.139 C 
BRANCH  18  20
ATOM      1  F   UNL     1       8.452   1.061  -3.509  0.00  0.00    -0.205 F 
ATOM     20  C   UNL     1      11.952   3.203  -3.861  0.00  0.00    -0.030 A 
ATOM     22  C   UNL     1      11.769   2.360  -2.771  0.00  0.00    +0.008 A 
ATOM     23  C   UNL     1      10.967   3.331  -4.833  0.00  0.00    +0.008 A 
ATOM     26  C   UNL     1      10.583   1.635  -2.652  0.00  0.00    +0.038 A 
ATOM     27  C   UNL     1       9.781   2.606  -4.714  0.00  0.00    +0.038 A 
ATOM     28  C   UNL     1       9.590   1.757  -3.623  0.00  0.00    +0.123 A 
ENDBRANCH  18  20
ENDBRANCH   5  18
ENDBRANCH  10  16
BRANCH   9  15
ATOM     15  C   UNL     1      11.044   4.613   1.582  0.00  0.00    +0.164 C 
BRANCH  15   4
ATOM      4  N   UNL     1      10.524   5.215   2.798  0.00  0.00    -0.250 N 
ATOM      6  N   UNL     1       9.919   6.407   2.752  0.00  0.00    -0.065 NA
ATOM      7  N   UNL     1       9.554   6.701   3.995  0.00  0.00    -0.130 NA
ATOM     17  C   UNL     1      10.569   4.706   4.051  0.00  0.00    +0.138 A 
ATOM     19  C   UNL     1       9.944   5.669   4.802  0.00  0.00    +0.113 A 
BRANCH  19  21
ATOM     21  C   UNL     1       9.729   5.615   6.212  0.00  0.00    +0.004 A 
ATOM     24  C   UNL     1       9.282   6.746   6.904  0.00  0.00    +0.010 A 
ATOM     25  C   UNL     1       9.966   4.429   6.918  0.00  0.00    +0.010 A 
ATOM     29  C   UNL     1       9.072   6.692   8.282  0.00  0.00    +0.001 A 
ATOM     30  C   UNL     1       9.756   4.375   8.296  0.00  0.00    +0.001 A 
ATOM     31  C   UNL     1       9.309   5.507   8.978  0.00  0.00    +0.000 A 
ENDBRANCH  19  21
ENDBRANCH  15   4
ENDBRANCH   9  15
TORSDOF 6
ENDMDL
MODEL 4
REMARK VINA RESULT:      -7.2     31.811     37.301
REMARK  Name = 11942333
REMARK  6 active torsions:
REMARK  status: ('A' for Active; 'I' for Inactive)
REMARK    1  A    between atoms: N_4  and  C_15
REMARK    2  A    between atoms: N_5  and  C_18
REMARK    3  A    between atoms: C_9  and  C_15
REMARK    4  A    between atoms: C_10  and  C_16
REMARK    5  A    between atoms: C_18  and  C_20
REMARK    6  A    between atoms: C_19  and  C_21
REMARK                            x       y       z     vdW  Elec       q    Type
REMARK                         _______ _______ _______ _____ _____    ______ ____
ROOT
ATOM      3  N   UNL     1      13.105   5.740   1.107  0.00  0.00    -0.297 NA
ATOM      8  C   UNL     1      13.565   3.207   0.729  0.00  0.00    +0.005 C 
ATOM      9  C   UNL     1      12.180   4.927   1.941  0.00  0.00    +0.078 C 
ATOM     10  C   UNL     1      13.352   3.940  -0.609  0.00  0.00    +0.092 C 
ATOM     11  C   UNL     1      12.326   3.423   1.623  0.00  0.00    +0.025 C 
ATOM     12  C   UNL     1      14.757   3.887   1.425  0.00  0.00    +0.020 C 
ATOM     13  C   UNL     1      12.940   5.396  -0.328  0.00  0.00    +0.097 C 
ATOM     14  C   UNL     1      14.495   5.403   1.507  0.00  0.00    +0.085 C 
ENDROOT
BRANCH  10  16
ATOM      2  O   UNL     1      12.443   2.036  -1.725  0.00  0.00    -0.275 OA
ATOM      5  N   UNL     1      11.342   4.080  -1.905  0.00  0.00    -0.311 N 
ATOM     16  C   UNL     1      12.342   3.231  -1.461  0.00  0.00    +0.218 C 
ATOM     32  H   UNL     1      11.325   5.045  -1.591  0.00  0.00    +0.149 HD
BRANCH   5  18
ATOM     18  C   UNL     1      10.261   3.648  -2.761  0.00  0.00    +0.139 C 
BRANCH  18  20
ATOM      1  F   UNL     1       6.585   7.782  -3.751  0.00  0.00    -0.205 F 
ATOM     20  C   UNL     1       9.279   4.753  -3.026  0.00  0.00    -0.030 A 
ATOM     22  C   UNL     1       8.475   4.700  -4.158  0.00  0.00    +0.008 A 
ATOM     23  C   UNL     1       9.185   5.816  -2.136  0.00  0.00    +0.008 A 
ATOM     26  C   UNL     1       7.562   5.726  -4.403  0.00  0.00    +0.038 A 
ATOM     27  C   UNL     1       8.272   6.842  -2.382  0.00  0.00    +0.038 A 
ATOM     28  C   UNL     1       7.461   6.797  -3.516  0.00  0.00    +0.123 A 
ENDBRANCH  18  20
ENDBRANCH   5  18
ENDBRANCH  10  16
BRANCH   9  15
ATOM     15  C   UNL     1      10.728   5.394   1.825  0.00  0.00    +0.164 C 
BRANCH  15   4
ATOM      4  N   UNL     1      10.170   5.750   3.119  0.00  0.00    -0.250 N 
ATOM      6  N   UNL     1       9.323   6.779   3.226  0.00  0.00    -0.065 NA
ATOM      7  N   UNL     1       8.983   6.865   4.507  0.00  0.00    -0.130 NA
ATOM     17  C   UNL     1      10.403   5.145   4.307  0.00  0.00    +0.138 A 
ATOM     19  C   UNL     1       9.636   5.872   5.183  0.00  0.00    +0.113 A 
BRANCH  19  21
ATOM     21  C   UNL     1       9.528   5.638   6.586  0.00  0.00    +0.004 A 
ATOM     24  C   UNL     1       9.139   6.670   7.448  0.00  0.00    +0.010 A 
ATOM     25  C   UNL     1       9.813   4.374   7.115  0.00  0.00    +0.010 A 
ATOM     29  C   UNL     1       9.035   6.441   8.820  0.00  0.00    +0.001 A 
ATOM     30  C   UNL     1       9.708   4.145   8.487  0.00  0.00    +0.001 A 
ATOM     31  C   UNL     1       9.319   5.178   9.339  0.00  0.00    +0.000 A 
ENDBRANCH  19  21
ENDBRANCH  15   4
ENDBRANCH   9  15
TORSDOF 6
ENDMDL
MODEL 5
REMARK VINA RESULT:      -7.2     20.239     22.677
REMARK  Name = 11942333
REMARK  6 active torsions:
REMARK  status: ('A' for Active; 'I' for Inactive)
REMARK    1  A    between atoms: N_4  and  C_15
REMARK    2  A    between atoms: N_5  and  C_18
REMARK    3  A    between atoms: C_9  and  C_15
REMARK    4  A    between atoms: C_10  and  C_16
REMARK    5  A    between atoms: C_18  and  C_20
REMARK    6  A    between atoms: C_19  and  C_21
REMARK                            x       y       z     vdW  Elec       q    Type
REMARK                         _______ _______ _______ _____ _____    ______ ____
ROOT
ATOM      3  N   UNL     1      -7.047  -9.808   9.743  0.00  0.00    -0.297 NA
ATOM      8  C   UNL     1      -4.835  -8.789  10.658  0.00  0.00    +0.005 C 
ATOM      9  C   UNL     1      -7.164  -9.575  11.208  0.00  0.00    +0.078 C 
ATOM     10  C   UNL     1      -4.565 -10.072   9.849  0.00  0.00    +0.092 C 
ATOM     11  C   UNL     1      -5.815  -9.115  11.803  0.00  0.00    +0.025 C 
ATOM     12  C   UNL     1      -5.545  -7.807   9.710  0.00  0.00    +0.020 C 
ATOM     13  C   UNL     1      -5.908 -10.714   9.455  0.00  0.00    +0.097 C 
ATOM     14  C   UNL     1      -6.775  -8.501   9.094  0.00  0.00    +0.085 C 
ENDROOT
BRANCH  10  16
ATOM      2  O   UNL     1      -3.872 -12.240  10.570  0.00  0.00    -0.275 OA
ATOM      5  N   UNL     1      -2.733 -10.370  11.362  0.00  0.00    -0.311 N 
ATOM     16  C   UNL     1      -3.697 -11.024  10.615  0.00  0.00    +0.218 C 
ATOM     32  H   UNL     1      -2.642  -9.361  11.295  0.00  0.00    +0.149 HD
BRANCH   5  18
ATOM     18  C   UNL     1      -1.784 -11.059  12.207  0.00  0.00    +0.139 C 
BRANCH  18  20
ATOM      1  F   UNL     1      -3.371 -11.047  17.598  0.00  0.00    -0.205 F 
ATOM     20  C   UNL     1      -2.208 -11.056  13.647  0.00  0.00    -0.030 A 
ATOM     22  C   UNL     1      -3.308 -11.809  14.042  0.00  0.00    +0.008 A 
ATOM     23  C   UNL     1      -1.497 -10.299  14.571  0.00  0.00    +0.008 A 
ATOM     26  C   UNL     1      -3.701 -11.806  15.380  0.00  0.00    +0.038 A 
ATOM     27  C   UNL     1      -1.891 -10.296  15.909  0.00  0.00    +0.038 A 
ATOM     28  C   UNL     1      -2.993 -11.050  16.314  0.00  0.00    +0.123 A 
ENDBRANCH  18  20
ENDBRANCH   5  18
ENDBRANCH  10  16
BRANCH   9  15
ATOM     15  C   UNL     1      -7.728 -10.789  11.947  0.00  0.00    +0.164 C 
BRANCH  15   4
ATOM      4  N   UNL     1      -7.771 -10.574  13.384  0.00  0.00    -0.250 N 
ATOM      6  N   UNL     1      -8.572  -9.636  13.899  0.00  0.00    -0.065 NA
ATOM      7  N   UNL     1      -8.403  -9.667  15.216  0.00  0.00    -0.130 NA
ATOM     17  C   UNL     1      -7.067 -11.233  14.334  0.00  0.00    +0.138 A 
ATOM     19  C   UNL     1      -7.485 -10.640  15.499  0.00  0.00    +0.113 A 
BRANCH  19  21
ATOM     21  C   UNL     1      -7.035 -10.976  16.811  0.00  0.00    +0.004 A 
ATOM     24  C   UNL     1      -6.861 -12.316  17.177  0.00  0.00    +0.010 A 
ATOM     25  C   UNL     1      -6.766  -9.970  17.746  0.00  0.00    +0.010 A 
ATOM     29  C   UNL     1      -6.422 -12.645  18.459  0.00  0.00    +0.001 A 
ATOM     30  C   UNL     1      -6.326 -10.299  19.028  0.00  0.00    +0.001 A 
ATOM     31  C   UNL     1      -6.154 -11.636  19.385  0.00  0.00    +0.000 A 
ENDBRANCH  19  21
ENDBRANCH  15   4
ENDBRANCH   9  15
TORSDOF 6
ENDMDL
MODEL 6
REMARK VINA RESULT:      -7.1     18.143     19.805
REMARK  Name = 11942333
REMARK  6 active torsions:
REMARK  status: ('A' for Active; 'I' for Inactive)
REMARK    1  A    between atoms: N_4  and  C_15
REMARK    2  A    between atoms: N_5  and  C_18
REMARK    3  A    between atoms: C_9  and  C_15
REMARK    4  A    between atoms: C_10  and  C_16
REMARK    5  A    between atoms: C_18  and  C_20
REMARK    6  A    between atoms: C_19  and  C_21
REMARK                            x       y       z     vdW  Elec       q    Type
REMARK                         _______ _______ _______ _____ _____    ______ ____
ROOT
ATOM      3  N   UNL     1      -6.009 -12.393  17.515  0.00  0.00    -0.297 NA
ATOM      8  C   UNL     1      -6.617 -10.985  19.617  0.00  0.00    +0.005 C 
ATOM      9  C   UNL     1      -6.021 -10.946  17.170  0.00  0.00    +0.078 C 
ATOM     10  C   UNL     1      -7.653 -12.099  19.373  0.00  0.00    +0.092 C 
ATOM     11  C   UNL     1      -6.527 -10.099  18.358  0.00  0.00    +0.025 C 
ATOM     12  C   UNL     1      -5.253 -11.677  19.790  0.00  0.00    +0.020 C 
ATOM     13  C   UNL     1      -7.332 -12.806  18.045  0.00  0.00    +0.097 C 
ATOM     14  C   UNL     1      -4.998 -12.599  18.583  0.00  0.00    +0.085 C 
ENDROOT
BRANCH  10  16
ATOM      2  O   UNL     1      -9.577 -11.156  20.426  0.00  0.00    -0.275 OA
ATOM      5  N   UNL     1      -9.640 -11.584  18.138  0.00  0.00    -0.311 N 
ATOM     16  C   UNL     1      -9.050 -11.554  19.390  0.00  0.00    +0.218 C 
ATOM     32  H   UNL     1      -9.101 -11.891  17.335  0.00  0.00    +0.149 HD
BRANCH   5  18
ATOM     18  C   UNL     1     -10.991 -11.136  17.890  0.00  0.00    +0.139 C 
BRANCH  18  20
ATOM      1  F   UNL     1     -11.155  -5.770  16.228  0.00  0.00    -0.205 F 
ATOM     20  C   UNL     1     -11.035  -9.703  17.446  0.00  0.00    -0.030 A 
ATOM     22  C   UNL     1     -12.242  -9.146  17.038  0.00  0.00    +0.008 A 
ATOM     23  C   UNL     1      -9.869  -8.947  17.446  0.00  0.00    +0.008 A 
ATOM     26  C   UNL     1     -12.282  -7.814  16.626  0.00  0.00    +0.038 A 
ATOM     27  C   UNL     1      -9.909  -7.615  17.034  0.00  0.00    +0.038 A 
ATOM     28  C   UNL     1     -11.116  -7.049  16.623  0.00  0.00    +0.123 A 
ENDBRANCH  18  20
ENDBRANCH   5  18
ENDBRANCH  10  16
BRANCH   9  15
ATOM     15  C   UNL     1      -6.808 -10.659  15.890  0.00  0.00    +0.164 C 
BRANCH  15   4
ATOM      4  N   UNL     1      -5.930 -10.475  14.746  0.00  0.00    -0.250 N 
ATOM      6  N   UNL     1      -4.638 -10.807  14.830  0.00  0.00    -0.065 NA
ATOM      7  N   UNL     1      -4.093 -10.532  13.651  0.00  0.00    -0.130 NA
ATOM     17  C   UNL     1      -6.260  -9.983  13.530  0.00  0.00    +0.138 A 
ATOM     19  C   UNL     1      -5.073 -10.027  12.843  0.00  0.00    +0.113 A 
BRANCH  19  21
ATOM     21  C   UNL     1      -4.878  -9.611  11.492  0.00  0.00    +0.004 A 
ATOM     24  C   UNL     1      -3.593  -9.583  10.938  0.00  0.00    +0.010 A 
ATOM     25  C   UNL     1      -5.971  -9.225  10.707  0.00  0.00    +0.010 A 
ATOM     29  C   UNL     1      -3.403  -9.175   9.618  0.00  0.00    +0.001 A 
ATOM     30  C   UNL     1      -5.781  -8.818   9.386  0.00  0.00    +0.001 A 
ATOM     31  C   UNL     1      -4.497  -8.793   8.842  0.00  0.00    +0.000 A 
ENDBRANCH  19  21
ENDBRANCH  15   4
ENDBRANCH   9  15
TORSDOF 6
ENDMDL
MODEL 7
REMARK VINA RESULT:      -7.1      1.848      2.406
REMARK  Name = 11942333
REMARK  6 active torsions:
REMARK  status: ('A' for Active; 'I' for Inactive)
REMARK    1  A    between atoms: N_4  and  C_15
REMARK    2  A    between atoms: N_5  and  C_18
REMARK    3  A    between atoms: C_9  and  C_15
REMARK    4  A    between atoms: C_10  and  C_16
REMARK    5  A    between atoms: C_18  and  C_20
REMARK    6  A    between atoms: C_19  and  C_21
REMARK                            x       y       z     vdW  Elec       q    Type
REMARK                         _______ _______ _______ _____ _____    ______ ____
ROOT
ATOM      3  N   UNL     1     -18.009   2.943  24.317  0.00  0.00    -0.297 NA
ATOM      8  C   UNL     1     -17.059   1.910  26.509  0.00  0.00    +0.005 C 
ATOM      9  C   UNL     1     -16.609   3.400  24.527  0.00  0.00    +0.078 C 
ATOM     10  C   UNL     1     -18.408   2.610  26.761  0.00  0.00    +0.092 C 
ATOM     11  C   UNL     1     -16.073   2.926  25.897  0.00  0.00    +0.025 C 
ATOM     12  C   UNL     1     -17.314   0.823  25.450  0.00  0.00    +0.020 C 
ATOM     13  C   UNL     1     -18.855   3.327  25.475  0.00  0.00    +0.097 C 
ATOM     14  C   UNL     1     -17.996   1.461  24.225  0.00  0.00    +0.085 C 
ENDROOT
BRANCH  10  16
ATOM      2  O   UNL     1     -18.638   4.738  27.820  0.00  0.00    -0.275 OA
ATOM      5  N   UNL     1     -17.832   2.940  29.062  0.00  0.00    -0.311 N 
ATOM     16  C   UNL     1     -18.320   3.555  27.922  0.00  0.00    +0.218 C 
ATOM     32  H   UNL     1     -17.641   1.943  29.055  0.00  0.00    +0.149 HD
BRANCH   5  18
ATOM     18  C   UNL     1     -17.630   3.638  30.312  0.00  0.00    +0.139 C 
BRANCH  18  20
ATOM      1  F   UNL     1     -12.331   3.203  32.131  0.00  0.00    -0.205 F 
ATOM     20  C   UNL     1     -16.214   3.521  30.798  0.00  0.00    -0.030 A 
ATOM     22  C   UNL     1     -15.204   3.198  29.900  0.00  0.00    +0.008 A 
ATOM     23  C   UNL     1     -15.929   3.738  32.141  0.00  0.00    +0.008 A 
ATOM     26  C   UNL     1     -13.888   3.091  30.352  0.00  0.00    +0.038 A 
ATOM     27  C   UNL     1     -14.614   3.630  32.592  0.00  0.00    +0.038 A 
ATOM     28  C   UNL     1     -13.593   3.306  31.698  0.00  0.00    +0.123 A 
ENDBRANCH  18  20
ENDBRANCH   5  18
ENDBRANCH  10  16
BRANCH   9  15
ATOM     15  C   UNL     1     -16.457   4.912  24.349  0.00  0.00    +0.164 C 
BRANCH  15   4
ATOM      4  N   UNL     1     -15.504   5.238  23.302  0.00  0.00    -0.250 N 
ATOM      6  N   UNL     1     -15.138   4.309  22.412  0.00  0.00    -0.065 NA
ATOM      7  N   UNL     1     -14.271   4.886  21.589  0.00  0.00    -0.130 NA
ATOM     17  C   UNL     1     -14.897   6.428  23.087  0.00  0.00    +0.138 A 
ATOM     19  C   UNL     1     -14.112   6.184  21.988  0.00  0.00    +0.113 A 
BRANCH  19  21
ATOM     21  C   UNL     1     -13.256   7.132  21.350  0.00  0.00    +0.004 A 
ATOM     24  C   UNL     1     -12.047   6.719  20.777  0.00  0.00    +0.010 A 
ATOM     25  C   UNL     1     -13.616   8.483  21.294  0.00  0.00    +0.010 A 
ATOM     29  C   UNL     1     -11.211   7.646  20.155  0.00  0.00    +0.001 A 
ATOM     30  C   UNL     1     -12.779   9.409  20.670  0.00  0.00    +0.001 A 
ATOM     31  C   UNL     1     -11.577   8.991  20.101  0.00  0.00    +0.000 A 
ENDBRANCH  19  21
ENDBRANCH  15   4
ENDBRANCH   9  15
TORSDOF 6
ENDMDL
MODEL 8
REMARK VINA RESULT:      -7.1     18.788     21.044
REMARK  Name = 11942333
REMARK  6 active torsions:
REMARK  status: ('A' for Active; 'I' for Inactive)
REMARK    1  A    between atoms: N_4  and  C_15
REMARK    2  A    between atoms: N_5  and  C_18
REMARK    3  A    between atoms: C_9  and  C_15
REMARK    4  A    between atoms: C_10  and  C_16
REMARK    5  A    between atoms: C_18  and  C_20
REMARK    6  A    between atoms: C_19  and  C_21
REMARK                            x       y       z     vdW  Elec       q    Type
REMARK                         _______ _______ _______ _____ _____    ______ ____
ROOT
ATOM      3  N   UNL     1      -6.118 -10.496  17.511  0.00  0.00    -0.297 NA
ATOM      8  C   UNL     1      -4.048 -12.072  17.512  0.00  0.00    +0.005 C 
ATOM      9  C   UNL     1      -6.494 -11.826  16.960  0.00  0.00    +0.078 C 
ATOM     10  C   UNL     1      -3.730 -10.735  16.817  0.00  0.00    +0.092 C 
ATOM     11  C   UNL     1      -5.251 -12.731  16.807  0.00  0.00    +0.025 C 
ATOM     12  C   UNL     1      -4.486 -11.734  18.948  0.00  0.00    +0.020 C 
ATOM     13  C   UNL     1      -5.019  -9.900  16.712  0.00  0.00    +0.097 C 
ATOM     14  C   UNL     1      -5.626 -10.699  18.897  0.00  0.00    +0.085 C 
ENDROOT
BRANCH  10  16
ATOM      2  O   UNL     1      -2.003 -11.498  15.355  0.00  0.00    -0.275 OA
ATOM      5  N   UNL     1      -3.881 -10.469  14.441  0.00  0.00    -0.311 N 
ATOM     16  C   UNL     1      -3.100 -10.957  15.474  0.00  0.00    +0.218 C 
ATOM     32  H   UNL     1      -4.797 -10.079  14.643  0.00  0.00    +0.149 HD
BRANCH   5  18
ATOM     18  C   UNL     1      -3.489 -10.539  13.052  0.00  0.00    +0.139 C 
BRANCH  18  20
ATOM      1  F   UNL     1      -7.347  -8.260   9.660  0.00  0.00    -0.205 F 
ATOM     20  C   UNL     1      -4.520  -9.931  12.146  0.00  0.00    -0.030 A 
ATOM     22  C   UNL     1      -5.827  -9.784  12.593  0.00  0.00    +0.008 A 
ATOM     23  C   UNL     1      -4.156  -9.520  10.869  0.00  0.00    +0.008 A 
ATOM     26  C   UNL     1      -6.785  -9.218  11.751  0.00  0.00    +0.038 A 
ATOM     27  C   UNL     1      -5.113  -8.954  10.027  0.00  0.00    +0.038 A 
ATOM     28  C   UNL     1      -6.428  -8.804  10.468  0.00  0.00    +0.123 A 
ENDBRANCH  18  20
ENDBRANCH   5  18
ENDBRANCH  10  16
BRANCH   9  15
ATOM     15  C   UNL     1      -7.280 -11.715  15.653  0.00  0.00    +0.164 C 
BRANCH  15   4
ATOM      4  N   UNL     1      -8.477 -10.905  15.811  0.00  0.00    -0.250 N 
ATOM      6  N   UNL     1      -9.499 -11.353  16.548  0.00  0.00    -0.065 NA
ATOM      7  N   UNL     1     -10.438 -10.415  16.512  0.00  0.00    -0.130 NA
ATOM     17  C   UNL     1      -8.716  -9.683  15.283  0.00  0.00    +0.138 A 
ATOM     19  C   UNL     1      -9.975  -9.385  15.741  0.00  0.00    +0.113 A 
BRANCH  19  21
ATOM     21  C   UNL     1     -10.700  -8.188  15.463  0.00  0.00    +0.004 A 
ATOM     24  C   UNL     1     -11.494  -8.094  14.314  0.00  0.00    +0.010 A 
ATOM     25  C   UNL     1     -10.623  -7.096  16.335  0.00  0.00    +0.010 A 
ATOM     29  C   UNL     1     -12.202  -6.923  14.042  0.00  0.00    +0.001 A 
ATOM     30  C   UNL     1     -11.332  -5.926  16.063  0.00  0.00    +0.001 A 
ATOM     31  C   UNL     1     -12.122  -5.840  14.916  0.00  0.00    +0.000 A 
ENDBRANCH  19  21
ENDBRANCH  15   4
ENDBRANCH   9  15
TORSDOF 6
ENDMDL
MODEL 9
REMARK VINA RESULT:      -7.0     31.815     34.461
REMARK  Name = 11942333
REMARK  6 active torsions:
REMARK  status: ('A' for Active; 'I' for Inactive)
REMARK    1  A    between atoms: N_4  and  C_15
REMARK    2  A    between atoms: N_5  and  C_18
REMARK    3  A    between atoms: C_9  and  C_15
REMARK    4  A    between atoms: C_10  and  C_16
REMARK    5  A    between atoms: C_18  and  C_20
REMARK    6  A    between atoms: C_19  and  C_21
REMARK                            x       y       z     vdW  Elec       q    Type
REMARK                         _______ _______ _______ _____ _____    ______ ____
ROOT
ATOM      3  N   UNL     1      10.089   8.647   6.411  0.00  0.00    -0.297 NA
ATOM      8  C   UNL     1       8.987   6.305   6.680  0.00  0.00    +0.005 C 
ATOM      9  C   UNL     1       8.742   8.645   5.780  0.00  0.00    +0.078 C 
ATOM     10  C   UNL     1      10.397   6.191   6.071  0.00  0.00    +0.092 C 
ATOM     11  C   UNL     1       8.129   7.227   5.790  0.00  0.00    +0.025 C 
ATOM     12  C   UNL     1       9.146   7.001   8.043  0.00  0.00    +0.020 C 
ATOM     13  C   UNL     1      10.946   7.602   5.797  0.00  0.00    +0.097 C 
ATOM     14  C   UNL     1       9.919   8.320   7.849  0.00  0.00    +0.085 C 
ENDROOT
BRANCH  10  16
ATOM      2  O   UNL     1      10.198   4.135   4.875  0.00  0.00    -0.275 OA
ATOM      5  N   UNL     1      10.629   6.092   3.689  0.00  0.00    -0.311 N 
ATOM     16  C   UNL     1      10.386   5.348   4.831  0.00  0.00    +0.218 C 
ATOM     32  H   UNL     1      10.727   7.100   3.756  0.00  0.00    +0.149 HD
BRANCH   5  18
ATOM     18  C   UNL     1      10.694   5.512   2.367  0.00  0.00    +0.139 C 
BRANCH  18  20
ATOM      1  F   UNL     1      15.779   3.400   1.241  0.00  0.00    -0.205 F 
ATOM     20  C   UNL     1      12.052   4.948   2.067  0.00  0.00    -0.030 A 
ATOM     22  C   UNL     1      12.184   3.598   1.763  0.00  0.00    +0.008 A 
ATOM     23  C   UNL     1      13.164   5.781   2.096  0.00  0.00    +0.008 A 
ATOM     26  C   UNL     1      13.446   3.074   1.483  0.00  0.00    +0.038 A 
ATOM     27  C   UNL     1      14.426   5.257   1.816  0.00  0.00    +0.038 A 
ATOM     28  C   UNL     1      14.567   3.903   1.510  0.00  0.00    +0.123 A 
ENDBRANCH  18  20
ENDBRANCH   5  18
ENDBRANCH  10  16
BRANCH   9  15
ATOM     15  C   UNL     1       8.756   9.248   4.374  0.00  0.00    +0.164 C 
BRANCH  15   4
ATOM      4  N   UNL     1       7.435   9.694   3.964  0.00  0.00    -0.250 N 
ATOM      6  N   UNL     1       6.685  10.427   4.794  0.00  0.00    -0.065 NA
ATOM      7  N   UNL     1       5.547  10.683   4.159  0.00  0.00    -0.130 NA
ATOM     17  C   UNL     1       6.818   9.454   2.784  0.00  0.00    +0.138 A 
ATOM     19  C   UNL     1       5.612  10.094   2.927  0.00  0.00    +0.113 A 
BRANCH  19  21
ATOM     21  C   UNL     1       4.576  10.144   1.947  0.00  0.00    +0.004 A 
ATOM     24  C   UNL     1       4.783   9.605   0.671  0.00  0.00    +0.010 A 
ATOM     25  C   UNL     1       3.344  10.733   2.251  0.00  0.00    +0.010 A 
ATOM     29  C   UNL     1       3.770   9.655  -0.286  0.00  0.00    +0.001 A 
ATOM     30  C   UNL     1       2.331  10.782   1.293  0.00  0.00    +0.001 A 
ATOM     31  C   UNL     1       2.544  10.242   0.024  0.00  0.00    +0.000 A 
ENDBRANCH  19  21
ENDBRANCH  15   4
ENDBRANCH   9  15
TORSDOF 6
ENDMDL
MODEL 10
REMARK VINA RESULT:      -7.0     31.065     34.823
REMARK  Name = 11942333
REMARK  6 active torsions:
REMARK  status: ('A' for Active; 'I' for Inactive)
REMARK    1  A    between atoms: N_4  and  C_15
REMARK    2  A    between atoms: N_5  and  C_18
REMARK    3  A    between atoms: C_9  and  C_15
REMARK    4  A    between atoms: C_10  and  C_16
REMARK    5  A    between atoms: C_18  and  C_20
REMARK    6  A    between atoms: C_19  and  C_21
REMARK                            x       y       z     vdW  Elec       q    Type
REMARK                         _______ _______ _______ _____ _____    ______ ____
ROOT
ATOM      3  N   UNL     1      10.719   7.040   7.194  0.00  0.00    -0.297 NA
ATOM      8  C   UNL     1       9.463   5.120   5.966  0.00  0.00    +0.005 C 
ATOM      9  C   UNL     1       9.342   7.479   6.843  0.00  0.00    +0.078 C 
ATOM     10  C   UNL     1      10.824   5.409   5.304  0.00  0.00    +0.092 C 
ATOM     11  C   UNL     1       8.627   6.416   5.980  0.00  0.00    +0.025 C 
ATOM     12  C   UNL     1       9.752   4.745   7.430  0.00  0.00    +0.020 C 
ATOM     13  C   UNL     1      11.459   6.642   5.970  0.00  0.00    +0.097 C 
ATOM     14  C   UNL     1      10.609   5.851   8.075  0.00  0.00    +0.085 C 
ENDROOT
BRANCH  10  16
ATOM      2  O   UNL     1      10.594   6.705   3.312  0.00  0.00    -0.275 OA
ATOM      5  N   UNL     1      10.632   4.383   3.149  0.00  0.00    -0.311 N 
ATOM     16  C   UNL     1      10.679   5.591   3.823  0.00  0.00    +0.218 C 
ATOM     32  H   UNL     1      10.756   3.515   3.660  0.00  0.00    +0.149 HD
BRANCH   5  18
ATOM     18  C   UNL     1      10.472   4.283   1.716  0.00  0.00    +0.139 C 
BRANCH  18  20
ATOM      1  F   UNL     1      15.410   3.752  -0.915  0.00  0.00    -0.205 F 
ATOM     20  C   UNL     1      11.791   4.140   1.013  0.00  0.00    -0.030 A 
ATOM     22  C   UNL     1      11.910   4.538  -0.314  0.00  0.00    +0.008 A 
ATOM     23  C   UNL     1      12.880   3.612   1.696  0.00  0.00    +0.008 A 
ATOM     26  C   UNL     1      13.135   4.406  -0.966  0.00  0.00    +0.038 A 
ATOM     27  C   UNL     1      14.106   3.481   1.043  0.00  0.00    +0.038 A 
ATOM     28  C   UNL     1      14.234   3.877  -0.288  0.00  0.00    +0.123 A 
ENDBRANCH  18  20
ENDBRANCH   5  18
ENDBRANCH  10  16
BRANCH   9  15
ATOM     15  C   UNL     1       9.320   8.857   6.181  0.00  0.00    +0.164 C 
BRANCH  15   4
ATOM      4  N   UNL     1       9.618   9.917   7.130  0.00  0.00    -0.250 N 
ATOM      6  N   UNL     1      10.178  11.057   6.711  0.00  0.00    -0.065 NA
ATOM      7  N   UNL     1      10.331  11.826   7.782  0.00  0.00    -0.130 NA
ATOM     17  C   UNL     1       9.393   9.911   8.464  0.00  0.00    +0.138 A 
ATOM     19  C   UNL     1       9.856  11.139   8.864  0.00  0.00    +0.113 A 
BRANCH  19  21
ATOM     21  C   UNL     1       9.848  11.635  10.203  0.00  0.00    +0.004 A 
ATOM     24  C   UNL     1       8.636  11.893  10.854  0.00  0.00    +0.010 A 
ATOM     25  C   UNL     1      11.052  11.869  10.877  0.00  0.00    +0.010 A 
ATOM     29  C   UNL     1       8.629  12.378  12.162  0.00  0.00    +0.001 A 
ATOM     30  C   UNL     1      11.044  12.354  12.185  0.00  0.00    +0.001 A 
ATOM     31  C   UNL     1       9.832  12.608  12.827  0.00  0.00    +0.000 A 
ENDBRANCH  19  21
ENDBRANCH  15   4
ENDBRANCH   9  15
TORSDOF 6
ENDMDL
