MODEL 1
REMARK VINA RESULT:      -5.5      0.000      0.000
REMARK  Name = 75536742
REMARK  4 active torsions:
REMARK  status: ('A' for Active; 'I' for Inactive)
REMARK    1  A    between atoms: O_2  and  C_9
REMARK    2  A    between atoms: N_5  and  C_12
REMARK    3  A    between atoms: N_6  and  C_10
REMARK    4  A    between atoms: C_8  and  C_12
REMARK                            x       y       z     vdW  Elec       q    Type
REMARK                         _______ _______ _______ _____ _____    ______ ____
ROOT
ATOM     12  C   UNL     1      11.278   8.480  19.922  0.00  0.00    +0.140 C 
ENDROOT
BRANCH  12   5
ATOM      3  O   UNL     1      12.353  13.081  24.267  0.00  0.00    -0.377 OA
ATOM      4  O   UNL     1      10.376   8.878  22.559  0.00  0.00    -0.253 OA
ATOM      5  N   UNL     1      11.502   9.666  20.721  0.00  0.00    -0.297 N 
ATOM      7  N   UNL     1      11.314  10.998  22.664  0.00  0.00    -0.281 N 
ATOM     13  C   UNL     1      11.939  12.177  22.049  0.00  0.00    +0.137 C 
ATOM     14  C   UNL     1      10.840  11.212  24.033  0.00  0.00    +0.137 C 
ATOM     15  C   UNL     1      11.021   9.784  22.020  0.00  0.00    +0.302 C 
ATOM     16  C   UNL     1      12.950  12.814  22.997  0.00  0.00    +0.179 C 
ATOM     17  C   UNL     1      11.914  11.871  24.886  0.00  0.00    +0.179 C 
ATOM     18  H   UNL     1      12.014  10.411  20.272  0.00  0.00    +0.150 HD
ENDBRANCH  12   5
BRANCH  12   8
ATOM      1  O   UNL     1      13.612   8.501  19.292  0.00  0.00    -0.371 OA
ATOM      8  C   UNL     1      12.549   7.663  19.773  0.00  0.00    +0.165 C 
ATOM      9  C   UNL     1      13.041   7.069  21.085  0.00  0.00    +0.164 C 
ATOM     10  C   UNL     1      14.520   6.900  20.793  0.00  0.00    +0.108 C 
ATOM     11  C   UNL     1      14.816   8.164  20.002  0.00  0.00    +0.181 C 
BRANCH  10   6
ATOM      6  N   UNL     1      15.340   6.774  21.987  0.00  0.00    -0.323 NA
ATOM     19  H   UNL     1      15.444   5.790  22.230  0.00  0.00    +0.119 HD
ATOM     20  H   UNL     1      16.277   7.129  21.800  0.00  0.00    +0.119 HD
ENDBRANCH  10   6
BRANCH   9   2
ATOM      2  O   UNL     1      12.399   5.845  21.384  0.00  0.00    -0.388 OA
ATOM     21  H   UNL     1      11.647   6.030  21.972  0.00  0.00    +0.210 HD
ENDBRANCH   9   2
ENDBRANCH  12   8
TORSDOF 4
ENDMDL
MODEL 2
REMARK VINA RESULT:      -5.5     29.918     31.990
REMARK  Name = 75536742
REMARK  4 active torsions:
REMARK  status: ('A' for Active; 'I' for Inactive)
REMARK    1  A    between atoms: O_2  and  C_9
REMARK    2  A    between atoms: N_5  and  C_12
REMARK    3  A    between atoms: N_6  and  C_10
REMARK    4  A    between atoms: C_8  and  C_12
REMARK                            x       y       z     vdW  Elec       q    Type
REMARK                         _______ _______ _______ _____ _____    ______ ____
ROOT
ATOM     12  C   UNL     1      -0.207  -0.109  -5.941  0.00  0.00    +0.140 C 
ENDROOT
BRANCH  12   5
ATOM      3  O   UNL     1       2.869   5.515  -5.614  0.00  0.00    -0.377 OA
ATOM      4  O   UNL     1      -0.055   1.883  -3.957  0.00  0.00    -0.253 OA
ATOM      5  N   UNL     1       0.421   1.185  -6.091  0.00  0.00    -0.297 N 
ATOM      7  N   UNL     1       1.094   3.330  -5.360  0.00  0.00    -0.281 N 
ATOM     13  C   UNL     1       1.589   3.745  -6.680  0.00  0.00    +0.137 C 
ATOM     14  C   UNL     1       1.169   4.371  -4.333  0.00  0.00    +0.137 C 
ATOM     15  C   UNL     1       0.454   2.116  -5.059  0.00  0.00    +0.302 C 
ATOM     16  C   UNL     1       2.938   4.447  -6.559  0.00  0.00    +0.179 C 
ATOM     17  C   UNL     1       2.544   5.021  -4.313  0.00  0.00    +0.179 C 
ATOM     18  H   UNL     1       0.821   1.380  -6.998  0.00  0.00    +0.150 HD
ENDBRANCH  12   5
BRANCH  12   8
ATOM      1  O   UNL     1      -1.736  -1.706  -6.919  0.00  0.00    -0.371 OA
ATOM      8  C   UNL     1      -1.098  -0.435  -7.126  0.00  0.00    +0.165 C 
ATOM      9  C   UNL     1      -2.221   0.571  -7.330  0.00  0.00    +0.164 C 
ATOM     10  C   UNL     1      -3.240  -0.274  -8.071  0.00  0.00    +0.108 C 
ATOM     11  C   UNL     1      -3.103  -1.607  -7.353  0.00  0.00    +0.181 C 
BRANCH  10   6
ATOM      6  N   UNL     1      -4.592   0.261  -8.018  0.00  0.00    -0.323 NA
ATOM     19  H   UNL     1      -5.052  -0.051  -7.165  0.00  0.00    +0.119 HD
ATOM     20  H   UNL     1      -4.557   1.279  -7.975  0.00  0.00    +0.119 HD
ENDBRANCH  10   6
BRANCH   9   2
ATOM      2  O   UNL     1      -1.795   1.693  -8.079  0.00  0.00    -0.388 OA
ATOM     21  H   UNL     1      -2.492   1.917  -8.718  0.00  0.00    +0.210 HD
ENDBRANCH   9   2
ENDBRANCH  12   8
TORSDOF 4
ENDMDL
MODEL 3
REMARK VINA RESULT:      -5.5      1.969      2.499
REMARK  Name = 75536742
REMARK  4 active torsions:
REMARK  status: ('A' for Active; 'I' for Inactive)
REMARK    1  A    between atoms: O_2  and  C_9
REMARK    2  A    between atoms: N_5  and  C_12
REMARK    3  A    between atoms: N_6  and  C_10
REMARK    4  A    between atoms: C_8  and  C_12
REMARK                            x       y       z     vdW  Elec       q    Type
REMARK                         _______ _______ _______ _____ _____    ______ ____
ROOT
ATOM     12  C   UNL     1      12.960   8.560  21.909  0.00  0.00    +0.140 C 
ENDROOT
BRANCH  12   5
ATOM      3  O   UNL     1      11.905  13.539  25.819  0.00  0.00    -0.377 OA
ATOM      4  O   UNL     1      10.657  10.049  22.541  0.00  0.00    -0.253 OA
ATOM      5  N   UNL     1      12.927   9.764  22.710  0.00  0.00    -0.297 N 
ATOM      7  N   UNL     1      11.875  11.599  23.764  0.00  0.00    -0.281 N 
ATOM     13  C   UNL     1      13.137  12.217  24.193  0.00  0.00    +0.137 C 
ATOM     14  C   UNL     1      10.680  12.380  24.089  0.00  0.00    +0.137 C 
ATOM     15  C   UNL     1      11.744  10.442  22.977  0.00  0.00    +0.302 C 
ATOM     16  C   UNL     1      13.044  12.697  25.638  0.00  0.00    +0.179 C 
ATOM     17  C   UNL     1      10.698  12.827  25.542  0.00  0.00    +0.179 C 
ATOM     18  H   UNL     1      13.819  10.094  23.050  0.00  0.00    +0.150 HD
ENDBRANCH  12   5
BRANCH  12   8
ATOM      1  O   UNL     1      14.134   8.617  19.796  0.00  0.00    -0.371 OA
ATOM      8  C   UNL     1      12.869   8.876  20.427  0.00  0.00    +0.165 C 
ATOM      9  C   UNL     1      11.849   8.020  19.690  0.00  0.00    +0.164 C 
ATOM     10  C   UNL     1      12.395   8.065  18.276  0.00  0.00    +0.108 C 
ATOM     11  C   UNL     1      13.892   7.982  18.529  0.00  0.00    +0.181 C 
BRANCH  10   6
ATOM      6  N   UNL     1      11.904   6.993  17.425  0.00  0.00    -0.323 NA
ATOM     19  H   UNL     1      12.040   6.097  17.890  0.00  0.00    +0.119 HD
ATOM     20  H   UNL     1      10.901   7.099  17.283  0.00  0.00    +0.119 HD
ENDBRANCH  10   6
BRANCH   9   2
ATOM      2  O   UNL     1      10.543   8.553  19.789  0.00  0.00    -0.388 OA
ATOM     21  H   UNL     1      10.582   9.357  20.335  0.00  0.00    +0.210 HD
ENDBRANCH   9   2
ENDBRANCH  12   8
TORSDOF 4
ENDMDL
MODEL 4
REMARK VINA RESULT:      -5.5      2.143      2.636
REMARK  Name = 75536742
REMARK  4 active torsions:
REMARK  status: ('A' for Active; 'I' for Inactive)
REMARK    1  A    between atoms: O_2  and  C_9
REMARK    2  A    between atoms: N_5  and  C_12
REMARK    3  A    between atoms: N_6  and  C_10
REMARK    4  A    between atoms: C_8  and  C_12
REMARK                            x       y       z     vdW  Elec       q    Type
REMARK                         _______ _______ _______ _____ _____    ______ ____
ROOT
ATOM     12  C   UNL     1      14.061   7.228  19.340  0.00  0.00    +0.140 C 
ENDROOT
BRANCH  12   5
ATOM      3  O   UNL     1      11.818  11.593  23.477  0.00  0.00    -0.377 OA
ATOM      4  O   UNL     1      11.534   7.644  20.509  0.00  0.00    -0.253 OA
ATOM      5  N   UNL     1      13.682   8.366  20.150  0.00  0.00    -0.297 N 
ATOM      7  N   UNL     1      12.192   9.661  21.449  0.00  0.00    -0.281 N 
ATOM     13  C   UNL     1      13.122  10.790  21.589  0.00  0.00    +0.137 C 
ATOM     14  C   UNL     1      10.876   9.884  22.053  0.00  0.00    +0.137 C 
ATOM     15  C   UNL     1      12.409   8.497  20.692  0.00  0.00    +0.302 C 
ATOM     16  C   UNL     1      13.141  11.302  23.026  0.00  0.00    +0.179 C 
ATOM     17  C   UNL     1      11.010  10.415  23.471  0.00  0.00    +0.179 C 
ATOM     18  H   UNL     1      14.394   9.070  20.283  0.00  0.00    +0.150 HD
ENDBRANCH  12   5
BRANCH  12   8
ATOM      1  O   UNL     1      16.179   6.104  19.042  0.00  0.00    -0.371 OA
ATOM      8  C   UNL     1      15.158   6.415  20.003  0.00  0.00    +0.165 C 
ATOM      9  C   UNL     1      15.857   7.156  21.134  0.00  0.00    +0.164 C 
ATOM     10  C   UNL     1      17.202   6.455  21.156  0.00  0.00    +0.108 C 
ATOM     11  C   UNL     1      17.463   6.259  19.672  0.00  0.00    +0.181 C 
BRANCH  10   6
ATOM      6  N   UNL     1      18.247   7.218  21.820  0.00  0.00    -0.323 NA
ATOM     19  H   UNL     1      19.149   7.008  21.393  0.00  0.00    +0.119 HD
ATOM     20  H   UNL     1      18.085   8.215  21.683  0.00  0.00    +0.119 HD
ENDBRANCH  10   6
BRANCH   9   2
ATOM      2  O   UNL     1      15.156   7.034  22.357  0.00  0.00    -0.388 OA
ATOM     21  H   UNL     1      14.848   7.917  22.622  0.00  0.00    +0.210 HD
ENDBRANCH   9   2
ENDBRANCH  12   8
TORSDOF 4
ENDMDL
MODEL 5
REMARK VINA RESULT:      -5.5      4.171      6.174
REMARK  Name = 75536742
REMARK  4 active torsions:
REMARK  status: ('A' for Active; 'I' for Inactive)
REMARK    1  A    between atoms: O_2  and  C_9
REMARK    2  A    between atoms: N_5  and  C_12
REMARK    3  A    between atoms: N_6  and  C_10
REMARK    4  A    between atoms: C_8  and  C_12
REMARK                            x       y       z     vdW  Elec       q    Type
REMARK                         _______ _______ _______ _____ _____    ______ ____
ROOT
ATOM     12  C   UNL     1      12.059   8.663  17.980  0.00  0.00    +0.140 C 
ENDROOT
BRANCH  12   5
ATOM      3  O   UNL     1      15.987  12.823  15.072  0.00  0.00    -0.377 OA
ATOM      4  O   UNL     1      13.336   8.664  15.472  0.00  0.00    -0.253 OA
ATOM      5  N   UNL     1      13.044   9.624  17.535  0.00  0.00    -0.297 N 
ATOM      7  N   UNL     1      14.575  10.555  15.994  0.00  0.00    -0.281 N 
ATOM     13  C   UNL     1      15.091  11.554  16.941  0.00  0.00    +0.137 C 
ATOM     14  C   UNL     1      15.247  10.555  14.692  0.00  0.00    +0.137 C 
ATOM     15  C   UNL     1      13.630   9.554  16.276  0.00  0.00    +0.302 C 
ATOM     16  C   UNL     1      15.222  12.919  16.273  0.00  0.00    +0.179 C 
ATOM     17  C   UNL     1      15.346  11.964  14.128  0.00  0.00    +0.179 C 
ATOM     18  H   UNL     1      13.296  10.340  18.201  0.00  0.00    +0.150 HD
ENDBRANCH  12   5
BRANCH  12   8
ATOM      1  O   UNL     1      10.996   8.736  20.149  0.00  0.00    -0.371 OA
ATOM      8  C   UNL     1      12.202   8.366  19.462  0.00  0.00    +0.165 C 
ATOM      9  C   UNL     1      12.420   6.889  19.761  0.00  0.00    +0.164 C 
ATOM     10  C   UNL     1      11.901   6.800  21.184  0.00  0.00    +0.108 C 
ATOM     11  C   UNL     1      10.694   7.721  21.122  0.00  0.00    +0.181 C 
BRANCH  10   6
ATOM      6  N   UNL     1      11.561   5.447  21.597  0.00  0.00    -0.323 NA
ATOM     19  H   UNL     1      11.439   4.858  20.776  0.00  0.00    +0.119 HD
ATOM     20  H   UNL     1      12.331   5.048  22.132  0.00  0.00    +0.119 HD
ENDBRANCH  10   6
BRANCH   9   2
ATOM      2  O   UNL     1      13.782   6.525  19.652  0.00  0.00    -0.388 OA
ATOM     21  H   UNL     1      14.154   6.461  20.549  0.00  0.00    +0.210 HD
ENDBRANCH   9   2
ENDBRANCH  12   8
TORSDOF 4
ENDMDL
MODEL 6
REMARK VINA RESULT:      -5.3      2.801      5.529
REMARK  Name = 75536742
REMARK  4 active torsions:
REMARK  status: ('A' for Active; 'I' for Inactive)
REMARK    1  A    between atoms: O_2  and  C_9
REMARK    2  A    between atoms: N_5  and  C_12
REMARK    3  A    between atoms: N_6  and  C_10
REMARK    4  A    between atoms: C_8  and  C_12
REMARK                            x       y       z     vdW  Elec       q    Type
REMARK                         _______ _______ _______ _____ _____    ______ ____
ROOT
ATOM     12  C   UNL     1      13.424   8.110  18.817  0.00  0.00    +0.140 C 
ENDROOT
BRANCH  12   5
ATOM      3  O   UNL     1      18.948   8.411  22.072  0.00  0.00    -0.377 OA
ATOM      4  O   UNL     1      15.363   6.183  19.488  0.00  0.00    -0.253 OA
ATOM      5  N   UNL     1      14.553   8.320  19.697  0.00  0.00    -0.297 N 
ATOM      7  N   UNL     1      16.507   7.668  20.856  0.00  0.00    -0.281 N 
ATOM     13  C   UNL     1      16.622   8.933  21.596  0.00  0.00    +0.137 C 
ATOM     14  C   UNL     1      17.514   6.667  21.213  0.00  0.00    +0.137 C 
ATOM     15  C   UNL     1      15.469   7.313  19.978  0.00  0.00    +0.302 C 
ATOM     16  C   UNL     1      18.064   9.430  21.602  0.00  0.00    +0.179 C 
ATOM     17  C   UNL     1      18.910   7.271  21.212  0.00  0.00    +0.179 C 
ATOM     18  H   UNL     1      14.627   9.239  20.110  0.00  0.00    +0.150 HD
ENDBRANCH  12   5
BRANCH  12   8
ATOM      1  O   UNL     1      11.630   6.970  19.968  0.00  0.00    -0.371 OA
ATOM      8  C   UNL     1      12.107   8.261  19.557  0.00  0.00    +0.165 C 
ATOM      9  C   UNL     1      12.223   9.091  20.828  0.00  0.00    +0.164 C 
ATOM     10  C   UNL     1      11.048   8.563  21.630  0.00  0.00    +0.108 C 
ATOM     11  C   UNL     1      11.101   7.080  21.301  0.00  0.00    +0.181 C 
BRANCH  10   6
ATOM      6  N   UNL     1      11.147   8.832  23.056  0.00  0.00    -0.323 NA
ATOM     19  H   UNL     1      10.241   9.135  23.411  0.00  0.00    +0.119 HD
ATOM     20  H   UNL     1      11.382   7.973  23.552  0.00  0.00    +0.119 HD
ENDBRANCH  10   6
BRANCH   9   2
ATOM      2  O   UNL     1      12.126  10.477  20.564  0.00  0.00    -0.388 OA
ATOM     21  H   UNL     1      12.012  10.598  19.606  0.00  0.00    +0.210 HD
ENDBRANCH   9   2
ENDBRANCH  12   8
TORSDOF 4
ENDMDL
MODEL 7
REMARK VINA RESULT:      -5.3      1.952      2.507
REMARK  Name = 75536742
REMARK  4 active torsions:
REMARK  status: ('A' for Active; 'I' for Inactive)
REMARK    1  A    between atoms: O_2  and  C_9
REMARK    2  A    between atoms: N_5  and  C_12
REMARK    3  A    between atoms: N_6  and  C_10
REMARK    4  A    between atoms: C_8  and  C_12
REMARK                            x       y       z     vdW  Elec       q    Type
REMARK                         _______ _______ _______ _____ _____    ______ ____
ROOT
ATOM     12  C   UNL     1      12.981  10.468  19.513  0.00  0.00    +0.140 C 
ENDROOT
BRANCH  12   5
ATOM      3  O   UNL     1      10.633  12.385  25.170  0.00  0.00    -0.377 OA
ATOM      4  O   UNL     1      11.946  12.920  20.430  0.00  0.00    -0.253 OA
ATOM      5  N   UNL     1      12.627  10.776  20.882  0.00  0.00    -0.297 N 
ATOM      7  N   UNL     1      11.832  12.165  22.621  0.00  0.00    -0.281 N 
ATOM     13  C   UNL     1      12.148  11.201  23.684  0.00  0.00    +0.137 C 
ATOM     14  C   UNL     1      11.300  13.441  23.102  0.00  0.00    +0.137 C 
ATOM     15  C   UNL     1      12.121  12.015  21.253  0.00  0.00    +0.302 C 
ATOM     16  C   UNL     1      10.998  11.095  24.681  0.00  0.00    +0.179 C 
ATOM     17  C   UNL     1      10.178  13.222  24.106  0.00  0.00    +0.179 C 
ATOM     18  H   UNL     1      12.788  10.041  21.556  0.00  0.00    +0.150 HD
ENDBRANCH  12   5
BRANCH  12   8
ATOM      1  O   UNL     1      14.087   8.332  19.267  0.00  0.00    -0.371 OA
ATOM      8  C   UNL     1      12.810   8.989  19.214  0.00  0.00    +0.165 C 
ATOM      9  C   UNL     1      11.925   8.270  20.221  0.00  0.00    +0.164 C 
ATOM     10  C   UNL     1      12.428   6.845  20.088  0.00  0.00    +0.108 C 
ATOM     11  C   UNL     1      13.923   7.067  19.931  0.00  0.00    +0.181 C 
BRANCH  10   6
ATOM      6  N   UNL     1      12.096   5.999  21.224  0.00  0.00    -0.323 NA
ATOM     19  H   UNL     1      11.772   5.092  20.894  0.00  0.00    +0.119 HD
ATOM     20  H   UNL     1      12.933   5.826  21.779  0.00  0.00    +0.119 HD
ENDBRANCH  10   6
BRANCH   9   2
ATOM      2  O   UNL     1      10.552   8.397  19.903  0.00  0.00    -0.388 OA
ATOM     21  H   UNL     1      10.087   8.733  20.688  0.00  0.00    +0.210 HD
ENDBRANCH   9   2
ENDBRANCH  12   8
TORSDOF 4
ENDMDL
MODEL 8
REMARK VINA RESULT:      -5.2      2.073      2.556
REMARK  Name = 75536742
REMARK  4 active torsions:
REMARK  status: ('A' for Active; 'I' for Inactive)
REMARK    1  A    between atoms: O_2  and  C_9
REMARK    2  A    between atoms: N_5  and  C_12
REMARK    3  A    between atoms: N_6  and  C_10
REMARK    4  A    between atoms: C_8  and  C_12
REMARK                            x       y       z     vdW  Elec       q    Type
REMARK                         _______ _______ _______ _____ _____    ______ ____
ROOT
ATOM     12  C   UNL     1      10.906   8.327  22.324  0.00  0.00    +0.140 C 
ENDROOT
BRANCH  12   5
ATOM      3  O   UNL     1      15.064  12.902  24.047  0.00  0.00    -0.377 OA
ATOM      4  O   UNL     1      10.957  11.115  21.944  0.00  0.00    -0.253 OA
ATOM      5  N   UNL     1      12.009   9.203  22.653  0.00  0.00    -0.297 N 
ATOM      7  N   UNL     1      13.108  11.291  22.797  0.00  0.00    -0.281 N 
ATOM     13  C   UNL     1      14.384  10.713  23.241  0.00  0.00    +0.137 C 
ATOM     14  C   UNL     1      13.141  12.741  22.595  0.00  0.00    +0.137 C 
ATOM     15  C   UNL     1      11.955  10.575  22.433  0.00  0.00    +0.302 C 
ATOM     16  C   UNL     1      14.975  11.520  24.393  0.00  0.00    +0.179 C 
ATOM     17  C   UNL     1      13.769  13.445  23.787  0.00  0.00    +0.179 C 
ATOM     18  H   UNL     1      12.830   8.757  23.036  0.00  0.00    +0.150 HD
ENDBRANCH  12   5
BRANCH  12   8
ATOM      1  O   UNL     1      10.584   8.427  19.930  0.00  0.00    -0.371 OA
ATOM      8  C   UNL     1      11.128   7.630  20.994  0.00  0.00    +0.165 C 
ATOM      9  C   UNL     1      12.599   7.428  20.658  0.00  0.00    +0.164 C 
ATOM     10  C   UNL     1      12.544   7.342  19.144  0.00  0.00    +0.108 C 
ATOM     11  C   UNL     1      11.499   8.397  18.821  0.00  0.00    +0.181 C 
BRANCH  10   6
ATOM      6  N   UNL     1      13.823   7.595  18.499  0.00  0.00    -0.323 NA
ATOM     19  H   UNL     1      14.483   7.968  19.179  0.00  0.00    +0.119 HD
ATOM     20  H   UNL     1      14.216   6.718  18.161  0.00  0.00    +0.119 HD
ENDBRANCH  10   6
BRANCH   9   2
ATOM      2  O   UNL     1      13.120   6.255  21.254  0.00  0.00    -0.388 OA
ATOM     21  H   UNL     1      13.165   5.562  20.574  0.00  0.00    +0.210 HD
ENDBRANCH   9   2
ENDBRANCH  12   8
TORSDOF 4
ENDMDL
MODEL 9
REMARK VINA RESULT:      -5.1      3.500      5.591
REMARK  Name = 75536742
REMARK  4 active torsions:
REMARK  status: ('A' for Active; 'I' for Inactive)
REMARK    1  A    between atoms: O_2  and  C_9
REMARK    2  A    between atoms: N_5  and  C_12
REMARK    3  A    between atoms: N_6  and  C_10
REMARK    4  A    between atoms: C_8  and  C_12
REMARK                            x       y       z     vdW  Elec       q    Type
REMARK                         _______ _______ _______ _____ _____    ______ ____
ROOT
ATOM     12  C   UNL     1      13.407   6.994  18.817  0.00  0.00    +0.140 C 
ENDROOT
BRANCH  12   5
ATOM      3  O   UNL     1      14.505  12.905  16.571  0.00  0.00    -0.377 OA
ATOM      4  O   UNL     1      14.022   7.991  16.258  0.00  0.00    -0.253 OA
ATOM      5  N   UNL     1      13.776   8.359  18.509  0.00  0.00    -0.297 N 
ATOM      7  N   UNL     1      14.414  10.126  17.076  0.00  0.00    -0.281 N 
ATOM     13  C   UNL     1      14.636  11.080  18.171  0.00  0.00    +0.137 C 
ATOM     14  C   UNL     1      14.741  10.647  15.747  0.00  0.00    +0.137 C 
ATOM     15  C   UNL     1      14.065   8.772  17.214  0.00  0.00    +0.302 C 
ATOM     16  C   UNL     1      14.034  12.441  17.837  0.00  0.00    +0.179 C 
ATOM     17  C   UNL     1      14.113  12.014  15.526  0.00  0.00    +0.179 C 
ATOM     18  H   UNL     1      13.828   8.991  19.295  0.00  0.00    +0.150 HD
ENDBRANCH  12   5
BRANCH  12   8
ATOM      1  O   UNL     1      12.570   6.531  21.037  0.00  0.00    -0.371 OA
ATOM      8  C   UNL     1      12.184   6.938  19.715  0.00  0.00    +0.165 C 
ATOM      9  C   UNL     1      11.492   8.284  19.874  0.00  0.00    +0.164 C 
ATOM     10  C   UNL     1      10.795   8.098  21.209  0.00  0.00    +0.108 C 
ATOM     11  C   UNL     1      11.844   7.325  21.991  0.00  0.00    +0.181 C 
BRANCH  10   6
ATOM      6  N   UNL     1      10.417   9.348  21.849  0.00  0.00    -0.323 NA
ATOM     19  H   UNL     1       9.473   9.270  22.225  0.00  0.00    +0.119 HD
ATOM     20  H   UNL     1      11.032   9.528  22.641  0.00  0.00    +0.119 HD
ENDBRANCH  10   6
BRANCH   9   2
ATOM      2  O   UNL     1      10.589   8.541  18.817  0.00  0.00    -0.388 OA
ATOM     21  H   UNL     1      10.953   9.260  18.272  0.00  0.00    +0.210 HD
ENDBRANCH   9   2
ENDBRANCH  12   8
TORSDOF 4
ENDMDL
MODEL 10
REMARK VINA RESULT:      -5.1     25.912     27.613
REMARK  Name = 75536742
REMARK  4 active torsions:
REMARK  status: ('A' for Active; 'I' for Inactive)
REMARK    1  A    between atoms: O_2  and  C_9
REMARK    2  A    between atoms: N_5  and  C_12
REMARK    3  A    between atoms: N_6  and  C_10
REMARK    4  A    between atoms: C_8  and  C_12
REMARK                            x       y       z     vdW  Elec       q    Type
REMARK                         _______ _______ _______ _____ _____    ______ ____
ROOT
ATOM     12  C   UNL     1      -5.265 -10.283  14.805  0.00  0.00    +0.140 C 
ENDROOT
BRANCH  12   5
ATOM      3  O   UNL     1      -8.803 -11.397  20.043  0.00  0.00    -0.377 OA
ATOM      4  O   UNL     1      -7.922  -9.661  15.494  0.00  0.00    -0.253 OA
ATOM      5  N   UNL     1      -5.868 -10.480  16.105  0.00  0.00    -0.297 N 
ATOM      7  N   UNL     1      -7.630 -10.389  17.677  0.00  0.00    -0.281 N 
ATOM     13  C   UNL     1      -6.793 -10.817  18.806  0.00  0.00    +0.137 C 
ATOM     14  C   UNL     1      -9.010 -10.060  18.041  0.00  0.00    +0.137 C 
ATOM     15  C   UNL     1      -7.191 -10.145  16.364  0.00  0.00    +0.302 C 
ATOM     16  C   UNL     1      -7.513 -11.864  19.650  0.00  0.00    +0.179 C 
ATOM     17  C   UNL     1      -9.625 -11.155  18.899  0.00  0.00    +0.179 C 
ATOM     18  H   UNL     1      -5.264 -10.859  16.820  0.00  0.00    +0.150 HD
ENDBRANCH  12   5
BRANCH  12   8
ATOM      1  O   UNL     1      -3.193 -10.476  13.575  0.00  0.00    -0.371 OA
ATOM      8  C   UNL     1      -3.922 -10.984  14.703  0.00  0.00    +0.165 C 
ATOM      9  C   UNL     1      -3.031 -10.758  15.917  0.00  0.00    +0.164 C 
ATOM     10  C   UNL     1      -1.656 -10.977  15.315  0.00  0.00    +0.108 C 
ATOM     11  C   UNL     1      -1.815 -10.317  13.955  0.00  0.00    +0.181 C 
BRANCH  10   6
ATOM      6  N   UNL     1      -0.576 -10.402  16.101  0.00  0.00    -0.323 NA
ATOM     19  H   UNL     1      -0.033 -11.147  16.535  0.00  0.00    +0.119 HD
ATOM     20  H   UNL     1       0.062  -9.894  15.490  0.00  0.00    +0.119 HD
ENDBRANCH  10   6
BRANCH   9   2
ATOM      2  O   UNL     1      -3.321 -11.667  16.961  0.00  0.00    -0.388 OA
ATOM     21  H   UNL     1      -2.481 -11.955  17.357  0.00  0.00    +0.210 HD
ENDBRANCH   9   2
ENDBRANCH  12   8
TORSDOF 4
ENDMDL
