MODEL 1
REMARK VINA RESULT:      -7.5      0.000      0.000
REMARK  Name = 44716834
REMARK  14 active torsions:
REMARK  status: ('A' for Active; 'I' for Inactive)
REMARK    1  A    between atoms: S_1  and  N_11
REMARK    2  A    between atoms: S_1  and  C_25
REMARK    3  A    between atoms: S_2  and  C_24
REMARK    4  A    between atoms: S_2  and  C_31
REMARK    5  A    between atoms: O_8  and  C_37
REMARK    6  A    between atoms: N_11  and  C_16
REMARK    7  A    between atoms: N_12  and  C_23
REMARK    8  A    between atoms: N_14  and  C_34
REMARK    9  A    between atoms: C_18  and  C_21
REMARK   10  A    between atoms: C_22  and  C_24
REMARK   11  A    between atoms: C_23  and  C_26
REMARK   12  A    between atoms: C_23  and  C_27
REMARK   13  A    between atoms: C_26  and  C_29
REMARK   14  A    between atoms: C_31  and  C_37
REMARK                            x       y       z     vdW  Elec       q    Type
REMARK                         _______ _______ _______ _____ _____    ______ ____
ROOT
ATOM      4  O   UNL     1      11.746   6.155  20.154  0.00  0.00    -0.275 OA
ATOM     10  N   UNL     1      12.207   8.334  20.834  0.00  0.00    -0.289 N 
ATOM     16  C   UNL     1      11.544  10.586  22.560  0.00  0.00    +0.080 C 
ATOM     17  C   UNL     1      12.106  10.818  21.156  0.00  0.00    +0.052 C 
ATOM     18  C   UNL     1      12.892   9.620  20.618  0.00  0.00    +0.163 C 
ATOM     19  C   UNL     1      10.760   9.279  22.613  0.00  0.00    +0.039 C 
ATOM     20  C   UNL     1      11.630   8.112  22.166  0.00  0.00    +0.110 C 
ATOM     22  C   UNL     1      12.205   7.276  19.918  0.00  0.00    +0.226 C 
ENDROOT
BRANCH  18  21
ATOM      3  O   UNL     1      14.385   9.285  22.454  0.00  0.00    -0.274 OA
ATOM     12  N   UNL     1      15.271   9.688  20.339  0.00  0.00    -0.302 N 
ATOM     21  C   UNL     1      14.248   9.502  21.252  0.00  0.00    +0.234 C 
ATOM     40  H   UNL     1      15.049   9.797  19.354  0.00  0.00    +0.150 HD
BRANCH  12  23
ATOM     23  C   UNL     1      16.670   9.648  20.699  0.00  0.00    +0.163 C 
BRANCH  23  27
ATOM      7  O   UNL     1      17.011  12.049  20.841  0.00  0.00    -0.274 OA
ATOM     15  N   UNL     1      17.207  10.797  22.756  0.00  0.00    -0.328 N 
ATOM     27  C   UNL     1      16.990  10.957  21.404  0.00  0.00    +0.231 C 
ATOM     41  H   UNL     1      17.164   9.890  23.213  0.00  0.00    +0.145 HD
ATOM     42  H   UNL     1      17.417  11.593  23.348  0.00  0.00    +0.145 HD
ENDBRANCH  23  27
BRANCH  23  26
ATOM     26  C   UNL     1      17.000   8.458  21.608  0.00  0.00    +0.067 C 
BRANCH  26  29
ATOM     29  C   UNL     1      17.647   7.315  20.863  0.00  0.00    -0.045 A 
ATOM     32  C   UNL     1      18.922   6.881  21.224  0.00  0.00    +0.004 A 
ATOM     33  C   UNL     1      16.968   6.693  19.816  0.00  0.00    +0.004 A 
ATOM     35  C   UNL     1      19.519   5.824  20.536  0.00  0.00    +0.000 A 
ATOM     36  C   UNL     1      17.566   5.637  19.127  0.00  0.00    +0.000 A 
ATOM     38  C   UNL     1      18.841   5.202  19.488  0.00  0.00    +0.000 A 
ENDBRANCH  26  29
ENDBRANCH  23  26
ENDBRANCH  12  23
ENDBRANCH  18  21
BRANCH  16  11
ATOM     11  N   UNL     1      10.650  11.714  22.920  0.00  0.00    -0.185 NA
ATOM     39  H   UNL     1      10.316  12.288  22.136  0.00  0.00    +0.148 HD
BRANCH  11   1
ATOM      1  S   UNL     1      10.754  12.415  24.463  0.00  0.00    +0.077 S 
ATOM      5  O   UNL     1      10.816  11.370  25.466  0.00  0.00    -0.152 OA
ATOM      6  O   UNL     1       9.761  13.468  24.565  0.00  0.00    -0.152 OA
BRANCH   1  25
ATOM     13  N   UNL     1      12.749  13.923  23.306  0.00  0.00    -0.216 NA
ATOM     14  N   UNL     1      14.327  13.933  24.868  0.00  0.00    -0.338 N 
ATOM     25  C   UNL     1      12.335  13.203  24.398  0.00  0.00    +0.211 A 
ATOM     28  C   UNL     1      13.298  13.195  25.381  0.00  0.00    +0.135 A 
ATOM     30  C   UNL     1      13.952  14.349  23.621  0.00  0.00    +0.201 A 
ATOM     34  C   UNL     1      15.580  14.221  25.523  0.00  0.00    +0.150 C 
ENDBRANCH   1  25
ENDBRANCH  11   1
ENDBRANCH  16  11
BRANCH  22  24
ATOM     24  C   UNL     1      12.798   7.553  18.558  0.00  0.00    +0.165 C 
BRANCH  24   2
ATOM      2  S   UNL     1      11.602   8.520  17.626  0.00  0.00    -0.140 S 
BRANCH   2  31
ATOM     31  C   UNL     1      12.718   9.784  16.967  0.00  0.00    +0.189 C 
BRANCH  31  37
ATOM      9  O   UNL     1      13.627   8.607  15.071  0.00  0.00    -0.250 OA
ATOM     37  C   UNL     1      12.952   9.530  15.506  0.00  0.00    +0.315 C 
BRANCH  37   8
ATOM      8  O   UNL     1      12.318  10.429  14.711  0.00  0.00    -0.480 OA
ATOM     43  H   UNL     1      12.066  10.038  13.847  0.00  0.00    +0.295 HD
ENDBRANCH  37   8
ENDBRANCH  31  37
ENDBRANCH   2  31
ENDBRANCH  24   2
ENDBRANCH  22  24
TORSDOF 13
ENDMDL
MODEL 2
REMARK VINA RESULT:      -7.0      3.544      7.667
REMARK  Name = 44716834
REMARK  14 active torsions:
REMARK  status: ('A' for Active; 'I' for Inactive)
REMARK    1  A    between atoms: S_1  and  N_11
REMARK    2  A    between atoms: S_1  and  C_25
REMARK    3  A    between atoms: S_2  and  C_24
REMARK    4  A    between atoms: S_2  and  C_31
REMARK    5  A    between atoms: O_8  and  C_37
REMARK    6  A    between atoms: N_11  and  C_16
REMARK    7  A    between atoms: N_12  and  C_23
REMARK    8  A    between atoms: N_14  and  C_34
REMARK    9  A    between atoms: C_18  and  C_21
REMARK   10  A    between atoms: C_22  and  C_24
REMARK   11  A    between atoms: C_23  and  C_26
REMARK   12  A    between atoms: C_23  and  C_27
REMARK   13  A    between atoms: C_26  and  C_29
REMARK   14  A    between atoms: C_31  and  C_37
REMARK                            x       y       z     vdW  Elec       q    Type
REMARK                         _______ _______ _______ _____ _____    ______ ____
ROOT
ATOM      4  O   UNL     1      12.534   6.548  18.845  0.00  0.00    -0.275 OA
ATOM     10  N   UNL     1      14.440   7.082  20.071  0.00  0.00    -0.289 N 
ATOM     16  C   UNL     1      17.331   6.878  20.376  0.00  0.00    +0.080 C 
ATOM     17  C   UNL     1      16.421   6.955  21.603  0.00  0.00    +0.052 C 
ATOM     18  C   UNL     1      15.062   7.595  21.304  0.00  0.00    +0.163 C 
ATOM     19  C   UNL     1      16.601   6.222  19.209  0.00  0.00    +0.039 C 
ATOM     20  C   UNL     1      15.311   6.967  18.894  0.00  0.00    +0.110 C 
ATOM     22  C   UNL     1      13.069   6.848  19.916  0.00  0.00    +0.226 C 
ENDROOT
BRANCH  18  21
ATOM      3  O   UNL     1      15.109   9.632  20.057  0.00  0.00    -0.274 OA
ATOM     12  N   UNL     1      15.330   9.722  22.372  0.00  0.00    -0.302 N 
ATOM     21  C   UNL     1      15.159   9.085  21.156  0.00  0.00    +0.234 C 
ATOM     40  H   UNL     1      15.292   9.181  23.230  0.00  0.00    +0.150 HD
BRANCH  12  23
ATOM     23  C   UNL     1      15.473  11.155  22.502  0.00  0.00    +0.163 C 
BRANCH  23  27
ATOM      7  O   UNL     1      13.682  12.560  23.351  0.00  0.00    -0.274 OA
ATOM     15  N   UNL     1      14.437  10.832  24.661  0.00  0.00    -0.328 N 
ATOM     27  C   UNL     1      14.449  11.617  23.527  0.00  0.00    +0.231 C 
ATOM     41  H   UNL     1      15.062  10.040  24.784  0.00  0.00    +0.145 HD
ATOM     42  H   UNL     1      13.791  11.021  25.420  0.00  0.00    +0.145 HD
ENDBRANCH  23  27
BRANCH  23  26
ATOM     26  C   UNL     1      16.885  11.560  22.938  0.00  0.00    +0.067 C 
BRANCH  26  29
ATOM     29  C   UNL     1      17.850  11.654  21.781  0.00  0.00    -0.045 A 
ATOM     32  C   UNL     1      17.507  12.386  20.645  0.00  0.00    +0.004 A 
ATOM     33  C   UNL     1      19.086  11.012  21.850  0.00  0.00    +0.004 A 
ATOM     35  C   UNL     1      18.399  12.474  19.576  0.00  0.00    +0.000 A 
ATOM     36  C   UNL     1      19.978  11.099  20.780  0.00  0.00    +0.000 A 
ATOM     38  C   UNL     1      19.635  11.830  19.644  0.00  0.00    +0.000 A 
ENDBRANCH  26  29
ENDBRANCH  23  26
ENDBRANCH  12  23
ENDBRANCH  18  21
BRANCH  16  11
ATOM     11  N   UNL     1      18.537   6.084  20.713  0.00  0.00    -0.185 NA
ATOM     39  H   UNL     1      18.377   5.090  20.919  0.00  0.00    +0.148 HD
BRANCH  11   1
ATOM      1  S   UNL     1      19.892   6.851  21.391  0.00  0.00    +0.077 S 
ATOM      5  O   UNL     1      19.528   7.436  22.667  0.00  0.00    -0.152 OA
ATOM      6  O   UNL     1      20.529   7.663  20.371  0.00  0.00    -0.152 OA
BRANCH   1  25
ATOM     13  N   UNL     1      21.400   5.168  22.967  0.00  0.00    -0.216 NA
ATOM     14  N   UNL     1      22.240   3.735  21.494  0.00  0.00    -0.338 N 
ATOM     25  C   UNL     1      20.966   5.482  21.705  0.00  0.00    +0.211 A 
ATOM     28  C   UNL     1      21.474   4.607  20.773  0.00  0.00    +0.135 A 
ATOM     30  C   UNL     1      22.165   4.111  22.806  0.00  0.00    +0.201 A 
ATOM     34  C   UNL     1      22.990   2.621  20.967  0.00  0.00    +0.150 C 
ENDBRANCH   1  25
ENDBRANCH  11   1
ENDBRANCH  16  11
BRANCH  22  24
ATOM     24  C   UNL     1      12.215   6.967  21.155  0.00  0.00    +0.165 C 
BRANCH  24   2
ATOM      2  S   UNL     1      11.165   8.414  20.957  0.00  0.00    -0.140 S 
BRANCH   2  31
ATOM     31  C   UNL     1      10.787   8.723  22.700  0.00  0.00    +0.189 C 
BRANCH  31  37
ATOM      9  O   UNL     1      11.116  10.603  24.171  0.00  0.00    -0.250 OA
ATOM     37  C   UNL     1      11.104  10.153  23.034  0.00  0.00    +0.315 C 
BRANCH  37   8
ATOM      8  O   UNL     1      11.394  10.894  21.935  0.00  0.00    -0.480 OA
ATOM     43  H   UNL     1      11.095  10.457  21.110  0.00  0.00    +0.295 HD
ENDBRANCH  37   8
ENDBRANCH  31  37
ENDBRANCH   2  31
ENDBRANCH  24   2
ENDBRANCH  22  24
TORSDOF 13
ENDMDL
MODEL 3
REMARK VINA RESULT:      -6.9     28.394     30.465
REMARK  Name = 44716834
REMARK  14 active torsions:
REMARK  status: ('A' for Active; 'I' for Inactive)
REMARK    1  A    between atoms: S_1  and  N_11
REMARK    2  A    between atoms: S_1  and  C_25
REMARK    3  A    between atoms: S_2  and  C_24
REMARK    4  A    between atoms: S_2  and  C_31
REMARK    5  A    between atoms: O_8  and  C_37
REMARK    6  A    between atoms: N_11  and  C_16
REMARK    7  A    between atoms: N_12  and  C_23
REMARK    8  A    between atoms: N_14  and  C_34
REMARK    9  A    between atoms: C_18  and  C_21
REMARK   10  A    between atoms: C_22  and  C_24
REMARK   11  A    between atoms: C_23  and  C_26
REMARK   12  A    between atoms: C_23  and  C_27
REMARK   13  A    between atoms: C_26  and  C_29
REMARK   14  A    between atoms: C_31  and  C_37
REMARK                            x       y       z     vdW  Elec       q    Type
REMARK                         _______ _______ _______ _____ _____    ______ ____
ROOT
ATOM      4  O   UNL     1     -12.594  -8.709  15.628  0.00  0.00    -0.275 OA
ATOM     10  N   UNL     1     -10.387  -9.171  16.208  0.00  0.00    -0.289 N 
ATOM     16  C   UNL     1      -8.519 -10.375  18.092  0.00  0.00    +0.080 C 
ATOM     17  C   UNL     1      -8.135  -9.119  17.308  0.00  0.00    +0.052 C 
ATOM     18  C   UNL     1      -8.944  -8.944  16.020  0.00  0.00    +0.163 C 
ATOM     19  C   UNL     1     -10.026 -10.426  18.317  0.00  0.00    +0.039 C 
ATOM     20  C   UNL     1     -10.770 -10.354  16.990  0.00  0.00    +0.110 C 
ATOM     22  C   UNL     1     -11.392  -8.432  15.574  0.00  0.00    +0.226 C 
ENDROOT
BRANCH  18  21
ATOM      3  O   UNL     1      -8.577 -11.101  15.060  0.00  0.00    -0.274 OA
ATOM     12  N   UNL     1      -7.972  -9.208  13.847  0.00  0.00    -0.302 N 
ATOM     21  C   UNL     1      -8.493  -9.880  14.938  0.00  0.00    +0.234 C 
ATOM     40  H   UNL     1      -8.010  -8.194  13.819  0.00  0.00    +0.150 HD
BRANCH  12  23
ATOM     23  C   UNL     1      -7.448  -9.880  12.679  0.00  0.00    +0.163 C 
BRANCH  23  27
ATOM      7  O   UNL     1      -9.485  -9.802  11.358  0.00  0.00    -0.274 OA
ATOM     15  N   UNL     1      -8.625 -11.853  11.929  0.00  0.00    -0.328 N 
ATOM     27  C   UNL     1      -8.633 -10.474  11.933  0.00  0.00    +0.231 C 
ATOM     41  H   UNL     1      -7.901 -12.396  12.390  0.00  0.00    +0.145 HD
ATOM     42  H   UNL     1      -9.352 -12.377  11.454  0.00  0.00    +0.145 HD
ENDBRANCH  23  27
BRANCH  23  26
ATOM     26  C   UNL     1      -6.664  -8.930  11.767  0.00  0.00    +0.067 C 
BRANCH  26  29
ATOM     29  C   UNL     1      -5.231  -9.361  11.567  0.00  0.00    -0.045 A 
ATOM     32  C   UNL     1      -4.629 -10.226  12.480  0.00  0.00    +0.004 A 
ATOM     33  C   UNL     1      -4.510  -8.895  10.468  0.00  0.00    +0.004 A 
ATOM     35  C   UNL     1      -3.305 -10.625  12.295  0.00  0.00    +0.000 A 
ATOM     36  C   UNL     1      -3.185  -9.293  10.283  0.00  0.00    +0.000 A 
ATOM     38  C   UNL     1      -2.583 -10.158  11.196  0.00  0.00    +0.000 A 
ENDBRANCH  26  29
ENDBRANCH  23  26
ENDBRANCH  12  23
ENDBRANCH  18  21
BRANCH  16  11
ATOM     11  N   UNL     1      -7.824 -10.363  19.402  0.00  0.00    -0.185 NA
ATOM     39  H   UNL     1      -7.629  -9.435  19.799  0.00  0.00    +0.148 HD
BRANCH  11   1
ATOM      1  S   UNL     1      -6.827 -11.665  19.842  0.00  0.00    +0.077 S 
ATOM      5  O   UNL     1      -7.626 -12.870  19.954  0.00  0.00    -0.152 OA
ATOM      6  O   UNL     1      -5.973 -11.251  20.939  0.00  0.00    -0.152 OA
BRANCH   1  25
ATOM     13  N   UNL     1      -5.913 -12.877  17.543  0.00  0.00    -0.216 NA
ATOM     14  N   UNL     1      -4.288 -11.516  16.882  0.00  0.00    -0.338 N 
ATOM     25  C   UNL     1      -5.792 -11.828  18.418  0.00  0.00    +0.211 A 
ATOM     28  C   UNL     1      -4.789 -10.970  18.029  0.00  0.00    +0.135 A 
ATOM     30  C   UNL     1      -4.993 -12.659  16.629  0.00  0.00    +0.201 A 
ATOM     34  C   UNL     1      -3.211 -10.984  16.083  0.00  0.00    +0.150 C 
ENDBRANCH   1  25
ENDBRANCH  11   1
ENDBRANCH  16  11
BRANCH  22  24
ATOM     24  C   UNL     1     -10.954  -7.220  14.790  0.00  0.00    +0.165 C 
BRANCH  24   2
ATOM      2  S   UNL     1     -12.122  -5.895  15.134  0.00  0.00    -0.140 S 
BRANCH   2  31
ATOM     31  C   UNL     1     -12.748  -5.634  13.456  0.00  0.00    +0.189 C 
BRANCH  31  37
ATOM      9  O   UNL     1     -14.111  -3.656  13.275  0.00  0.00    -0.250 OA
ATOM     37  C   UNL     1     -13.001  -4.170  13.240  0.00  0.00    +0.315 C 
BRANCH  37   8
ATOM      8  O   UNL     1     -11.861  -3.470  13.015  0.00  0.00    -0.480 OA
ATOM     43  H   UNL     1     -11.343  -3.341  13.838  0.00  0.00    +0.295 HD
ENDBRANCH  37   8
ENDBRANCH  31  37
ENDBRANCH   2  31
ENDBRANCH  24   2
ENDBRANCH  22  24
TORSDOF 13
ENDMDL
MODEL 4
REMARK VINA RESULT:      -6.9     13.936     17.436
REMARK  Name = 44716834
REMARK  14 active torsions:
REMARK  status: ('A' for Active; 'I' for Inactive)
REMARK    1  A    between atoms: S_1  and  N_11
REMARK    2  A    between atoms: S_1  and  C_25
REMARK    3  A    between atoms: S_2  and  C_24
REMARK    4  A    between atoms: S_2  and  C_31
REMARK    5  A    between atoms: O_8  and  C_37
REMARK    6  A    between atoms: N_11  and  C_16
REMARK    7  A    between atoms: N_12  and  C_23
REMARK    8  A    between atoms: N_14  and  C_34
REMARK    9  A    between atoms: C_18  and  C_21
REMARK   10  A    between atoms: C_22  and  C_24
REMARK   11  A    between atoms: C_23  and  C_26
REMARK   12  A    between atoms: C_23  and  C_27
REMARK   13  A    between atoms: C_26  and  C_29
REMARK   14  A    between atoms: C_31  and  C_37
REMARK                            x       y       z     vdW  Elec       q    Type
REMARK                         _______ _______ _______ _____ _____    ______ ____
ROOT
ATOM      4  O   UNL     1      10.007   5.660   0.640  0.00  0.00    -0.275 OA
ATOM     10  N   UNL     1      10.907   6.253   2.704  0.00  0.00    -0.289 N 
ATOM     16  C   UNL     1      11.780   8.363   4.515  0.00  0.00    +0.080 C 
ATOM     17  C   UNL     1      12.476   7.001   4.511  0.00  0.00    +0.052 C 
ATOM     18  C   UNL     1      11.598   5.880   3.950  0.00  0.00    +0.163 C 
ATOM     19  C   UNL     1      11.211   8.677   3.135  0.00  0.00    +0.039 C 
ATOM     20  C   UNL     1      10.265   7.574   2.679  0.00  0.00    +0.110 C 
ATOM     22  C   UNL     1      10.700   5.387   1.625  0.00  0.00    +0.226 C 
ENDROOT
BRANCH  18  21
ATOM      3  O   UNL     1       9.766   4.527   4.674  0.00  0.00    -0.274 OA
ATOM     12  N   UNL     1      10.540   6.219   6.073  0.00  0.00    -0.302 N 
ATOM     21  C   UNL     1      10.539   5.450   4.923  0.00  0.00    +0.234 C 
ATOM     40  H   UNL     1      11.266   6.916   6.208  0.00  0.00    +0.150 HD
BRANCH  12  23
ATOM     23  C   UNL     1       9.605   6.023   7.157  0.00  0.00    +0.163 C 
BRANCH  23  27
ATOM      7  O   UNL     1      10.880   5.596   9.181  0.00  0.00    -0.274 OA
ATOM     15  N   UNL     1      10.158   3.804   7.940  0.00  0.00    -0.328 N 
ATOM     27  C   UNL     1      10.297   5.152   8.195  0.00  0.00    +0.231 C 
ATOM     41  H   UNL     1       9.653   3.451   7.133  0.00  0.00    +0.145 HD
ATOM     42  H   UNL     1      10.560   3.112   8.563  0.00  0.00    +0.145 HD
ENDBRANCH  23  27
BRANCH  23  26
ATOM     26  C   UNL     1       9.158   7.349   7.784  0.00  0.00    +0.067 C 
BRANCH  26  29
ATOM     29  C   UNL     1       8.813   8.396   6.754  0.00  0.00    -0.045 A 
ATOM     32  C   UNL     1       9.311   9.692   6.883  0.00  0.00    +0.004 A 
ATOM     33  C   UNL     1       7.997   8.067   5.672  0.00  0.00    +0.004 A 
ATOM     35  C   UNL     1       8.993  10.660   5.930  0.00  0.00    +0.000 A 
ATOM     36  C   UNL     1       7.678   9.035   4.719  0.00  0.00    +0.000 A 
ATOM     38  C   UNL     1       8.176  10.331   4.848  0.00  0.00    +0.000 A 
ENDBRANCH  26  29
ENDBRANCH  23  26
ENDBRANCH  12  23
ENDBRANCH  18  21
BRANCH  16  11
ATOM     11  N   UNL     1      12.759   9.410   4.896  0.00  0.00    -0.185 NA
ATOM     39  H   UNL     1      13.396   9.720   4.152  0.00  0.00    +0.148 HD
BRANCH  11   1
ATOM      1  S   UNL     1      13.258   9.552   6.513  0.00  0.00    +0.077 S 
ATOM      5  O   UNL     1      14.708   9.568   6.571  0.00  0.00    -0.152 OA
ATOM      6  O   UNL     1      12.506   8.610   7.319  0.00  0.00    -0.152 OA
BRANCH   1  25
ATOM     13  N   UNL     1      12.337  12.093   5.978  0.00  0.00    -0.216 NA
ATOM     14  N   UNL     1      12.042  12.946   8.007  0.00  0.00    -0.338 N 
ATOM     25  C   UNL     1      12.677  11.168   6.932  0.00  0.00    +0.211 A 
ATOM     28  C   UNL     1      12.502  11.675   8.199  0.00  0.00    +0.135 A 
ATOM     30  C   UNL     1      11.959  13.153   6.658  0.00  0.00    +0.201 A 
ATOM     34  C   UNL     1      11.704  13.897   9.038  0.00  0.00    +0.150 C 
ENDBRANCH   1  25
ENDBRANCH  11   1
ENDBRANCH  16  11
BRANCH  22  24
ATOM     24  C   UNL     1      11.388   4.045   1.688  0.00  0.00    +0.165 C 
BRANCH  24   2
ATOM      2  S   UNL     1      12.643   4.014   0.400  0.00  0.00    -0.140 S 
BRANCH   2  31
ATOM     31  C   UNL     1      14.003   4.777   1.318  0.00  0.00    +0.189 C 
BRANCH  31  37
ATOM      9  O   UNL     1      15.965   3.873   0.251  0.00  0.00    -0.250 OA
ATOM     37  C   UNL     1      15.222   3.905   1.222  0.00  0.00    +0.315 C 
BRANCH  37   8
ATOM      8  O   UNL     1      15.423   3.162   2.340  0.00  0.00    -0.480 OA
ATOM     43  H   UNL     1      15.578   3.724   3.129  0.00  0.00    +0.295 HD
ENDBRANCH  37   8
ENDBRANCH  31  37
ENDBRANCH   2  31
ENDBRANCH  24   2
ENDBRANCH  22  24
TORSDOF 13
ENDMDL
MODEL 5
REMARK VINA RESULT:      -6.7     27.056     29.776
REMARK  Name = 44716834
REMARK  14 active torsions:
REMARK  status: ('A' for Active; 'I' for Inactive)
REMARK    1  A    between atoms: S_1  and  N_11
REMARK    2  A    between atoms: S_1  and  C_25
REMARK    3  A    between atoms: S_2  and  C_24
REMARK    4  A    between atoms: S_2  and  C_31
REMARK    5  A    between atoms: O_8  and  C_37
REMARK    6  A    between atoms: N_11  and  C_16
REMARK    7  A    between atoms: N_12  and  C_23
REMARK    8  A    between atoms: N_14  and  C_34
REMARK    9  A    between atoms: C_18  and  C_21
REMARK   10  A    between atoms: C_22  and  C_24
REMARK   11  A    between atoms: C_23  and  C_26
REMARK   12  A    between atoms: C_23  and  C_27
REMARK   13  A    between atoms: C_26  and  C_29
REMARK   14  A    between atoms: C_31  and  C_37
REMARK                            x       y       z     vdW  Elec       q    Type
REMARK                         _______ _______ _______ _____ _____    ______ ____
ROOT
ATOM      4  O   UNL     1      -4.490 -15.005  16.466  0.00  0.00    -0.275 OA
ATOM     10  N   UNL     1      -5.242 -12.802  16.428  0.00  0.00    -0.289 N 
ATOM     16  C   UNL     1      -6.355 -10.536  17.884  0.00  0.00    +0.080 C 
ATOM     17  C   UNL     1      -6.706 -10.767  16.413  0.00  0.00    +0.052 C 
ATOM     18  C   UNL     1      -5.666 -11.611  15.672  0.00  0.00    +0.163 C 
ATOM     19  C   UNL     1      -6.052 -11.861  18.575  0.00  0.00    +0.039 C 
ATOM     20  C   UNL     1      -4.937 -12.603  17.851  0.00  0.00    +0.110 C 
ATOM     22  C   UNL     1      -4.972 -14.049  15.853  0.00  0.00    +0.226 C 
ENDROOT
BRANCH  18  21
ATOM      3  O   UNL     1      -3.981  -9.979  16.127  0.00  0.00    -0.274 OA
ATOM     12  N   UNL     1      -3.887 -11.169  14.129  0.00  0.00    -0.302 N 
ATOM     21  C   UNL     1      -4.424 -10.829  15.358  0.00  0.00    +0.234 C 
ATOM     40  H   UNL     1      -4.294 -11.935  13.600  0.00  0.00    +0.150 HD
BRANCH  12  23
ATOM     23  C   UNL     1      -2.703 -10.546  13.583  0.00  0.00    +0.163 C 
BRANCH  23  27
ATOM      7  O   UNL     1      -1.159 -11.694  15.067  0.00  0.00    -0.274 OA
ATOM     15  N   UNL     1      -1.167  -9.398  15.054  0.00  0.00    -0.328 N 
ATOM     27  C   UNL     1      -1.618 -10.635  14.646  0.00  0.00    +0.231 C 
ATOM     41  H   UNL     1      -1.541  -8.530  14.681  0.00  0.00    +0.145 HD
ATOM     42  H   UNL     1      -0.434  -9.314  15.750  0.00  0.00    +0.145 HD
ENDBRANCH  23  27
BRANCH  23  26
ATOM     26  C   UNL     1      -2.238 -11.221  12.287  0.00  0.00    +0.067 C 
BRANCH  26  29
ATOM     29  C   UNL     1      -3.031 -10.781  11.081  0.00  0.00    -0.045 A 
ATOM     32  C   UNL     1      -2.996  -9.449  10.671  0.00  0.00    +0.004 A 
ATOM     33  C   UNL     1      -3.799 -11.708  10.376  0.00  0.00    +0.004 A 
ATOM     35  C   UNL     1      -3.729  -9.043   9.556  0.00  0.00    +0.000 A 
ATOM     36  C   UNL     1      -4.533 -11.301   9.261  0.00  0.00    +0.000 A 
ATOM     38  C   UNL     1      -4.498  -9.969   8.851  0.00  0.00    +0.000 A 
ENDBRANCH  26  29
ENDBRANCH  23  26
ENDBRANCH  12  23
ENDBRANCH  18  21
BRANCH  16  11
ATOM     11  N   UNL     1      -7.498  -9.876  18.560  0.00  0.00    -0.185 NA
ATOM     39  H   UNL     1      -7.255  -9.165  19.260  0.00  0.00    +0.148 HD
BRANCH  11   1
ATOM      1  S   UNL     1      -8.981 -10.691  18.704  0.00  0.00    +0.077 S 
ATOM      5  O   UNL     1      -9.322 -10.829  20.107  0.00  0.00    -0.152 OA
ATOM      6  O   UNL     1      -8.961 -11.855  17.839  0.00  0.00    -0.152 OA
BRANCH   1  25
ATOM     13  N   UNL     1     -11.450  -9.778  17.890  0.00  0.00    -0.216 NA
ATOM     14  N   UNL     1     -10.978  -7.790  17.021  0.00  0.00    -0.338 N 
ATOM     25  C   UNL     1     -10.104  -9.532  17.981  0.00  0.00    +0.211 A 
ATOM     28  C   UNL     1      -9.786  -8.304  17.448  0.00  0.00    +0.135 A 
ATOM     30  C   UNL     1     -11.948  -8.710  17.307  0.00  0.00    +0.201 A 
ATOM     34  C   UNL     1     -11.176  -6.511  16.384  0.00  0.00    +0.150 C 
ENDBRANCH   1  25
ENDBRANCH  11   1
ENDBRANCH  16  11
BRANCH  22  24
ATOM     24  C   UNL     1      -5.311 -14.211  14.391  0.00  0.00    +0.165 C 
BRANCH  24   2
ATOM      2  S   UNL     1      -4.421 -15.649  13.780  0.00  0.00    -0.140 S 
BRANCH   2  31
ATOM     31  C   UNL     1      -3.056 -14.800  12.949  0.00  0.00    +0.189 C 
BRANCH  31  37
ATOM      9  O   UNL     1      -1.679 -15.754  14.680  0.00  0.00    -0.250 OA
ATOM     37  C   UNL     1      -1.802 -14.959  13.758  0.00  0.00    +0.315 C 
BRANCH  37   8
ATOM      8  O   UNL     1      -0.807 -14.133  13.348  0.00  0.00    -0.480 OA
ATOM     43  H   UNL     1       0.066 -14.410  13.699  0.00  0.00    +0.295 HD
ENDBRANCH  37   8
ENDBRANCH  31  37
ENDBRANCH   2  31
ENDBRANCH  24   2
ENDBRANCH  22  24
TORSDOF 13
ENDMDL
MODEL 6
REMARK VINA RESULT:      -6.6      3.570      7.862
REMARK  Name = 44716834
REMARK  14 active torsions:
REMARK  status: ('A' for Active; 'I' for Inactive)
REMARK    1  A    between atoms: S_1  and  N_11
REMARK    2  A    between atoms: S_1  and  C_25
REMARK    3  A    between atoms: S_2  and  C_24
REMARK    4  A    between atoms: S_2  and  C_31
REMARK    5  A    between atoms: O_8  and  C_37
REMARK    6  A    between atoms: N_11  and  C_16
REMARK    7  A    between atoms: N_12  and  C_23
REMARK    8  A    between atoms: N_14  and  C_34
REMARK    9  A    between atoms: C_18  and  C_21
REMARK   10  A    between atoms: C_22  and  C_24
REMARK   11  A    between atoms: C_23  and  C_26
REMARK   12  A    between atoms: C_23  and  C_27
REMARK   13  A    between atoms: C_26  and  C_29
REMARK   14  A    between atoms: C_31  and  C_37
REMARK                            x       y       z     vdW  Elec       q    Type
REMARK                         _______ _______ _______ _____ _____    ______ ____
ROOT
ATOM      4  O   UNL     1      11.601   7.388  19.836  0.00  0.00    -0.275 OA
ATOM     10  N   UNL     1      13.741   8.201  20.262  0.00  0.00    -0.289 N 
ATOM     16  C   UNL     1      16.512   7.639  20.970  0.00  0.00    +0.080 C 
ATOM     17  C   UNL     1      15.841   8.939  21.416  0.00  0.00    +0.052 C 
ATOM     18  C   UNL     1      14.645   9.329  20.543  0.00  0.00    +0.163 C 
ATOM     19  C   UNL     1      15.480   6.525  20.830  0.00  0.00    +0.039 C 
ATOM     20  C   UNL     1      14.373   6.935  19.868  0.00  0.00    +0.110 C 
ATOM     22  C   UNL     1      12.347   8.301  20.202  0.00  0.00    +0.226 C 
ENDROOT
BRANCH  18  21
ATOM      3  O   UNL     1      16.059  10.610  19.104  0.00  0.00    -0.274 OA
ATOM     12  N   UNL     1      14.224   9.506  18.191  0.00  0.00    -0.302 N 
ATOM     21  C   UNL     1      15.072   9.886  19.217  0.00  0.00    +0.234 C 
ATOM     40  H   UNL     1      13.473   8.849  18.381  0.00  0.00    +0.150 HD
BRANCH  12  23
ATOM     23  C   UNL     1      14.401   9.928  16.820  0.00  0.00    +0.163 C 
BRANCH  23  27
ATOM      7  O   UNL     1      13.510   8.467  15.095  0.00  0.00    -0.274 OA
ATOM     15  N   UNL     1      12.036   9.626  16.421  0.00  0.00    -0.328 N 
ATOM     27  C   UNL     1      13.301   9.267  16.003  0.00  0.00    +0.231 C 
ATOM     41  H   UNL     1      11.878  10.272  17.188  0.00  0.00    +0.145 HD
ATOM     42  H   UNL     1      11.211   9.246  15.969  0.00  0.00    +0.145 HD
ENDBRANCH  23  27
BRANCH  23  26
ATOM     26  C   UNL     1      14.337  11.452  16.669  0.00  0.00    +0.067 C 
BRANCH  26  29
ATOM     29  C   UNL     1      15.591  12.032  16.062  0.00  0.00    -0.045 A 
ATOM     32  C   UNL     1      16.158  13.186  16.602  0.00  0.00    +0.004 A 
ATOM     33  C   UNL     1      16.183  11.414  14.961  0.00  0.00    +0.004 A 
ATOM     35  C   UNL     1      17.317  13.722  16.042  0.00  0.00    +0.000 A 
ATOM     36  C   UNL     1      17.342  11.951  14.400  0.00  0.00    +0.000 A 
ATOM     38  C   UNL     1      17.909  13.105  14.940  0.00  0.00    +0.000 A 
ENDBRANCH  26  29
ENDBRANCH  23  26
ENDBRANCH  12  23
ENDBRANCH  18  21
BRANCH  16  11
ATOM     11  N   UNL     1      17.530   7.246  21.973  0.00  0.00    -0.185 NA
ATOM     39  H   UNL     1      17.171   6.990  22.901  0.00  0.00    +0.148 HD
BRANCH  11   1
ATOM      1  S   UNL     1      19.115   7.843  21.848  0.00  0.00    +0.077 S 
ATOM      5  O   UNL     1      19.542   8.357  23.136  0.00  0.00    -0.152 OA
ATOM      6  O   UNL     1      19.209   8.675  20.663  0.00  0.00    -0.152 OA
BRANCH   1  25
ATOM     13  N   UNL     1      19.850   5.635  20.373  0.00  0.00    -0.216 NA
ATOM     14  N   UNL     1      21.407   4.691  21.644  0.00  0.00    -0.338 N 
ATOM     25  C   UNL     1      20.033   6.369  21.517  0.00  0.00    +0.211 A 
ATOM     28  C   UNL     1      20.995   5.803  22.322  0.00  0.00    +0.135 A 
ATOM     30  C   UNL     1      20.693   4.631  20.480  0.00  0.00    +0.201 A 
ATOM     34  C   UNL     1      22.414   3.751  22.076  0.00  0.00    +0.150 C 
ENDBRANCH   1  25
ENDBRANCH  11   1
ENDBRANCH  16  11
BRANCH  22  24
ATOM     24  C   UNL     1      11.741   9.616  20.627  0.00  0.00    +0.165 C 
BRANCH  24   2
ATOM      2  S   UNL     1      11.365   9.503  22.382  0.00  0.00    -0.140 S 
BRANCH   2  31
ATOM     31  C   UNL     1      11.151  11.265  22.736  0.00  0.00    +0.189 C 
BRANCH  31  37
ATOM      9  O   UNL     1      11.267  10.766  25.090  0.00  0.00    -0.250 OA
ATOM     37  C   UNL     1      10.802  11.445  24.185  0.00  0.00    +0.315 C 
BRANCH  37   8
ATOM      8  O   UNL     1       9.921  12.457  24.388  0.00  0.00    -0.480 OA
ATOM     43  H   UNL     1       9.931  12.768  25.319  0.00  0.00    +0.295 HD
ENDBRANCH  37   8
ENDBRANCH  31  37
ENDBRANCH   2  31
ENDBRANCH  24   2
ENDBRANCH  22  24
TORSDOF 13
ENDMDL
MODEL 7
REMARK VINA RESULT:      -6.5      1.640      3.101
REMARK  Name = 44716834
REMARK  14 active torsions:
REMARK  status: ('A' for Active; 'I' for Inactive)
REMARK    1  A    between atoms: S_1  and  N_11
REMARK    2  A    between atoms: S_1  and  C_25
REMARK    3  A    between atoms: S_2  and  C_24
REMARK    4  A    between atoms: S_2  and  C_31
REMARK    5  A    between atoms: O_8  and  C_37
REMARK    6  A    between atoms: N_11  and  C_16
REMARK    7  A    between atoms: N_12  and  C_23
REMARK    8  A    between atoms: N_14  and  C_34
REMARK    9  A    between atoms: C_18  and  C_21
REMARK   10  A    between atoms: C_22  and  C_24
REMARK   11  A    between atoms: C_23  and  C_26
REMARK   12  A    between atoms: C_23  and  C_27
REMARK   13  A    between atoms: C_26  and  C_29
REMARK   14  A    between atoms: C_31  and  C_37
REMARK                            x       y       z     vdW  Elec       q    Type
REMARK                         _______ _______ _______ _____ _____    ______ ____
ROOT
ATOM      4  O   UNL     1      12.038   6.543  19.216  0.00  0.00    -0.275 OA
ATOM     10  N   UNL     1      12.623   8.450  20.416  0.00  0.00    -0.289 N 
ATOM     16  C   UNL     1      11.870  10.481  22.366  0.00  0.00    +0.080 C 
ATOM     17  C   UNL     1      12.812  10.821  21.210  0.00  0.00    +0.052 C 
ATOM     18  C   UNL     1      13.525   9.594  20.635  0.00  0.00    +0.163 C 
ATOM     19  C   UNL     1      10.914   9.362  21.966  0.00  0.00    +0.039 C 
ATOM     20  C   UNL     1      11.687   8.134  21.503  0.00  0.00    +0.110 C 
ATOM     22  C   UNL     1      12.706   7.575  19.328  0.00  0.00    +0.226 C 
ENDROOT
BRANCH  18  21
ATOM      3  O   UNL     1      14.463   8.943  22.734  0.00  0.00    -0.274 OA
ATOM     12  N   UNL     1      15.815   8.920  20.838  0.00  0.00    -0.302 N 
ATOM     21  C   UNL     1      14.630   9.113  21.528  0.00  0.00    +0.234 C 
ATOM     40  H   UNL     1      15.828   9.025  19.829  0.00  0.00    +0.150 HD
BRANCH  12  23
ATOM     23  C   UNL     1      17.037   8.480  21.472  0.00  0.00    +0.163 C 
BRANCH  23  27
ATOM      7  O   UNL     1      17.989   6.492  20.451  0.00  0.00    -0.274 OA
ATOM     15  N   UNL     1      16.283   6.237  21.966  0.00  0.00    -0.328 N 
ATOM     27  C   UNL     1      17.164   6.986  21.214  0.00  0.00    +0.231 C 
ATOM     41  H   UNL     1      15.620   6.658  22.610  0.00  0.00    +0.145 HD
ATOM     42  H   UNL     1      16.272   5.225  21.900  0.00  0.00    +0.145 HD
ENDBRANCH  23  27
BRANCH  23  26
ATOM     26  C   UNL     1      18.267   9.221  20.936  0.00  0.00    +0.067 C 
BRANCH  26  29
ATOM     29  C   UNL     1      18.217  10.706  21.201  0.00  0.00    -0.045 A 
ATOM     32  C   UNL     1      18.224  11.605  20.136  0.00  0.00    +0.004 A 
ATOM     33  C   UNL     1      18.163  11.178  22.512  0.00  0.00    +0.004 A 
ATOM     35  C   UNL     1      18.177  12.977  20.381  0.00  0.00    +0.000 A 
ATOM     36  C   UNL     1      18.116  12.551  22.757  0.00  0.00    +0.000 A 
ATOM     38  C   UNL     1      18.123  13.450  21.692  0.00  0.00    +0.000 A 
ENDBRANCH  26  29
ENDBRANCH  23  26
ENDBRANCH  12  23
ENDBRANCH  18  21
BRANCH  16  11
ATOM     11  N   UNL     1      11.092  11.689  22.732  0.00  0.00    -0.185 NA
ATOM     39  H   UNL     1      11.017  12.412  22.005  0.00  0.00    +0.148 HD
BRANCH  11   1
ATOM      1  S   UNL     1      10.965  12.152  24.361  0.00  0.00    +0.077 S 
ATOM      5  O   UNL     1      11.236  11.008  25.211  0.00  0.00    -0.152 OA
ATOM      6  O   UNL     1       9.746  12.919  24.536  0.00  0.00    -0.152 OA
BRANCH   1  25
ATOM     13  N   UNL     1      12.487  14.059  25.641  0.00  0.00    -0.216 NA
ATOM     14  N   UNL     1      14.105  14.463  24.175  0.00  0.00    -0.338 N 
ATOM     25  C   UNL     1      12.313  13.283  24.523  0.00  0.00    +0.211 A 
ATOM     28  C   UNL     1      13.306  13.517  23.599  0.00  0.00    +0.135 A 
ATOM     30  C   UNL     1      13.574  14.757  25.400  0.00  0.00    +0.201 A 
ATOM     34  C   UNL     1      15.292  15.045  23.597  0.00  0.00    +0.150 C 
ENDBRANCH   1  25
ENDBRANCH  11   1
ENDBRANCH  16  11
BRANCH  22  24
ATOM     24  C   UNL     1      13.673   7.945  18.230  0.00  0.00    +0.165 C 
BRANCH  24   2
ATOM      2  S   UNL     1      12.767   8.898  17.002  0.00  0.00    -0.140 S 
BRANCH   2  31
ATOM     31  C   UNL     1      14.032  10.134  16.619  0.00  0.00    +0.189 C 
BRANCH  31  37
ATOM      9  O   UNL     1      14.844  10.786  14.446  0.00  0.00    -0.250 OA
ATOM     37  C   UNL     1      13.895  10.561  15.186  0.00  0.00    +0.315 C 
BRANCH  37   8
ATOM      8  O   UNL     1      12.601  10.658  14.790  0.00  0.00    -0.480 OA
ATOM     43  H   UNL     1      12.385  10.009  14.087  0.00  0.00    +0.295 HD
ENDBRANCH  37   8
ENDBRANCH  31  37
ENDBRANCH   2  31
ENDBRANCH  24   2
ENDBRANCH  22  24
TORSDOF 13
ENDMDL
MODEL 8
REMARK VINA RESULT:      -6.4     27.378     29.999
REMARK  Name = 44716834
REMARK  14 active torsions:
REMARK  status: ('A' for Active; 'I' for Inactive)
REMARK    1  A    between atoms: S_1  and  N_11
REMARK    2  A    between atoms: S_1  and  C_25
REMARK    3  A    between atoms: S_2  and  C_24
REMARK    4  A    between atoms: S_2  and  C_31
REMARK    5  A    between atoms: O_8  and  C_37
REMARK    6  A    between atoms: N_11  and  C_16
REMARK    7  A    between atoms: N_12  and  C_23
REMARK    8  A    between atoms: N_14  and  C_34
REMARK    9  A    between atoms: C_18  and  C_21
REMARK   10  A    between atoms: C_22  and  C_24
REMARK   11  A    between atoms: C_23  and  C_26
REMARK   12  A    between atoms: C_23  and  C_27
REMARK   13  A    between atoms: C_26  and  C_29
REMARK   14  A    between atoms: C_31  and  C_37
REMARK                            x       y       z     vdW  Elec       q    Type
REMARK                         _______ _______ _______ _____ _____    ______ ____
ROOT
ATOM      4  O   UNL     1      -6.159 -12.886   9.626  0.00  0.00    -0.275 OA
ATOM     10  N   UNL     1      -6.110 -11.532  11.520  0.00  0.00    -0.289 N 
ATOM     16  C   UNL     1      -7.573 -10.244  13.686  0.00  0.00    +0.080 C 
ATOM     17  C   UNL     1      -6.333  -9.584  13.082  0.00  0.00    +0.052 C 
ATOM     18  C   UNL     1      -5.399 -10.580  12.390  0.00  0.00    +0.163 C 
ATOM     19  C   UNL     1      -8.279 -11.109  12.646  0.00  0.00    +0.039 C 
ATOM     20  C   UNL     1      -7.324 -12.147  12.072  0.00  0.00    +0.110 C 
ATOM     22  C   UNL     1      -5.627 -11.990  10.289  0.00  0.00    +0.226 C 
ENDROOT
BRANCH  18  21
ATOM      3  O   UNL     1      -4.387 -12.589  13.195  0.00  0.00    -0.274 OA
ATOM     12  N   UNL     1      -4.213 -10.649  14.471  0.00  0.00    -0.302 N 
ATOM     21  C   UNL     1      -4.611 -11.394  13.374  0.00  0.00    +0.234 C 
ATOM     40  H   UNL     1      -4.394  -9.650  14.489  0.00  0.00    +0.150 HD
BRANCH  12  23
ATOM     23  C   UNL     1      -3.460 -11.204  15.573  0.00  0.00    +0.163 C 
BRANCH  23  27
ATOM      7  O   UNL     1      -1.284 -11.910  14.756  0.00  0.00    -0.274 OA
ATOM     15  N   UNL     1      -1.529  -9.752  15.502  0.00  0.00    -0.328 N 
ATOM     27  C   UNL     1      -1.986 -11.027  15.243  0.00  0.00    +0.231 C 
ATOM     41  H   UNL     1      -2.127  -9.025  15.884  0.00  0.00    +0.145 HD
ATOM     42  H   UNL     1      -0.566  -9.495  15.314  0.00  0.00    +0.145 HD
ENDBRANCH  23  27
BRANCH  23  26
ATOM     26  C   UNL     1      -3.795 -10.522  16.904  0.00  0.00    +0.067 C 
BRANCH  26  29
ATOM     29  C   UNL     1      -4.999 -11.125  17.584  0.00  0.00    -0.045 A 
ATOM     32  C   UNL     1      -5.147 -11.017  18.966  0.00  0.00    +0.004 A 
ATOM     33  C   UNL     1      -5.966 -11.789  16.829  0.00  0.00    +0.004 A 
ATOM     35  C   UNL     1      -6.261 -11.574  19.595  0.00  0.00    +0.000 A 
ATOM     36  C   UNL     1      -7.080 -12.347  17.458  0.00  0.00    +0.000 A 
ATOM     38  C   UNL     1      -7.228 -12.239  18.840  0.00  0.00    +0.000 A 
ENDBRANCH  26  29
ENDBRANCH  23  26
ENDBRANCH  12  23
ENDBRANCH  18  21
BRANCH  16  11
ATOM     11  N   UNL     1      -8.501  -9.191  14.165  0.00  0.00    -0.185 NA
ATOM     39  H   UNL     1      -8.396  -8.267  13.728  0.00  0.00    +0.148 HD
BRANCH  11   1
ATOM      1  S   UNL     1      -9.149  -9.285  15.732  0.00  0.00    +0.077 S 
ATOM      5  O   UNL     1      -8.115  -8.980  16.702  0.00  0.00    -0.152 OA
ATOM      6  O   UNL     1      -9.920 -10.509  15.847  0.00  0.00    -0.152 OA
BRANCH   1  25
ATOM     13  N   UNL     1     -10.410  -7.070  16.777  0.00  0.00    -0.216 NA
ATOM     14  N   UNL     1     -11.861  -6.532  15.185  0.00  0.00    -0.338 N 
ATOM     25  C   UNL     1     -10.304  -7.948  15.728  0.00  0.00    +0.211 A 
ATOM     28  C   UNL     1     -11.196  -7.634  14.728  0.00  0.00    +0.135 A 
ATOM     30  C   UNL     1     -11.356  -6.230  16.418  0.00  0.00    +0.201 A 
ATOM     34  C   UNL     1     -12.906  -5.818  14.492  0.00  0.00    +0.150 C 
ENDBRANCH   1  25
ENDBRANCH  11   1
ENDBRANCH  16  11
BRANCH  22  24
ATOM     24  C   UNL     1      -4.384 -11.323   9.755  0.00  0.00    +0.165 C 
BRANCH  24   2
ATOM      2  S   UNL     1      -4.861 -10.347   8.320  0.00  0.00    -0.140 S 
BRANCH   2  31
ATOM     31  C   UNL     1      -5.429  -8.856   9.174  0.00  0.00    +0.189 C 
BRANCH  31  37
ATOM      9  O   UNL     1      -7.379  -8.537   7.795  0.00  0.00    -0.250 OA
ATOM     37  C   UNL     1      -6.894  -8.658   8.912  0.00  0.00    +0.315 C 
BRANCH  37   8
ATOM      8  O   UNL     1      -7.632  -8.642  10.051  0.00  0.00    -0.480 OA
ATOM     43  H   UNL     1      -8.087  -9.498  10.203  0.00  0.00    +0.295 HD
ENDBRANCH  37   8
ENDBRANCH  31  37
ENDBRANCH   2  31
ENDBRANCH  24   2
ENDBRANCH  22  24
TORSDOF 13
ENDMDL
MODEL 9
REMARK VINA RESULT:      -6.4     13.631     16.656
REMARK  Name = 44716834
REMARK  14 active torsions:
REMARK  status: ('A' for Active; 'I' for Inactive)
REMARK    1  A    between atoms: S_1  and  N_11
REMARK    2  A    between atoms: S_1  and  C_25
REMARK    3  A    between atoms: S_2  and  C_24
REMARK    4  A    between atoms: S_2  and  C_31
REMARK    5  A    between atoms: O_8  and  C_37
REMARK    6  A    between atoms: N_11  and  C_16
REMARK    7  A    between atoms: N_12  and  C_23
REMARK    8  A    between atoms: N_14  and  C_34
REMARK    9  A    between atoms: C_18  and  C_21
REMARK   10  A    between atoms: C_22  and  C_24
REMARK   11  A    between atoms: C_23  and  C_26
REMARK   12  A    between atoms: C_23  and  C_27
REMARK   13  A    between atoms: C_26  and  C_29
REMARK   14  A    between atoms: C_31  and  C_37
REMARK                            x       y       z     vdW  Elec       q    Type
REMARK                         _______ _______ _______ _____ _____    ______ ____
ROOT
ATOM      4  O   UNL     1      13.838   9.109   2.201  0.00  0.00    -0.275 OA
ATOM     10  N   UNL     1      13.188   8.790   4.413  0.00  0.00    -0.289 N 
ATOM     16  C   UNL     1      12.487   9.965   6.986  0.00  0.00    +0.080 C 
ATOM     17  C   UNL     1      13.196   8.612   6.914  0.00  0.00    +0.052 C 
ATOM     18  C   UNL     1      13.000   7.901   5.573  0.00  0.00    +0.163 C 
ATOM     19  C   UNL     1      12.860  10.829   5.787  0.00  0.00    +0.039 C 
ATOM     20  C   UNL     1      12.543  10.107   4.484  0.00  0.00    +0.110 C 
ATOM     22  C   UNL     1      13.801   8.407   3.215  0.00  0.00    +0.226 C 
ENDROOT
BRANCH  18  21
ATOM      3  O   UNL     1      11.065   7.201   4.358  0.00  0.00    -0.274 OA
ATOM     12  N   UNL     1      11.107   6.923   6.669  0.00  0.00    -0.302 N 
ATOM     21  C   UNL     1      11.629   7.303   5.445  0.00  0.00    +0.234 C 
ATOM     40  H   UNL     1      11.684   6.990   7.501  0.00  0.00    +0.150 HD
BRANCH  12  23
ATOM     23  C   UNL     1       9.793   6.341   6.822  0.00  0.00    +0.163 C 
BRANCH  23  27
ATOM      7  O   UNL     1       9.687   5.457   9.083  0.00  0.00    -0.274 OA
ATOM     15  N   UNL     1      10.221   4.026   7.368  0.00  0.00    -0.328 N 
ATOM     27  C   UNL     1       9.902   5.263   7.889  0.00  0.00    +0.231 C 
ATOM     41  H   UNL     1      10.375   3.875   6.375  0.00  0.00    +0.145 HD
ATOM     42  H   UNL     1      10.312   3.215   7.970  0.00  0.00    +0.145 HD
ENDBRANCH  23  27
BRANCH  23  26
ATOM     26  C   UNL     1       8.741   7.382   7.221  0.00  0.00    +0.067 C 
BRANCH  26  29
ATOM     29  C   UNL     1       8.474   8.392   6.131  0.00  0.00    -0.045 A 
ATOM     32  C   UNL     1       8.878   9.716   6.293  0.00  0.00    +0.004 A 
ATOM     33  C   UNL     1       7.825   7.999   4.960  0.00  0.00    +0.004 A 
ATOM     35  C   UNL     1       8.633  10.649   5.286  0.00  0.00    +0.000 A 
ATOM     36  C   UNL     1       7.579   8.932   3.953  0.00  0.00    +0.000 A 
ATOM     38  C   UNL     1       7.983  10.257   4.115  0.00  0.00    +0.000 A 
ENDBRANCH  26  29
ENDBRANCH  23  26
ENDBRANCH  12  23
ENDBRANCH  18  21
BRANCH  16  11
ATOM     11  N   UNL     1      12.882  10.657   8.237  0.00  0.00    -0.185 NA
ATOM     39  H   UNL     1      13.763  10.344   8.663  0.00  0.00    +0.148 HD
BRANCH  11   1
ATOM      1  S   UNL     1      11.694  11.351   9.231  0.00  0.00    +0.077 S 
ATOM      5  O   UNL     1      12.281  11.709  10.508  0.00  0.00    -0.152 OA
ATOM      6  O   UNL     1      10.502  10.525   9.182  0.00  0.00    -0.152 OA
BRANCH   1  25
ATOM     13  N   UNL     1      12.284  13.774   8.061  0.00  0.00    -0.216 NA
ATOM     14  N   UNL     1      10.308  14.453   7.310  0.00  0.00    -0.338 N 
ATOM     25  C   UNL     1      11.321  12.845   8.364  0.00  0.00    +0.211 A 
ATOM     28  C   UNL     1      10.086  13.244   7.908  0.00  0.00    +0.135 A 
ATOM     30  C   UNL     1      11.641  14.730   7.426  0.00  0.00    +0.201 A 
ATOM     34  C   UNL     1       9.316  15.284   6.672  0.00  0.00    +0.150 C 
ENDBRANCH   1  25
ENDBRANCH  11   1
ENDBRANCH  16  11
BRANCH  22  24
ATOM     24  C   UNL     1      14.461   7.050   3.192  0.00  0.00    +0.165 C 
BRANCH  24   2
ATOM      2  S   UNL     1      13.455   5.971   2.163  0.00  0.00    -0.140 S 
BRANCH   2  31
ATOM     31  C   UNL     1      14.781   5.055   1.340  0.00  0.00    +0.189 C 
BRANCH  31  37
ATOM      9  O   UNL     1      13.711   2.902   1.196  0.00  0.00    -0.250 OA
ATOM     37  C   UNL     1      14.628   3.589   1.625  0.00  0.00    +0.315 C 
BRANCH  37   8
ATOM      8  O   UNL     1      15.627   3.100   2.401  0.00  0.00    -0.480 OA
ATOM     43  H   UNL     1      16.321   3.773   2.571  0.00  0.00    +0.295 HD
ENDBRANCH  37   8
ENDBRANCH  31  37
ENDBRANCH   2  31
ENDBRANCH  24   2
ENDBRANCH  22  24
TORSDOF 13
ENDMDL
MODEL 10
REMARK VINA RESULT:      -6.4     27.258     30.193
REMARK  Name = 44716834
REMARK  14 active torsions:
REMARK  status: ('A' for Active; 'I' for Inactive)
REMARK    1  A    between atoms: S_1  and  N_11
REMARK    2  A    between atoms: S_1  and  C_25
REMARK    3  A    between atoms: S_2  and  C_24
REMARK    4  A    between atoms: S_2  and  C_31
REMARK    5  A    between atoms: O_8  and  C_37
REMARK    6  A    between atoms: N_11  and  C_16
REMARK    7  A    between atoms: N_12  and  C_23
REMARK    8  A    between atoms: N_14  and  C_34
REMARK    9  A    between atoms: C_18  and  C_21
REMARK   10  A    between atoms: C_22  and  C_24
REMARK   11  A    between atoms: C_23  and  C_26
REMARK   12  A    between atoms: C_23  and  C_27
REMARK   13  A    between atoms: C_26  and  C_29
REMARK   14  A    between atoms: C_31  and  C_37
REMARK                            x       y       z     vdW  Elec       q    Type
REMARK                         _______ _______ _______ _____ _____    ______ ____
ROOT
ATOM      4  O   UNL     1      -4.463 -14.835  16.677  0.00  0.00    -0.275 OA
ATOM     10  N   UNL     1      -5.643 -13.045  15.769  0.00  0.00    -0.289 N 
ATOM     16  C   UNL     1      -7.797 -11.100  16.043  0.00  0.00    +0.080 C 
ATOM     17  C   UNL     1      -7.410 -11.648  14.668  0.00  0.00    +0.052 C 
ATOM     18  C   UNL     1      -5.979 -12.190  14.618  0.00  0.00    +0.163 C 
ATOM     19  C   UNL     1      -7.504 -12.129  17.130  0.00  0.00    +0.039 C 
ATOM     20  C   UNL     1      -6.041 -12.549  17.093  0.00  0.00    +0.110 C 
ATOM     22  C   UNL     1      -4.853 -14.197  15.694  0.00  0.00    +0.226 C 
ENDROOT
BRANCH  18  21
ATOM      3  O   UNL     1      -5.113 -10.041  15.200  0.00  0.00    -0.274 OA
ATOM     12  N   UNL     1      -3.884 -11.400  13.765  0.00  0.00    -0.302 N 
ATOM     21  C   UNL     1      -4.959 -11.090  14.579  0.00  0.00    +0.234 C 
ATOM     40  H   UNL     1      -3.823 -12.324  13.348  0.00  0.00    +0.150 HD
BRANCH  12  23
ATOM     23  C   UNL     1      -2.776 -10.501  13.539  0.00  0.00    +0.163 C 
BRANCH  23  27
ATOM      7  O   UNL     1      -1.098  -9.792  15.147  0.00  0.00    -0.274 OA
ATOM     15  N   UNL     1      -1.832 -11.967  15.213  0.00  0.00    -0.328 N 
ATOM     27  C   UNL     1      -1.803 -10.689  14.694  0.00  0.00    +0.231 C 
ATOM     41  H   UNL     1      -2.438 -12.693  14.842  0.00  0.00    +0.145 HD
ATOM     42  H   UNL     1      -1.242 -12.224  15.996  0.00  0.00    +0.145 HD
ENDBRANCH  23  27
BRANCH  23  26
ATOM     26  C   UNL     1      -2.076 -10.766  12.202  0.00  0.00    +0.067 C 
BRANCH  26  29
ATOM     29  C   UNL     1      -2.960 -10.483  11.012  0.00  0.00    -0.045 A 
ATOM     32  C   UNL     1      -3.638 -11.526  10.383  0.00  0.00    +0.004 A 
ATOM     33  C   UNL     1      -3.100  -9.177  10.543  0.00  0.00    +0.004 A 
ATOM     35  C   UNL     1      -4.456 -11.265   9.284  0.00  0.00    +0.000 A 
ATOM     36  C   UNL     1      -3.917  -8.915   9.443  0.00  0.00    +0.000 A 
ATOM     38  C   UNL     1      -4.595  -9.958   8.814  0.00  0.00    +0.000 A 
ENDBRANCH  26  29
ENDBRANCH  23  26
ENDBRANCH  12  23
ENDBRANCH  18  21
BRANCH  16  11
ATOM     11  N   UNL     1      -9.243 -10.773  16.048  0.00  0.00    -0.185 NA
ATOM     39  H   UNL     1      -9.819 -11.274  15.360  0.00  0.00    +0.148 HD
BRANCH  11   1
ATOM      1  S   UNL     1      -9.764  -9.252  16.598  0.00  0.00    +0.077 S 
ATOM      5  O   UNL     1     -10.769  -8.730  15.693  0.00  0.00    -0.152 OA
ATOM      6  O   UNL     1      -8.601  -8.454  16.936  0.00  0.00    -0.152 OA
BRANCH   1  25
ATOM     13  N   UNL     1      -9.902 -10.297  19.143  0.00  0.00    -0.216 NA
ATOM     14  N   UNL     1     -12.016  -9.930  19.712  0.00  0.00    -0.338 N 
ATOM     25  C   UNL     1     -10.563  -9.670  18.118  0.00  0.00    +0.211 A 
ATOM     28  C   UNL     1     -11.877  -9.432  18.448  0.00  0.00    +0.135 A 
ATOM     30  C   UNL     1     -10.805 -10.439  20.088  0.00  0.00    +0.201 A 
ATOM     34  C   UNL     1     -13.221  -9.921  20.506  0.00  0.00    +0.150 C 
ENDBRANCH   1  25
ENDBRANCH  11   1
ENDBRANCH  16  11
BRANCH  22  24
ATOM     24  C   UNL     1      -4.478 -14.675  14.313  0.00  0.00    +0.165 C 
BRANCH  24   2
ATOM      2  S   UNL     1      -3.632 -16.253  14.493  0.00  0.00    -0.140 S 
BRANCH   2  31
ATOM     31  C   UNL     1      -1.923 -15.667  14.381  0.00  0.00    +0.189 C 
BRANCH  31  37
ATOM      9  O   UNL     1      -1.972 -15.730  11.973  0.00  0.00    -0.250 OA
ATOM     37  C   UNL     1      -1.666 -15.139  12.999  0.00  0.00    +0.315 C 
BRANCH  37   8
ATOM      8  O   UNL     1      -1.068 -13.921  13.008  0.00  0.00    -0.480 OA
ATOM     43  H   UNL     1      -1.666 -13.222  13.348  0.00  0.00    +0.295 HD
ENDBRANCH  37   8
ENDBRANCH  31  37
ENDBRANCH   2  31
ENDBRANCH  24   2
ENDBRANCH  22  24
TORSDOF 13
ENDMDL
