MODEL 1
REMARK VINA RESULT:      -6.9      0.000      0.000
REMARK  Name = 51137894
REMARK  5 active torsions:
REMARK  status: ('A' for Active; 'I' for Inactive)
REMARK    1  A    between atoms: N_4  and  C_12
REMARK    2  A    between atoms: N_5  and  C_16
REMARK    3  A    between atoms: C_7  and  C_11
REMARK    4  A    between atoms: C_12  and  C_14
REMARK    5  A    between atoms: C_25  and  C_26
REMARK                            x       y       z     vdW  Elec       q    Type
REMARK                         _______ _______ _______ _____ _____    ______ ____
ROOT
ATOM      4  N   UNL     1      10.588   6.449   3.794  0.00  0.00    -0.297 NA
ATOM      7  C   UNL     1      11.758   5.416   2.043  0.00  0.00    +0.070 C 
ATOM      8  C   UNL     1      12.079   6.921   2.060  0.00  0.00    +0.028 C 
ATOM      9  C   UNL     1      10.506   5.276   2.921  0.00  0.00    +0.096 C 
ATOM     10  C   UNL     1      10.985   7.549   2.914  0.00  0.00    +0.085 C 
ENDROOT
BRANCH   7  11
ATOM      5  N   UNL     1      12.399   3.832   0.191  0.00  0.00    -0.330 N 
ATOM      6  N   UNL     1      10.664   5.161  -0.209  0.00  0.00    -0.232 NA
ATOM     11  C   UNL     1      11.582   4.820   0.666  0.00  0.00    +0.115 A 
ATOM     13  C   UNL     1      11.979   3.514  -1.075  0.00  0.00    +0.069 A 
ATOM     15  C   UNL     1      10.894   4.357  -1.301  0.00  0.00    +0.089 A 
ATOM     16  C   UNL     1      13.508   3.227   0.894  0.00  0.00    +0.150 C 
ATOM     17  C   UNL     1      12.440   2.590  -2.013  0.00  0.00    +0.028 A 
ATOM     20  C   UNL     1      10.218   4.289  -2.531  0.00  0.00    +0.030 A 
ATOM     21  C   UNL     1      11.755   2.534  -3.232  0.00  0.00    +0.002 A 
ATOM     22  C   UNL     1      10.664   3.368  -3.488  0.00  0.00    +0.002 A 
ENDBRANCH   7  11
BRANCH   4  12
ATOM     12  C   UNL     1       9.335   6.717   4.484  0.00  0.00    +0.119 C 
BRANCH  12  14
ATOM     14  C   UNL     1       9.360   6.225   5.907  0.00  0.00    -0.033 A 
ATOM     18  C   UNL     1       9.761   4.918   6.186  0.00  0.00    +0.005 A 
ATOM     19  C   UNL     1       8.985   7.076   6.946  0.00  0.00    +0.005 A 
ATOM     23  C   UNL     1       9.786   4.463   7.504  0.00  0.00    +0.012 A 
ATOM     24  C   UNL     1       9.011   6.621   8.264  0.00  0.00    +0.012 A 
ATOM     25  C   UNL     1       9.411   5.315   8.543  0.00  0.00    +0.055 A 
BRANCH  25  26
ATOM      1  F   UNL     1       8.277   5.053  10.632  0.00  0.00    -0.166 F 
ATOM      2  F   UNL     1      10.419   5.425  10.694  0.00  0.00    -0.166 F 
ATOM      3  F   UNL     1       9.664   3.485  10.064  0.00  0.00    -0.166 F 
ATOM     26  C   UNL     1       9.440   4.829   9.952  0.00  0.00    +0.417 C 
ENDBRANCH  25  26
ENDBRANCH  12  14
ENDBRANCH   4  12
TORSDOF 4
ENDMDL
MODEL 2
REMARK VINA RESULT:      -6.9     30.066     34.319
REMARK  Name = 51137894
REMARK  5 active torsions:
REMARK  status: ('A' for Active; 'I' for Inactive)
REMARK    1  A    between atoms: N_4  and  C_12
REMARK    2  A    between atoms: N_5  and  C_16
REMARK    3  A    between atoms: C_7  and  C_11
REMARK    4  A    between atoms: C_12  and  C_14
REMARK    5  A    between atoms: C_25  and  C_26
REMARK                            x       y       z     vdW  Elec       q    Type
REMARK                         _______ _______ _______ _____ _____    ______ ____
ROOT
ATOM      4  N   UNL     1     -17.034   3.985  25.986  0.00  0.00    -0.297 NA
ATOM      7  C   UNL     1     -16.502   4.397  23.739  0.00  0.00    +0.070 C 
ATOM      8  C   UNL     1     -16.109   2.955  24.105  0.00  0.00    +0.028 C 
ATOM      9  C   UNL     1     -16.712   5.097  25.090  0.00  0.00    +0.096 C 
ATOM     10  C   UNL     1     -16.089   2.925  25.628  0.00  0.00    +0.085 C 
ENDROOT
BRANCH   7  11
ATOM      5  N   UNL     1     -15.914   6.025  21.907  0.00  0.00    -0.330 N 
ATOM      6  N   UNL     1     -14.211   4.970  22.869  0.00  0.00    -0.232 NA
ATOM     11  C   UNL     1     -15.516   5.118  22.850  0.00  0.00    +0.115 A 
ATOM     13  C   UNL     1     -14.790   6.493  21.277  0.00  0.00    +0.069 A 
ATOM     15  C   UNL     1     -13.740   5.820  21.895  0.00  0.00    +0.089 A 
ATOM     16  C   UNL     1     -17.275   6.422  21.623  0.00  0.00    +0.150 C 
ATOM     17  C   UNL     1     -14.608   7.419  20.250  0.00  0.00    +0.028 A 
ATOM     20  C   UNL     1     -12.423   6.073  21.476  0.00  0.00    +0.030 A 
ATOM     21  C   UNL     1     -13.290   7.661  19.845  0.00  0.00    +0.002 A 
ATOM     22  C   UNL     1     -12.216   7.000  20.446  0.00  0.00    +0.002 A 
ENDBRANCH   7  11
BRANCH   4  12
ATOM     12  C   UNL     1     -16.941   4.357  27.390  0.00  0.00    +0.119 C 
BRANCH  12  14
ATOM     14  C   UNL     1     -16.466   3.213  28.245  0.00  0.00    -0.033 A 
ATOM     18  C   UNL     1     -15.302   3.345  29.002  0.00  0.00    +0.005 A 
ATOM     19  C   UNL     1     -17.190   2.022  28.282  0.00  0.00    +0.005 A 
ATOM     23  C   UNL     1     -14.863   2.285  29.796  0.00  0.00    +0.012 A 
ATOM     24  C   UNL     1     -16.751   0.962  29.076  0.00  0.00    +0.012 A 
ATOM     25  C   UNL     1     -15.588   1.094  29.832  0.00  0.00    +0.055 A 
BRANCH  25  26
ATOM      1  F   UNL     1     -14.732   0.344  31.936  0.00  0.00    -0.166 F 
ATOM      2  F   UNL     1     -14.042  -0.685  30.149  0.00  0.00    -0.166 F 
ATOM      3  F   UNL     1     -16.065  -1.003  30.881  0.00  0.00    -0.166 F 
ATOM     26  C   UNL     1     -15.118  -0.038  30.683  0.00  0.00    +0.417 C 
ENDBRANCH  25  26
ENDBRANCH  12  14
ENDBRANCH   4  12
TORSDOF 4
ENDMDL
MODEL 3
REMARK VINA RESULT:      -6.8     13.705     16.113
REMARK  Name = 51137894
REMARK  5 active torsions:
REMARK  status: ('A' for Active; 'I' for Inactive)
REMARK    1  A    between atoms: N_4  and  C_12
REMARK    2  A    between atoms: N_5  and  C_16
REMARK    3  A    between atoms: C_7  and  C_11
REMARK    4  A    between atoms: C_12  and  C_14
REMARK    5  A    between atoms: C_25  and  C_26
REMARK                            x       y       z     vdW  Elec       q    Type
REMARK                         _______ _______ _______ _____ _____    ______ ____
ROOT
ATOM      4  N   UNL     1      -1.490  10.403   5.610  0.00  0.00    -0.297 NA
ATOM      7  C   UNL     1      -0.727  12.180   6.938  0.00  0.00    +0.070 C 
ATOM      8  C   UNL     1      -0.350  12.437   5.469  0.00  0.00    +0.028 C 
ATOM      9  C   UNL     1      -1.093  10.689   6.990  0.00  0.00    +0.096 C 
ATOM     10  C   UNL     1      -0.494  11.085   4.781  0.00  0.00    +0.085 C 
ENDROOT
BRANCH   7  11
ATOM      5  N   UNL     1       0.025  13.030   9.188  0.00  0.00    -0.330 N 
ATOM      6  N   UNL     1       1.634  12.491   7.752  0.00  0.00    -0.232 NA
ATOM     11  C   UNL     1       0.336  12.560   7.942  0.00  0.00    +0.115 A 
ATOM     13  C   UNL     1       1.202  13.280   9.846  0.00  0.00    +0.069 A 
ATOM     15  C   UNL     1       2.191  12.936   8.929  0.00  0.00    +0.089 A 
ATOM     16  C   UNL     1      -1.305  13.229   9.720  0.00  0.00    +0.150 C 
ATOM     17  C   UNL     1       1.477  13.764  11.125  0.00  0.00    +0.028 A 
ATOM     20  C   UNL     1       3.541  13.076   9.293  0.00  0.00    +0.030 A 
ATOM     21  C   UNL     1       2.826  13.898  11.472  0.00  0.00    +0.002 A 
ATOM     22  C   UNL     1       3.841  13.561  10.573  0.00  0.00    +0.002 A 
ENDBRANCH   7  11
BRANCH   4  12
ATOM     12  C   UNL     1      -1.555   8.976   5.335  0.00  0.00    +0.119 C 
BRANCH  12  14
ATOM     14  C   UNL     1      -2.958   8.527   5.024  0.00  0.00    -0.033 A 
ATOM     18  C   UNL     1      -3.353   7.221   5.317  0.00  0.00    +0.005 A 
ATOM     19  C   UNL     1      -3.863   9.416   4.446  0.00  0.00    +0.005 A 
ATOM     23  C   UNL     1      -4.653   6.805   5.031  0.00  0.00    +0.012 A 
ATOM     24  C   UNL     1      -5.164   9.000   4.160  0.00  0.00    +0.012 A 
ATOM     25  C   UNL     1      -5.559   7.695   4.452  0.00  0.00    +0.055 A 
BRANCH  25  26
ATOM      1  F   UNL     1      -7.823   7.446   5.180  0.00  0.00    -0.166 F 
ATOM      2  F   UNL     1      -7.023   5.920   3.854  0.00  0.00    -0.166 F 
ATOM      3  F   UNL     1      -7.509   7.894   3.081  0.00  0.00    -0.166 F 
ATOM     26  C   UNL     1      -6.949   7.251   4.149  0.00  0.00    +0.417 C 
ENDBRANCH  25  26
ENDBRANCH  12  14
ENDBRANCH   4  12
TORSDOF 4
ENDMDL
MODEL 4
REMARK VINA RESULT:      -6.8     21.895     24.091
REMARK  Name = 51137894
REMARK  5 active torsions:
REMARK  status: ('A' for Active; 'I' for Inactive)
REMARK    1  A    between atoms: N_4  and  C_12
REMARK    2  A    between atoms: N_5  and  C_16
REMARK    3  A    between atoms: C_7  and  C_11
REMARK    4  A    between atoms: C_12  and  C_14
REMARK    5  A    between atoms: C_25  and  C_26
REMARK                            x       y       z     vdW  Elec       q    Type
REMARK                         _______ _______ _______ _____ _____    ______ ____
ROOT
ATOM      4  N   UNL     1      -7.037  -9.838   7.712  0.00  0.00    -0.297 NA
ATOM      7  C   UNL     1      -8.992  -8.874   8.577  0.00  0.00    +0.070 C 
ATOM      8  C   UNL     1      -9.279  -9.456   7.182  0.00  0.00    +0.028 C 
ATOM      9  C   UNL     1      -7.461  -8.809   8.663  0.00  0.00    +0.096 C 
ATOM     10  C   UNL     1      -7.909  -9.660   6.549  0.00  0.00    +0.085 C 
ENDROOT
BRANCH   7  11
ATOM      5  N   UNL     1     -10.795  -7.445   9.607  0.00  0.00    -0.330 N 
ATOM      6  N   UNL     1      -9.237  -6.373   8.440  0.00  0.00    -0.232 NA
ATOM     11  C   UNL     1      -9.655  -7.545   8.860  0.00  0.00    +0.115 A 
ATOM     13  C   UNL     1     -11.136  -6.119   9.675  0.00  0.00    +0.069 A 
ATOM     15  C   UNL     1     -10.148  -5.470   8.939  0.00  0.00    +0.089 A 
ATOM     16  C   UNL     1     -11.516  -8.539  10.218  0.00  0.00    +0.150 C 
ATOM     17  C   UNL     1     -12.191  -5.452  10.297  0.00  0.00    +0.028 A 
ATOM     20  C   UNL     1     -10.200  -4.072   8.806  0.00  0.00    +0.030 A 
ATOM     21  C   UNL     1     -12.228  -4.060  10.155  0.00  0.00    +0.002 A 
ATOM     22  C   UNL     1     -11.252  -3.381   9.422  0.00  0.00    +0.002 A 
ENDBRANCH   7  11
BRANCH   4  12
ATOM     12  C   UNL     1      -5.627  -9.731   7.368  0.00  0.00    +0.119 C 
BRANCH  12  14
ATOM     14  C   UNL     1      -4.738  -9.970   8.559  0.00  0.00    -0.033 A 
ATOM     18  C   UNL     1      -4.013  -8.914   9.110  0.00  0.00    +0.005 A 
ATOM     19  C   UNL     1      -4.642 -11.246   9.113  0.00  0.00    +0.005 A 
ATOM     23  C   UNL     1      -3.190  -9.134  10.215  0.00  0.00    +0.012 A 
ATOM     24  C   UNL     1      -3.820 -11.466  10.218  0.00  0.00    +0.012 A 
ATOM     25  C   UNL     1      -3.094 -10.411  10.768  0.00  0.00    +0.055 A 
BRANCH  25  26
ATOM      1  F   UNL     1      -1.024  -9.982  11.887  0.00  0.00    -0.166 F 
ATOM      2  F   UNL     1      -1.894 -11.962  12.113  0.00  0.00    -0.166 F 
ATOM      3  F   UNL     1      -2.777 -10.258  13.135  0.00  0.00    -0.166 F 
ATOM     26  C   UNL     1      -2.216 -10.646  11.951  0.00  0.00    +0.417 C 
ENDBRANCH  25  26
ENDBRANCH  12  14
ENDBRANCH   4  12
TORSDOF 4
ENDMDL
MODEL 5
REMARK VINA RESULT:      -6.6     23.793     27.624
REMARK  Name = 51137894
REMARK  5 active torsions:
REMARK  status: ('A' for Active; 'I' for Inactive)
REMARK    1  A    between atoms: N_4  and  C_12
REMARK    2  A    between atoms: N_5  and  C_16
REMARK    3  A    between atoms: C_7  and  C_11
REMARK    4  A    between atoms: C_12  and  C_14
REMARK    5  A    between atoms: C_25  and  C_26
REMARK                            x       y       z     vdW  Elec       q    Type
REMARK                         _______ _______ _______ _____ _____    ______ ____
ROOT
ATOM      4  N   UNL     1      -4.651 -11.267  16.544  0.00  0.00    -0.297 NA
ATOM      7  C   UNL     1      -6.336 -10.327  17.877  0.00  0.00    +0.070 C 
ATOM      8  C   UNL     1      -5.201 -10.848  18.775  0.00  0.00    +0.028 C 
ATOM      9  C   UNL     1      -6.088 -10.987  16.514  0.00  0.00    +0.096 C 
ATOM     10  C   UNL     1      -4.396 -11.789  17.887  0.00  0.00    +0.085 C 
ENDROOT
BRANCH   7  11
ATOM      5  N   UNL     1      -8.799  -9.813  18.028  0.00  0.00    -0.330 N 
ATOM      6  N   UNL     1      -8.072 -11.513  19.261  0.00  0.00    -0.232 NA
ATOM     11  C   UNL     1      -7.729 -10.576  18.407  0.00  0.00    +0.115 A 
ATOM     13  C   UNL     1      -9.906 -10.291  18.680  0.00  0.00    +0.069 A 
ATOM     15  C   UNL     1      -9.427 -11.352  19.444  0.00  0.00    +0.089 A 
ATOM     16  C   UNL     1      -8.772  -8.701  17.104  0.00  0.00    +0.150 C 
ATOM     17  C   UNL     1     -11.244  -9.899  18.669  0.00  0.00    +0.028 A 
ATOM     20  C   UNL     1     -10.321 -12.075  20.250  0.00  0.00    +0.030 A 
ATOM     21  C   UNL     1     -12.122 -10.630  19.477  0.00  0.00    +0.002 A 
ATOM     22  C   UNL     1     -11.671 -11.698  20.254  0.00  0.00    +0.002 A 
ENDBRANCH   7  11
BRANCH   4  12
ATOM     12  C   UNL     1      -4.243 -12.197  15.502  0.00  0.00    +0.119 C 
BRANCH  12  14
ATOM     14  C   UNL     1      -3.972 -11.495  14.197  0.00  0.00    -0.033 A 
ATOM     18  C   UNL     1      -4.978 -11.400  13.235  0.00  0.00    +0.005 A 
ATOM     19  C   UNL     1      -2.717 -10.940  13.951  0.00  0.00    +0.005 A 
ATOM     23  C   UNL     1      -4.728 -10.749  12.027  0.00  0.00    +0.012 A 
ATOM     24  C   UNL     1      -2.468 -10.288  12.744  0.00  0.00    +0.012 A 
ATOM     25  C   UNL     1      -3.472 -10.193  11.782  0.00  0.00    +0.055 A 
BRANCH  25  26
ATOM      1  F   UNL     1      -3.477 -10.259   9.391  0.00  0.00    -0.166 F 
ATOM      2  F   UNL     1      -1.903  -9.113  10.359  0.00  0.00    -0.166 F 
ATOM      3  F   UNL     1      -3.941  -8.355  10.323  0.00  0.00    -0.166 F 
ATOM     26  C   UNL     1      -3.206  -9.496  10.491  0.00  0.00    +0.417 C 
ENDBRANCH  25  26
ENDBRANCH  12  14
ENDBRANCH   4  12
TORSDOF 4
ENDMDL
MODEL 6
REMARK VINA RESULT:      -6.5     27.939     32.671
REMARK  Name = 51137894
REMARK  5 active torsions:
REMARK  status: ('A' for Active; 'I' for Inactive)
REMARK    1  A    between atoms: N_4  and  C_12
REMARK    2  A    between atoms: N_5  and  C_16
REMARK    3  A    between atoms: C_7  and  C_11
REMARK    4  A    between atoms: C_12  and  C_14
REMARK    5  A    between atoms: C_25  and  C_26
REMARK                            x       y       z     vdW  Elec       q    Type
REMARK                         _______ _______ _______ _____ _____    ______ ____
ROOT
ATOM      4  N   UNL     1     -15.085   6.223  21.920  0.00  0.00    -0.297 NA
ATOM      7  C   UNL     1     -15.987   4.257  22.825  0.00  0.00    +0.070 C 
ATOM      8  C   UNL     1     -17.127   5.172  22.346  0.00  0.00    +0.028 C 
ATOM      9  C   UNL     1     -14.753   5.168  22.880  0.00  0.00    +0.096 C 
ATOM     10  C   UNL     1     -16.488   6.546  22.184  0.00  0.00    +0.085 C 
ENDROOT
BRANCH   7  11
ATOM      5  N   UNL     1     -17.015   2.413  24.203  0.00  0.00    -0.330 N 
ATOM      6  N   UNL     1     -15.802   3.909  25.312  0.00  0.00    -0.232 NA
ATOM     11  C   UNL     1     -16.251   3.545  24.132  0.00  0.00    +0.115 A 
ATOM     13  C   UNL     1     -17.060   2.021  25.516  0.00  0.00    +0.069 A 
ATOM     15  C   UNL     1     -16.295   2.970  26.188  0.00  0.00    +0.089 A 
ATOM     16  C   UNL     1     -17.661   1.746  23.095  0.00  0.00    +0.150 C 
ATOM     17  C   UNL     1     -17.685   0.950  26.155  0.00  0.00    +0.028 A 
ATOM     20  C   UNL     1     -16.134   2.861  27.580  0.00  0.00    +0.030 A 
ATOM     21  C   UNL     1     -17.514   0.855  27.540  0.00  0.00    +0.002 A 
ATOM     22  C   UNL     1     -16.753   1.792  28.242  0.00  0.00    +0.002 A 
ENDBRANCH   7  11
BRANCH   4  12
ATOM     12  C   UNL     1     -14.217   7.384  22.047  0.00  0.00    +0.119 C 
BRANCH  12  14
ATOM     14  C   UNL     1     -13.377   7.595  20.816  0.00  0.00    -0.033 A 
ATOM     18  C   UNL     1     -12.023   7.261  20.829  0.00  0.00    +0.005 A 
ATOM     19  C   UNL     1     -13.953   8.123  19.661  0.00  0.00    +0.005 A 
ATOM     23  C   UNL     1     -11.245   7.455  19.688  0.00  0.00    +0.012 A 
ATOM     24  C   UNL     1     -13.175   8.317  18.519  0.00  0.00    +0.012 A 
ATOM     25  C   UNL     1     -11.822   7.984  18.533  0.00  0.00    +0.055 A 
BRANCH  25  26
ATOM      1  F   UNL     1     -10.173   7.133  17.024  0.00  0.00    -0.166 F 
ATOM      2  F   UNL     1     -10.167   9.272  17.414  0.00  0.00    -0.166 F 
ATOM      3  F   UNL     1     -11.724   8.392  16.177  0.00  0.00    -0.166 F 
ATOM     26  C   UNL     1     -10.990   8.189  17.312  0.00  0.00    +0.417 C 
ENDBRANCH  25  26
ENDBRANCH  12  14
ENDBRANCH   4  12
TORSDOF 4
ENDMDL
MODEL 7
REMARK VINA RESULT:      -6.5      5.292      9.641
REMARK  Name = 51137894
REMARK  5 active torsions:
REMARK  status: ('A' for Active; 'I' for Inactive)
REMARK    1  A    between atoms: N_4  and  C_12
REMARK    2  A    between atoms: N_5  and  C_16
REMARK    3  A    between atoms: C_7  and  C_11
REMARK    4  A    between atoms: C_12  and  C_14
REMARK    5  A    between atoms: C_25  and  C_26
REMARK                            x       y       z     vdW  Elec       q    Type
REMARK                         _______ _______ _______ _____ _____    ______ ____
ROOT
ATOM      4  N   UNL     1      11.688   5.059   1.536  0.00  0.00    -0.297 NA
ATOM      7  C   UNL     1      10.522   5.956   3.362  0.00  0.00    +0.070 C 
ATOM      8  C   UNL     1      11.798   6.778   3.112  0.00  0.00    +0.028 C 
ATOM      9  C   UNL     1      10.737   4.656   2.573  0.00  0.00    +0.096 C 
ATOM     10  C   UNL     1      12.669   5.896   2.227  0.00  0.00    +0.085 C 
ENDROOT
BRANCH   7  11
ATOM      5  N   UNL     1       9.774   6.716   5.646  0.00  0.00    -0.330 N 
ATOM      6  N   UNL     1      10.279   4.562   5.444  0.00  0.00    -0.232 NA
ATOM     11  C   UNL     1      10.197   5.714   4.818  0.00  0.00    +0.115 A 
ATOM     13  C   UNL     1       9.568   6.174   6.888  0.00  0.00    +0.069 A 
ATOM     15  C   UNL     1       9.890   4.828   6.736  0.00  0.00    +0.089 A 
ATOM     16  C   UNL     1       9.577   8.101   5.281  0.00  0.00    +0.150 C 
ATOM     17  C   UNL     1       9.141   6.728   8.095  0.00  0.00    +0.028 A 
ATOM     20  C   UNL     1       9.786   3.969   7.844  0.00  0.00    +0.030 A 
ATOM     21  C   UNL     1       9.042   5.860   9.188  0.00  0.00    +0.002 A 
ATOM     22  C   UNL     1       9.359   4.505   9.066  0.00  0.00    +0.002 A 
ENDBRANCH   7  11
BRANCH   4  12
ATOM     12  C   UNL     1      12.303   3.918   0.873  0.00  0.00    +0.119 C 
BRANCH  12  14
ATOM     14  C   UNL     1      11.741   3.700  -0.506  0.00  0.00    -0.033 A 
ATOM     18  C   UNL     1      12.208   2.645  -1.291  0.00  0.00    +0.005 A 
ATOM     19  C   UNL     1      10.751   4.549  -0.999  0.00  0.00    +0.005 A 
ATOM     23  C   UNL     1      11.687   2.442  -2.568  0.00  0.00    +0.012 A 
ATOM     24  C   UNL     1      10.229   4.345  -2.276  0.00  0.00    +0.012 A 
ATOM     25  C   UNL     1      10.697   3.292  -3.061  0.00  0.00    +0.055 A 
BRANCH  25  26
ATOM      1  F   UNL     1       9.295   4.065  -4.838  0.00  0.00    -0.166 F 
ATOM      2  F   UNL     1       9.415   1.918  -4.518  0.00  0.00    -0.166 F 
ATOM      3  F   UNL     1      11.091   2.986  -5.401  0.00  0.00    -0.166 F 
ATOM     26  C   UNL     1      10.138   3.072  -4.425  0.00  0.00    +0.417 C 
ENDBRANCH  25  26
ENDBRANCH  12  14
ENDBRANCH   4  12
TORSDOF 4
ENDMDL
MODEL 8
REMARK VINA RESULT:      -6.5      2.518      3.436
REMARK  Name = 51137894
REMARK  5 active torsions:
REMARK  status: ('A' for Active; 'I' for Inactive)
REMARK    1  A    between atoms: N_4  and  C_12
REMARK    2  A    between atoms: N_5  and  C_16
REMARK    3  A    between atoms: C_7  and  C_11
REMARK    4  A    between atoms: C_12  and  C_14
REMARK    5  A    between atoms: C_25  and  C_26
REMARK                            x       y       z     vdW  Elec       q    Type
REMARK                         _______ _______ _______ _____ _____    ______ ____
ROOT
ATOM      4  N   UNL     1       8.947   9.226   3.765  0.00  0.00    -0.297 NA
ATOM      7  C   UNL     1      10.837   8.420   2.634  0.00  0.00    +0.070 C 
ATOM      8  C   UNL     1       9.706   8.682   1.625  0.00  0.00    +0.028 C 
ATOM      9  C   UNL     1      10.142   8.414   4.003  0.00  0.00    +0.096 C 
ATOM     10  C   UNL     1       8.440   8.780   2.467  0.00  0.00    +0.085 C 
ENDROOT
BRANCH   7  11
ATOM      5  N   UNL     1      12.996   7.194   2.203  0.00  0.00    -0.330 N 
ATOM      6  N   UNL     1      11.158   5.948   2.287  0.00  0.00    -0.232 NA
ATOM     11  C   UNL     1      11.640   7.167   2.376  0.00  0.00    +0.115 A 
ATOM     13  C   UNL     1      13.417   5.907   1.990  0.00  0.00    +0.069 A 
ATOM     15  C   UNL     1      12.252   5.148   2.048  0.00  0.00    +0.089 A 
ATOM     16  C   UNL     1      13.840   8.368   2.239  0.00  0.00    +0.150 C 
ATOM     17  C   UNL     1      14.678   5.358   1.759  0.00  0.00    +0.028 A 
ATOM     20  C   UNL     1      12.330   3.757   1.866  0.00  0.00    +0.030 A 
ATOM     21  C   UNL     1      14.740   3.972   1.580  0.00  0.00    +0.002 A 
ATOM     22  C   UNL     1      13.588   3.184   1.632  0.00  0.00    +0.002 A 
ENDBRANCH   7  11
BRANCH   4  12
ATOM     12  C   UNL     1       7.959   9.083   4.824  0.00  0.00    +0.119 C 
BRANCH  12  14
ATOM     14  C   UNL     1       8.379   8.067   5.852  0.00  0.00    -0.033 A 
ATOM     18  C   UNL     1       8.369   6.709   5.535  0.00  0.00    +0.005 A 
ATOM     19  C   UNL     1       8.780   8.484   7.121  0.00  0.00    +0.005 A 
ATOM     23  C   UNL     1       8.760   5.768   6.487  0.00  0.00    +0.012 A 
ATOM     24  C   UNL     1       9.172   7.542   8.073  0.00  0.00    +0.012 A 
ATOM     25  C   UNL     1       9.161   6.185   7.756  0.00  0.00    +0.055 A 
BRANCH  25  26
ATOM      1  F   UNL     1      10.800   5.440   9.330  0.00  0.00    -0.166 F 
ATOM      2  F   UNL     1       9.677   3.918   8.257  0.00  0.00    -0.166 F 
ATOM      3  F   UNL     1       8.721   5.075   9.830  0.00  0.00    -0.166 F 
ATOM     26  C   UNL     1       9.581   5.178   8.773  0.00  0.00    +0.417 C 
ENDBRANCH  25  26
ENDBRANCH  12  14
ENDBRANCH   4  12
TORSDOF 4
ENDMDL
MODEL 9
REMARK VINA RESULT:      -6.5     25.942     28.217
REMARK  Name = 51137894
REMARK  5 active torsions:
REMARK  status: ('A' for Active; 'I' for Inactive)
REMARK    1  A    between atoms: N_4  and  C_12
REMARK    2  A    between atoms: N_5  and  C_16
REMARK    3  A    between atoms: C_7  and  C_11
REMARK    4  A    between atoms: C_12  and  C_14
REMARK    5  A    between atoms: C_25  and  C_26
REMARK                            x       y       z     vdW  Elec       q    Type
REMARK                         _______ _______ _______ _____ _____    ______ ____
ROOT
ATOM      4  N   UNL     1     -10.886  -7.969  15.294  0.00  0.00    -0.297 NA
ATOM      7  C   UNL     1      -8.761  -8.937  15.515  0.00  0.00    +0.070 C 
ATOM      8  C   UNL     1      -9.702  -9.920  14.798  0.00  0.00    +0.028 C 
ATOM      9  C   UNL     1      -9.696  -7.892  16.143  0.00  0.00    +0.096 C 
ATOM     10  C   UNL     1     -11.106  -9.400  15.080  0.00  0.00    +0.085 C 
ENDROOT
BRANCH   7  11
ATOM      5  N   UNL     1      -6.582 -10.017  16.175  0.00  0.00    -0.330 N 
ATOM      6  N   UNL     1      -8.083  -9.764  17.794  0.00  0.00    -0.232 NA
ATOM     11  C   UNL     1      -7.827  -9.570  16.520  0.00  0.00    +0.115 A 
ATOM     13  C   UNL     1      -5.996 -10.533  17.302  0.00  0.00    +0.069 A 
ATOM     15  C   UNL     1      -6.952 -10.363  18.299  0.00  0.00    +0.089 A 
ATOM     16  C   UNL     1      -5.986  -9.959  14.859  0.00  0.00    +0.150 C 
ATOM     17  C   UNL     1      -4.749 -11.116  17.528  0.00  0.00    +0.028 A 
ATOM     20  C   UNL     1      -6.666 -10.794  19.605  0.00  0.00    +0.030 A 
ATOM     21  C   UNL     1      -4.479 -11.539  18.834  0.00  0.00    +0.002 A 
ATOM     22  C   UNL     1      -5.419 -11.383  19.855  0.00  0.00    +0.002 A 
ENDBRANCH   7  11
BRANCH   4  12
ATOM     12  C   UNL     1     -12.039  -7.315  15.894  0.00  0.00    +0.119 C 
BRANCH  12  14
ATOM     14  C   UNL     1     -12.708  -6.365  14.936  0.00  0.00    -0.033 A 
ATOM     18  C   UNL     1     -14.095  -6.393  14.781  0.00  0.00    +0.005 A 
ATOM     19  C   UNL     1     -11.944  -5.457  14.206  0.00  0.00    +0.005 A 
ATOM     23  C   UNL     1     -14.715  -5.513  13.894  0.00  0.00    +0.012 A 
ATOM     24  C   UNL     1     -12.564  -4.575  13.320  0.00  0.00    +0.012 A 
ATOM     25  C   UNL     1     -13.949  -4.604  13.164  0.00  0.00    +0.055 A 
BRANCH  25  26
ATOM      1  F   UNL     1     -13.777  -3.175  11.254  0.00  0.00    -0.166 F 
ATOM      2  F   UNL     1     -15.126  -2.563  12.845  0.00  0.00    -0.166 F 
ATOM      3  F   UNL     1     -15.660  -4.215  11.537  0.00  0.00    -0.166 F 
ATOM     26  C   UNL     1     -14.613  -3.661  12.219  0.00  0.00    +0.417 C 
ENDBRANCH  25  26
ENDBRANCH  12  14
ENDBRANCH   4  12
TORSDOF 4
ENDMDL
MODEL 10
REMARK VINA RESULT:      -6.4     22.912     25.737
REMARK  Name = 51137894
REMARK  5 active torsions:
REMARK  status: ('A' for Active; 'I' for Inactive)
REMARK    1  A    between atoms: N_4  and  C_12
REMARK    2  A    between atoms: N_5  and  C_16
REMARK    3  A    between atoms: C_7  and  C_11
REMARK    4  A    between atoms: C_12  and  C_14
REMARK    5  A    between atoms: C_25  and  C_26
REMARK                            x       y       z     vdW  Elec       q    Type
REMARK                         _______ _______ _______ _____ _____    ______ ____
ROOT
ATOM      4  N   UNL     1      -6.833 -11.583  17.206  0.00  0.00    -0.297 NA
ATOM      7  C   UNL     1      -4.892 -11.407  15.902  0.00  0.00    +0.070 C 
ATOM      8  C   UNL     1      -4.858 -10.351  17.019  0.00  0.00    +0.028 C 
ATOM      9  C   UNL     1      -6.353 -11.876  15.854  0.00  0.00    +0.096 C 
ATOM     10  C   UNL     1      -6.295 -10.259  17.519  0.00  0.00    +0.085 C 
ENDROOT
BRANCH   7  11
ATOM      5  N   UNL     1      -3.052 -10.930  14.247  0.00  0.00    -0.330 N 
ATOM      6  N   UNL     1      -5.122 -10.477  13.574  0.00  0.00    -0.232 NA
ATOM     11  C   UNL     1      -4.383 -10.931  14.561  0.00  0.00    +0.115 A 
ATOM     13  C   UNL     1      -2.925 -10.443  12.971  0.00  0.00    +0.069 A 
ATOM     15  C   UNL     1      -4.230 -10.168  12.573  0.00  0.00    +0.089 A 
ATOM     16  C   UNL     1      -1.971 -11.363  15.102  0.00  0.00    +0.150 C 
ATOM     17  C   UNL     1      -1.814 -10.226  12.156  0.00  0.00    +0.028 A 
ATOM     20  C   UNL     1      -4.459  -9.645  11.289  0.00  0.00    +0.030 A 
ATOM     21  C   UNL     1      -2.059  -9.706  10.881  0.00  0.00    +0.002 A 
ATOM     22  C   UNL     1      -3.358  -9.419  10.454  0.00  0.00    +0.002 A 
ENDBRANCH   7  11
BRANCH   4  12
ATOM     12  C   UNL     1      -8.285 -11.627  17.303  0.00  0.00    +0.119 C 
BRANCH  12  14
ATOM     14  C   UNL     1      -8.915 -10.320  16.899  0.00  0.00    -0.033 A 
ATOM     18  C   UNL     1      -9.066 -10.008  15.548  0.00  0.00    +0.005 A 
ATOM     19  C   UNL     1      -9.348  -9.424  17.874  0.00  0.00    +0.005 A 
ATOM     23  C   UNL     1      -9.651  -8.798  15.173  0.00  0.00    +0.012 A 
ATOM     24  C   UNL     1      -9.934  -8.214  17.500  0.00  0.00    +0.012 A 
ATOM     25  C   UNL     1     -10.085  -7.902  16.150  0.00  0.00    +0.055 A 
BRANCH  25  26
ATOM      1  F   UNL     1     -11.301  -5.943  16.785  0.00  0.00    -0.166 F 
ATOM      2  F   UNL     1     -11.693  -6.770  14.813  0.00  0.00    -0.166 F 
ATOM      3  F   UNL     1      -9.831  -5.718  15.206  0.00  0.00    -0.166 F 
ATOM     26  C   UNL     1     -10.712  -6.610  15.749  0.00  0.00    +0.417 C 
ENDBRANCH  25  26
ENDBRANCH  12  14
ENDBRANCH   4  12
TORSDOF 4
ENDMDL
