MODEL 1
REMARK VINA RESULT:      -7.5      0.000      0.000
REMARK  Name = 56774712
REMARK  13 active torsions:
REMARK  status: ('A' for Active; 'I' for Inactive)
REMARK    1  A    between atoms: O_2  and  C_8
REMARK    2  A    between atoms: N_5  and  C_9
REMARK    3  A    between atoms: N_6  and  C_24
REMARK    4  A    between atoms: C_7  and  C_8
REMARK    5  A    between atoms: C_8  and  C_13
REMARK    6  A    between atoms: C_9  and  C_11
REMARK    7  A    between atoms: C_11  and  C_16
REMARK    8  A    between atoms: C_11  and  C_17
REMARK    9  A    between atoms: C_15  and  C_18
REMARK   10  A    between atoms: C_15  and  C_21
REMARK   11  A    between atoms: C_15  and  C_22
REMARK   12  A    between atoms: C_15  and  C_23
REMARK   13  A    between atoms: C_18  and  C_27
REMARK                            x       y       z     vdW  Elec       q    Type
REMARK                         _______ _______ _______ _____ _____    ______ ____
ROOT
ATOM     13  C   UNL     1      15.639   6.695  19.925  0.00  0.00    -0.017 A 
ATOM     19  C   UNL     1      16.382   5.999  18.973  0.00  0.00    +0.008 A 
ATOM     20  C   UNL     1      16.273   7.243  21.041  0.00  0.00    +0.008 A 
ATOM     24  C   UNL     1      18.394   6.396  20.252  0.00  0.00    +0.033 A 
ATOM     25  C   UNL     1      17.760   5.849  19.136  0.00  0.00    +0.023 A 
ATOM     26  C   UNL     1      17.650   7.093  21.205  0.00  0.00    +0.023 A 
ENDROOT
BRANCH  24   6
ATOM      4  O   UNL     1      20.027   6.009  22.741  0.00  0.00    -0.275 OA
ATOM      6  N   UNL     1      19.791   6.244  20.416  0.00  0.00    -0.285 N 
ATOM     27  C   UNL     1      20.489   6.070  21.604  0.00  0.00    +0.218 C 
ATOM     29  H   UNL     1      20.329   6.271  19.554  0.00  0.00    +0.155 HD
BRANCH  27  18
ATOM     18  C   UNL     1      21.989   5.943  21.375  0.00  0.00    +0.102 C 
BRANCH  18  15
ATOM     15  C   UNL     1      22.555   4.516  21.569  0.00  0.00    -0.029 C 
ATOM     21  C   UNL     1      22.932   4.266  23.039  0.00  0.00    +0.011 C 
ATOM     22  C   UNL     1      21.553   3.443  21.114  0.00  0.00    +0.011 C 
ATOM     23  C   UNL     1      23.829   4.386  20.711  0.00  0.00    +0.011 C 
ENDBRANCH  18  15
ENDBRANCH  27  18
ENDBRANCH  24   6
BRANCH  13   8
ATOM      8  C   UNL     1      14.167   6.856  19.752  0.00  0.00    +0.167 C 
BRANCH   8   7
ATOM      1  O   UNL     1      14.332   8.468  17.306  0.00  0.00    -0.369 OA
ATOM      3  O   UNL     1      10.732   8.368  17.566  0.00  0.00    -0.273 OA
ATOM      5  N   UNL     1      12.324   8.422  19.262  0.00  0.00    -0.291 N 
ATOM      7  C   UNL     1      13.745   8.323  19.618  0.00  0.00    +0.135 C 
ATOM     10  C   UNL     1      14.595   9.045  18.580  0.00  0.00    +0.185 C 
ATOM     12  C   UNL     1      11.904   8.458  17.934  0.00  0.00    +0.242 C 
ATOM     14  C   UNL     1      13.001   8.711  16.906  0.00  0.00    +0.255 C 
BRANCH   5   9
ATOM      9  C   UNL     1      11.351   8.297  20.338  0.00  0.00    +0.111 C 
BRANCH   9  11
ATOM     11  C   UNL     1      11.734   9.126  21.570  0.00  0.00    +0.000 C 
ATOM     16  C   UNL     1      10.906   8.683  22.777  0.00  0.00    +0.009 C 
ATOM     17  C   UNL     1      11.539  10.624  21.324  0.00  0.00    +0.009 C 
ENDBRANCH   9  11
ENDBRANCH   5   9
ENDBRANCH   8   7
BRANCH   8   2
ATOM      2  O   UNL     1      13.478   6.277  20.865  0.00  0.00    -0.385 OA
ATOM     28  H   UNL     1      12.545   6.547  20.818  0.00  0.00    +0.210 HD
ENDBRANCH   8   2
ENDBRANCH  13   8
TORSDOF 8
ENDMDL
MODEL 2
REMARK VINA RESULT:      -7.0      1.627      2.553
REMARK  Name = 56774712
REMARK  13 active torsions:
REMARK  status: ('A' for Active; 'I' for Inactive)
REMARK    1  A    between atoms: O_2  and  C_8
REMARK    2  A    between atoms: N_5  and  C_9
REMARK    3  A    between atoms: N_6  and  C_24
REMARK    4  A    between atoms: C_7  and  C_8
REMARK    5  A    between atoms: C_8  and  C_13
REMARK    6  A    between atoms: C_9  and  C_11
REMARK    7  A    between atoms: C_11  and  C_16
REMARK    8  A    between atoms: C_11  and  C_17
REMARK    9  A    between atoms: C_15  and  C_18
REMARK   10  A    between atoms: C_15  and  C_21
REMARK   11  A    between atoms: C_15  and  C_22
REMARK   12  A    between atoms: C_15  and  C_23
REMARK   13  A    between atoms: C_18  and  C_27
REMARK                            x       y       z     vdW  Elec       q    Type
REMARK                         _______ _______ _______ _____ _____    ______ ____
ROOT
ATOM     13  C   UNL     1      15.558   6.529  20.054  0.00  0.00    -0.017 A 
ATOM     19  C   UNL     1      16.259   6.710  21.246  0.00  0.00    +0.008 A 
ATOM     20  C   UNL     1      16.231   6.113  18.904  0.00  0.00    +0.008 A 
ATOM     24  C   UNL     1      18.307   6.059  20.139  0.00  0.00    +0.033 A 
ATOM     25  C   UNL     1      17.634   6.475  21.288  0.00  0.00    +0.023 A 
ATOM     26  C   UNL     1      17.605   5.878  18.947  0.00  0.00    +0.023 A 
ENDROOT
BRANCH  24   6
ATOM      4  O   UNL     1      20.558   7.844  21.011  0.00  0.00    -0.275 OA
ATOM      6  N   UNL     1      19.701   5.820  20.183  0.00  0.00    -0.285 N 
ATOM     27  C   UNL     1      20.696   6.696  20.597  0.00  0.00    +0.218 C 
ATOM     29  H   UNL     1      19.987   4.897  19.868  0.00  0.00    +0.155 HD
BRANCH  27  18
ATOM     18  C   UNL     1      22.084   6.074  20.501  0.00  0.00    +0.102 C 
BRANCH  18  15
ATOM     15  C   UNL     1      22.430   5.082  21.637  0.00  0.00    -0.029 C 
ATOM     21  C   UNL     1      21.866   5.565  22.984  0.00  0.00    +0.011 C 
ATOM     22  C   UNL     1      21.893   3.672  21.339  0.00  0.00    +0.011 C 
ATOM     23  C   UNL     1      23.965   5.003  21.751  0.00  0.00    +0.011 C 
ENDBRANCH  18  15
ENDBRANCH  27  18
ENDBRANCH  24   6
BRANCH  13   8
ATOM      8  C   UNL     1      14.089   6.779  20.007  0.00  0.00    +0.167 C 
BRANCH   8   7
ATOM      1  O   UNL     1      11.490   7.850  19.164  0.00  0.00    -0.369 OA
ATOM      3  O   UNL     1      11.461   9.135  22.539  0.00  0.00    -0.273 OA
ATOM      5  N   UNL     1      13.265   8.833  21.100  0.00  0.00    -0.291 N 
ATOM      7  C   UNL     1      13.747   8.263  19.836  0.00  0.00    +0.135 C 
ATOM     10  C   UNL     1      12.704   8.462  18.742  0.00  0.00    +0.185 C 
ATOM     12  C   UNL     1      11.911   8.833  21.432  0.00  0.00    +0.242 C 
ATOM     14  C   UNL     1      10.955   8.511  20.290  0.00  0.00    +0.255 C 
BRANCH   5   9
ATOM      9  C   UNL     1      14.264   9.233  22.081  0.00  0.00    +0.111 C 
BRANCH   9  11
ATOM     11  C   UNL     1      14.924  10.570  21.728  0.00  0.00    +0.000 C 
ATOM     16  C   UNL     1      13.862  11.579  21.288  0.00  0.00    +0.009 C 
ATOM     17  C   UNL     1      15.977  10.407  20.629  0.00  0.00    +0.009 C 
ENDBRANCH   9  11
ENDBRANCH   5   9
ENDBRANCH   8   7
BRANCH   8   2
ATOM      2  O   UNL     1      13.473   6.300  21.208  0.00  0.00    -0.385 OA
ATOM     28  H   UNL     1      14.093   5.689  21.643  0.00  0.00    +0.210 HD
ENDBRANCH   8   2
ENDBRANCH  13   8
TORSDOF 8
ENDMDL
MODEL 3
REMARK VINA RESULT:      -6.6      1.188      1.914
REMARK  Name = 56774712
REMARK  13 active torsions:
REMARK  status: ('A' for Active; 'I' for Inactive)
REMARK    1  A    between atoms: O_2  and  C_8
REMARK    2  A    between atoms: N_5  and  C_9
REMARK    3  A    between atoms: N_6  and  C_24
REMARK    4  A    between atoms: C_7  and  C_8
REMARK    5  A    between atoms: C_8  and  C_13
REMARK    6  A    between atoms: C_9  and  C_11
REMARK    7  A    between atoms: C_11  and  C_16
REMARK    8  A    between atoms: C_11  and  C_17
REMARK    9  A    between atoms: C_15  and  C_18
REMARK   10  A    between atoms: C_15  and  C_21
REMARK   11  A    between atoms: C_15  and  C_22
REMARK   12  A    between atoms: C_15  and  C_23
REMARK   13  A    between atoms: C_18  and  C_27
REMARK                            x       y       z     vdW  Elec       q    Type
REMARK                         _______ _______ _______ _____ _____    ______ ____
ROOT
ATOM     13  C   UNL     1      15.788   7.040  20.417  0.00  0.00    -0.017 A 
ATOM     19  C   UNL     1      16.599   7.705  21.336  0.00  0.00    +0.008 A 
ATOM     20  C   UNL     1      16.360   6.202  19.459  0.00  0.00    +0.008 A 
ATOM     24  C   UNL     1      18.556   6.695  20.339  0.00  0.00    +0.033 A 
ATOM     25  C   UNL     1      17.983   7.533  21.296  0.00  0.00    +0.023 A 
ATOM     26  C   UNL     1      17.744   6.030  19.420  0.00  0.00    +0.023 A 
ENDROOT
BRANCH  24   6
ATOM      4  O   UNL     1      20.430   5.551  22.387  0.00  0.00    -0.275 OA
ATOM      6  N   UNL     1      19.959   6.521  20.301  0.00  0.00    -0.285 N 
ATOM     27  C   UNL     1      20.773   5.984  21.290  0.00  0.00    +0.218 C 
ATOM     29  H   UNL     1      20.406   6.835  19.442  0.00  0.00    +0.155 HD
BRANCH  27  18
ATOM     18  C   UNL     1      22.239   5.962  20.877  0.00  0.00    +0.102 C 
BRANCH  18  15
ATOM     15  C   UNL     1      23.028   7.248  21.220  0.00  0.00    -0.029 C 
ATOM     21  C   UNL     1      22.406   7.974  22.425  0.00  0.00    +0.011 C 
ATOM     22  C   UNL     1      24.505   6.943  21.520  0.00  0.00    +0.011 C 
ATOM     23  C   UNL     1      22.964   8.188  20.000  0.00  0.00    +0.011 C 
ENDBRANCH  18  15
ENDBRANCH  27  18
ENDBRANCH  24   6
BRANCH  13   8
ATOM      8  C   UNL     1      14.309   7.222  20.458  0.00  0.00    +0.167 C 
BRANCH   8   7
ATOM      1  O   UNL     1      13.924   8.360  17.781  0.00  0.00    -0.369 OA
ATOM      3  O   UNL     1      10.478   8.497  18.855  0.00  0.00    -0.273 OA
ATOM      5  N   UNL     1      12.418   8.770  20.111  0.00  0.00    -0.291 N 
ATOM      7  C   UNL     1      13.882   8.661  20.152  0.00  0.00    +0.135 C 
ATOM     10  C   UNL     1      14.478   9.141  18.834  0.00  0.00    +0.185 C 
ATOM     12  C   UNL     1      11.705   8.589  18.927  0.00  0.00    +0.242 C 
ATOM     14  C   UNL     1      12.539   8.597  17.651  0.00  0.00    +0.255 C 
BRANCH   5   9
ATOM      9  C   UNL     1      11.717   8.890  21.382  0.00  0.00    +0.111 C 
BRANCH   9  11
ATOM     11  C   UNL     1      12.006  10.222  22.083  0.00  0.00    +0.000 C 
ATOM     16  C   UNL     1      11.091  10.384  23.298  0.00  0.00    +0.009 C 
ATOM     17  C   UNL     1      11.827  11.409  21.134  0.00  0.00    +0.009 C 
ENDBRANCH   9  11
ENDBRANCH   5   9
ENDBRANCH   8   7
BRANCH   8   2
ATOM      2  O   UNL     1      13.807   6.856  21.748  0.00  0.00    -0.385 OA
ATOM     28  H   UNL     1      13.269   6.052  21.647  0.00  0.00    +0.210 HD
ENDBRANCH   8   2
ENDBRANCH  13   8
TORSDOF 8
ENDMDL
MODEL 4
REMARK VINA RESULT:      -6.4     27.324     30.539
REMARK  Name = 56774712
REMARK  13 active torsions:
REMARK  status: ('A' for Active; 'I' for Inactive)
REMARK    1  A    between atoms: O_2  and  C_8
REMARK    2  A    between atoms: N_5  and  C_9
REMARK    3  A    between atoms: N_6  and  C_24
REMARK    4  A    between atoms: C_7  and  C_8
REMARK    5  A    between atoms: C_8  and  C_13
REMARK    6  A    between atoms: C_9  and  C_11
REMARK    7  A    between atoms: C_11  and  C_16
REMARK    8  A    between atoms: C_11  and  C_17
REMARK    9  A    between atoms: C_15  and  C_18
REMARK   10  A    between atoms: C_15  and  C_21
REMARK   11  A    between atoms: C_15  and  C_22
REMARK   12  A    between atoms: C_15  and  C_23
REMARK   13  A    between atoms: C_18  and  C_27
REMARK                            x       y       z     vdW  Elec       q    Type
REMARK                         _______ _______ _______ _____ _____    ______ ____
ROOT
ATOM     13  C   UNL     1      -4.933 -10.525  16.832  0.00  0.00    -0.017 A 
ATOM     19  C   UNL     1      -6.012  -9.763  16.386  0.00  0.00    +0.008 A 
ATOM     20  C   UNL     1      -5.003 -11.183  18.061  0.00  0.00    +0.008 A 
ATOM     24  C   UNL     1      -7.233 -10.314  18.398  0.00  0.00    +0.033 A 
ATOM     25  C   UNL     1      -7.162  -9.657  17.170  0.00  0.00    +0.023 A 
ATOM     26  C   UNL     1      -6.152 -11.077  18.844  0.00  0.00    +0.023 A 
ENDROOT
BRANCH  24   6
ATOM      4  O   UNL     1      -9.602 -12.144  18.629  0.00  0.00    -0.275 OA
ATOM      6  N   UNL     1      -8.399 -10.207  19.191  0.00  0.00    -0.285 N 
ATOM     27  C   UNL     1      -9.467 -11.093  19.250  0.00  0.00    +0.218 C 
ATOM     29  H   UNL     1      -8.443  -9.376  19.777  0.00  0.00    +0.155 HD
BRANCH  27  18
ATOM     18  C   UNL     1     -10.542 -10.632  20.227  0.00  0.00    +0.102 C 
BRANCH  18  15
ATOM     15  C   UNL     1     -11.914 -10.324  19.582  0.00  0.00    -0.029 C 
ATOM     21  C   UNL     1     -11.757  -9.395  18.366  0.00  0.00    +0.011 C 
ATOM     22  C   UNL     1     -12.637 -11.609  19.147  0.00  0.00    +0.011 C 
ATOM     23  C   UNL     1     -12.785  -9.608  20.632  0.00  0.00    +0.011 C 
ENDBRANCH  18  15
ENDBRANCH  27  18
ENDBRANCH  24   6
BRANCH  13   8
ATOM      8  C   UNL     1      -3.704 -10.640  15.996  0.00  0.00    +0.167 C 
BRANCH   8   7
ATOM      1  O   UNL     1      -1.732 -10.955  13.846  0.00  0.00    -0.369 OA
ATOM      3  O   UNL     1      -2.407 -14.461  14.388  0.00  0.00    -0.273 OA
ATOM      5  N   UNL     1      -3.852 -12.644  14.565  0.00  0.00    -0.291 N 
ATOM      7  C   UNL     1      -3.992 -11.183  14.593  0.00  0.00    +0.135 C 
ATOM     10  C   UNL     1      -3.066 -10.550  13.560  0.00  0.00    +0.185 C 
ATOM     12  C   UNL     1      -2.637 -13.256  14.263  0.00  0.00    +0.242 C 
ATOM     14  C   UNL     1      -1.575 -12.344  13.660  0.00  0.00    +0.255 C 
BRANCH   5   9
ATOM      9  C   UNL     1      -4.976 -13.437  15.043  0.00  0.00    +0.111 C 
BRANCH   9  11
ATOM     11  C   UNL     1      -6.314 -12.952  14.473  0.00  0.00    +0.000 C 
ATOM     16  C   UNL     1      -7.416 -13.100  15.524  0.00  0.00    +0.009 C 
ATOM     17  C   UNL     1      -6.698 -13.716  13.204  0.00  0.00    +0.009 C 
ENDBRANCH   9  11
ENDBRANCH   5   9
ENDBRANCH   8   7
BRANCH   8   2
ATOM      2  O   UNL     1      -2.755 -11.499  16.638  0.00  0.00    -0.385 OA
ATOM     28  H   UNL     1      -1.931 -10.998  16.767  0.00  0.00    +0.210 HD
ENDBRANCH   8   2
ENDBRANCH  13   8
TORSDOF 8
ENDMDL
MODEL 5
REMARK VINA RESULT:      -6.1     27.349     30.999
REMARK  Name = 56774712
REMARK  13 active torsions:
REMARK  status: ('A' for Active; 'I' for Inactive)
REMARK    1  A    between atoms: O_2  and  C_8
REMARK    2  A    between atoms: N_5  and  C_9
REMARK    3  A    between atoms: N_6  and  C_24
REMARK    4  A    between atoms: C_7  and  C_8
REMARK    5  A    between atoms: C_8  and  C_13
REMARK    6  A    between atoms: C_9  and  C_11
REMARK    7  A    between atoms: C_11  and  C_16
REMARK    8  A    between atoms: C_11  and  C_17
REMARK    9  A    between atoms: C_15  and  C_18
REMARK   10  A    between atoms: C_15  and  C_21
REMARK   11  A    between atoms: C_15  and  C_22
REMARK   12  A    between atoms: C_15  and  C_23
REMARK   13  A    between atoms: C_18  and  C_27
REMARK                            x       y       z     vdW  Elec       q    Type
REMARK                         _______ _______ _______ _____ _____    ______ ____
ROOT
ATOM     13  C   UNL     1      -7.366 -10.471  16.064  0.00  0.00    -0.017 A 
ATOM     19  C   UNL     1      -7.452  -9.217  16.669  0.00  0.00    +0.008 A 
ATOM     20  C   UNL     1      -8.326 -11.445  16.339  0.00  0.00    +0.008 A 
ATOM     24  C   UNL     1      -9.458  -9.912  17.824  0.00  0.00    +0.033 A 
ATOM     25  C   UNL     1      -8.498  -8.938  17.550  0.00  0.00    +0.023 A 
ATOM     26  C   UNL     1      -9.372 -11.166  17.219  0.00  0.00    +0.023 A 
ENDROOT
BRANCH  24   6
ATOM      4  O   UNL     1     -10.134 -11.120  20.488  0.00  0.00    -0.275 OA
ATOM      6  N   UNL     1     -10.518  -9.627  18.717  0.00  0.00    -0.285 N 
ATOM     27  C   UNL     1     -10.778 -10.229  19.941  0.00  0.00    +0.218 C 
ATOM     29  H   UNL     1     -11.155  -8.897  18.406  0.00  0.00    +0.155 HD
BRANCH  27  18
ATOM     18  C   UNL     1     -12.016  -9.650  20.614  0.00  0.00    +0.102 C 
BRANCH  18  15
ATOM     15  C   UNL     1     -13.305 -10.485  20.427  0.00  0.00    -0.029 C 
ATOM     21  C   UNL     1     -13.345 -11.137  19.035  0.00  0.00    +0.011 C 
ATOM     22  C   UNL     1     -13.431 -11.578  21.502  0.00  0.00    +0.011 C 
ATOM     23  C   UNL     1     -14.512  -9.536  20.556  0.00  0.00    +0.011 C 
ENDBRANCH  18  15
ENDBRANCH  27  18
ENDBRANCH  24   6
BRANCH  13   8
ATOM      8  C   UNL     1      -6.249 -10.771  15.123  0.00  0.00    +0.167 C 
BRANCH   8   7
ATOM      1  O   UNL     1      -4.144 -12.114  13.583  0.00  0.00    -0.369 OA
ATOM      3  O   UNL     1      -1.993 -10.311  15.855  0.00  0.00    -0.273 OA
ATOM      5  N   UNL     1      -4.097 -11.225  16.242  0.00  0.00    -0.291 N 
ATOM      7  C   UNL     1      -5.296 -11.843  15.660  0.00  0.00    +0.135 C 
ATOM     10  C   UNL     1      -4.897 -12.821  14.561  0.00  0.00    +0.185 C 
ATOM     12  C   UNL     1      -2.960 -10.975  15.477  0.00  0.00    +0.242 C 
ATOM     14  C   UNL     1      -2.919 -11.662  14.117  0.00  0.00    +0.255 C 
BRANCH   5   9
ATOM      9  C   UNL     1      -4.198 -10.712  17.601  0.00  0.00    +0.111 C 
BRANCH   9  11
ATOM     11  C   UNL     1      -4.711 -11.769  18.586  0.00  0.00    +0.000 C 
ATOM     16  C   UNL     1      -5.840 -11.186  19.439  0.00  0.00    +0.009 C 
ATOM     17  C   UNL     1      -3.591 -12.291  19.489  0.00  0.00    +0.009 C 
ENDBRANCH   9  11
ENDBRANCH   5   9
ENDBRANCH   8   7
BRANCH   8   2
ATOM      2  O   UNL     1      -5.501  -9.579  14.857  0.00  0.00    -0.385 OA
ATOM     28  H   UNL     1      -5.113  -9.657  13.969  0.00  0.00    +0.210 HD
ENDBRANCH   8   2
ENDBRANCH  13   8
TORSDOF 8
ENDMDL
MODEL 6
REMARK VINA RESULT:      -6.1     14.827     18.695
REMARK  Name = 56774712
REMARK  13 active torsions:
REMARK  status: ('A' for Active; 'I' for Inactive)
REMARK    1  A    between atoms: O_2  and  C_8
REMARK    2  A    between atoms: N_5  and  C_9
REMARK    3  A    between atoms: N_6  and  C_24
REMARK    4  A    between atoms: C_7  and  C_8
REMARK    5  A    between atoms: C_8  and  C_13
REMARK    6  A    between atoms: C_9  and  C_11
REMARK    7  A    between atoms: C_11  and  C_16
REMARK    8  A    between atoms: C_11  and  C_17
REMARK    9  A    between atoms: C_15  and  C_18
REMARK   10  A    between atoms: C_15  and  C_21
REMARK   11  A    between atoms: C_15  and  C_22
REMARK   12  A    between atoms: C_15  and  C_23
REMARK   13  A    between atoms: C_18  and  C_27
REMARK                            x       y       z     vdW  Elec       q    Type
REMARK                         _______ _______ _______ _____ _____    ______ ____
ROOT
ATOM     13  C   UNL     1       9.951   5.977   3.789  0.00  0.00    -0.017 A 
ATOM     19  C   UNL     1       9.796   6.508   2.509  0.00  0.00    +0.008 A 
ATOM     20  C   UNL     1      10.539   4.723   3.959  0.00  0.00    +0.008 A 
ATOM     24  C   UNL     1      10.817   4.531   1.566  0.00  0.00    +0.033 A 
ATOM     25  C   UNL     1      10.229   5.784   1.397  0.00  0.00    +0.023 A 
ATOM     26  C   UNL     1      10.971   4.000   2.847  0.00  0.00    +0.023 A 
ENDROOT
BRANCH  24   6
ATOM      4  O   UNL     1      13.465   4.542   0.151  0.00  0.00    -0.275 OA
ATOM      6  N   UNL     1      11.256   3.799   0.438  0.00  0.00    -0.285 N 
ATOM     27  C   UNL     1      12.502   3.852  -0.173  0.00  0.00    +0.218 C 
ATOM     29  H   UNL     1      10.563   3.168   0.041  0.00  0.00    +0.155 HD
BRANCH  27  18
ATOM     18  C   UNL     1      12.596   2.911  -1.367  0.00  0.00    +0.102 C 
BRANCH  18  15
ATOM     15  C   UNL     1      12.005   3.471  -2.683  0.00  0.00    -0.029 C 
ATOM     21  C   UNL     1      11.796   4.993  -2.591  0.00  0.00    +0.011 C 
ATOM     22  C   UNL     1      12.906   3.156  -3.888  0.00  0.00    +0.011 C 
ATOM     23  C   UNL     1      10.634   2.805  -2.912  0.00  0.00    +0.011 C 
ENDBRANCH  18  15
ENDBRANCH  27  18
ENDBRANCH  24   6
BRANCH  13   8
ATOM      8  C   UNL     1       9.489   6.749   4.979  0.00  0.00    +0.167 C 
BRANCH   8   7
ATOM      1  O   UNL     1      11.495   8.797   5.602  0.00  0.00    -0.369 OA
ATOM      3  O   UNL     1       9.440   9.236   8.539  0.00  0.00    -0.273 OA
ATOM      5  N   UNL     1       9.903   7.290   7.351  0.00  0.00    -0.291 N 
ATOM      7  C   UNL     1      10.486   6.697   6.140  0.00  0.00    +0.135 C 
ATOM     10  C   UNL     1      11.782   7.415   5.781  0.00  0.00    +0.185 C 
ATOM     12  C   UNL     1      10.042   8.646   7.641  0.00  0.00    +0.242 C 
ATOM     14  C   UNL     1      11.086   9.389   6.816  0.00  0.00    +0.255 C 
BRANCH   5   9
ATOM      9  C   UNL     1       9.015   6.454   8.148  0.00  0.00    +0.111 C 
BRANCH   9  11
ATOM     11  C   UNL     1       9.753   5.281   8.803  0.00  0.00    +0.000 C 
ATOM     16  C   UNL     1       9.785   4.084   7.850  0.00  0.00    +0.009 C 
ATOM     17  C   UNL     1       9.104   4.875  10.128  0.00  0.00    +0.009 C 
ENDBRANCH   9  11
ENDBRANCH   5   9
ENDBRANCH   8   7
BRANCH   8   2
ATOM      2  O   UNL     1       8.228   6.242   5.430  0.00  0.00    -0.385 OA
ATOM     28  H   UNL     1       7.540   6.548   4.815  0.00  0.00    +0.210 HD
ENDBRANCH   8   2
ENDBRANCH  13   8
TORSDOF 8
ENDMDL
MODEL 7
REMARK VINA RESULT:      -6.0     16.955     20.798
REMARK  Name = 56774712
REMARK  13 active torsions:
REMARK  status: ('A' for Active; 'I' for Inactive)
REMARK    1  A    between atoms: O_2  and  C_8
REMARK    2  A    between atoms: N_5  and  C_9
REMARK    3  A    between atoms: N_6  and  C_24
REMARK    4  A    between atoms: C_7  and  C_8
REMARK    5  A    between atoms: C_8  and  C_13
REMARK    6  A    between atoms: C_9  and  C_11
REMARK    7  A    between atoms: C_11  and  C_16
REMARK    8  A    between atoms: C_11  and  C_17
REMARK    9  A    between atoms: C_15  and  C_18
REMARK   10  A    between atoms: C_15  and  C_21
REMARK   11  A    between atoms: C_15  and  C_22
REMARK   12  A    between atoms: C_15  and  C_23
REMARK   13  A    between atoms: C_18  and  C_27
REMARK                            x       y       z     vdW  Elec       q    Type
REMARK                         _______ _______ _______ _____ _____    ______ ____
ROOT
ATOM     13  C   UNL     1      11.025   4.388   0.419  0.00  0.00    -0.017 A 
ATOM     19  C   UNL     1      11.763   3.589   1.292  0.00  0.00    +0.008 A 
ATOM     20  C   UNL     1      10.238   5.426   0.920  0.00  0.00    +0.008 A 
ATOM     24  C   UNL     1      10.930   4.866   3.167  0.00  0.00    +0.033 A 
ATOM     25  C   UNL     1      11.716   3.828   2.666  0.00  0.00    +0.023 A 
ATOM     26  C   UNL     1      10.191   5.665   2.293  0.00  0.00    +0.023 A 
ENDROOT
BRANCH  24   6
ATOM      4  O   UNL     1      11.718   7.295   4.746  0.00  0.00    -0.275 OA
ATOM      6  N   UNL     1      10.883   5.108   4.560  0.00  0.00    -0.285 N 
ATOM     27  C   UNL     1      11.268   6.260   5.232  0.00  0.00    +0.218 C 
ATOM     29  H   UNL     1      10.526   4.335   5.116  0.00  0.00    +0.155 HD
BRANCH  27  18
ATOM     18  C   UNL     1      11.067   6.141   6.737  0.00  0.00    +0.102 C 
BRANCH  18  15
ATOM     15  C   UNL     1       9.741   6.742   7.264  0.00  0.00    -0.029 C 
ATOM     21  C   UNL     1       9.928   8.211   7.681  0.00  0.00    +0.011 C 
ATOM     22  C   UNL     1       8.623   6.652   6.213  0.00  0.00    +0.011 C 
ATOM     23  C   UNL     1       9.310   5.935   8.503  0.00  0.00    +0.011 C 
ENDBRANCH  18  15
ENDBRANCH  27  18
ENDBRANCH  24   6
BRANCH  13   8
ATOM      8  C   UNL     1      11.075   4.134  -1.049  0.00  0.00    +0.167 C 
BRANCH   8   7
ATOM      1  O   UNL     1      11.415   2.782  -3.631  0.00  0.00    -0.369 OA
ATOM      3  O   UNL     1      14.082   5.189  -4.001  0.00  0.00    -0.273 OA
ATOM      5  N   UNL     1      13.319   4.129  -2.074  0.00  0.00    -0.291 N 
ATOM      7  C   UNL     1      12.283   3.288  -1.462  0.00  0.00    +0.135 C 
ATOM     10  C   UNL     1      11.873   2.180  -2.426  0.00  0.00    +0.185 C 
ATOM     12  C   UNL     1      13.352   4.364  -3.447  0.00  0.00    +0.242 C 
ATOM     14  C   UNL     1      12.465   3.455  -4.290  0.00  0.00    +0.255 C 
BRANCH   5   9
ATOM      9  C   UNL     1      14.206   4.861  -1.180  0.00  0.00    +0.111 C 
BRANCH   9  11
ATOM     11  C   UNL     1      15.365   3.996  -0.673  0.00  0.00    +0.000 C 
ATOM     16  C   UNL     1      15.384   3.991   0.857  0.00  0.00    +0.009 C 
ATOM     17  C   UNL     1      16.712   4.485  -1.210  0.00  0.00    +0.009 C 
ENDBRANCH   9  11
ENDBRANCH   5   9
ENDBRANCH   8   7
BRANCH   8   2
ATOM      2  O   UNL     1      11.118   5.377  -1.758  0.00  0.00    -0.385 OA
ATOM     28  H   UNL     1      11.775   5.297  -2.471  0.00  0.00    +0.210 HD
ENDBRANCH   8   2
ENDBRANCH  13   8
TORSDOF 8
ENDMDL
MODEL 8
REMARK VINA RESULT:      -6.0     22.951     27.438
REMARK  Name = 56774712
REMARK  13 active torsions:
REMARK  status: ('A' for Active; 'I' for Inactive)
REMARK    1  A    between atoms: O_2  and  C_8
REMARK    2  A    between atoms: N_5  and  C_9
REMARK    3  A    between atoms: N_6  and  C_24
REMARK    4  A    between atoms: C_7  and  C_8
REMARK    5  A    between atoms: C_8  and  C_13
REMARK    6  A    between atoms: C_9  and  C_11
REMARK    7  A    between atoms: C_11  and  C_16
REMARK    8  A    between atoms: C_11  and  C_17
REMARK    9  A    between atoms: C_15  and  C_18
REMARK   10  A    between atoms: C_15  and  C_21
REMARK   11  A    between atoms: C_15  and  C_22
REMARK   12  A    between atoms: C_15  and  C_23
REMARK   13  A    between atoms: C_18  and  C_27
REMARK                            x       y       z     vdW  Elec       q    Type
REMARK                         _______ _______ _______ _____ _____    ______ ____
ROOT
ATOM     13  C   UNL     1      -3.621   8.497   5.442  0.00  0.00    -0.017 A 
ATOM     19  C   UNL     1      -4.822   9.121   5.107  0.00  0.00    +0.008 A 
ATOM     20  C   UNL     1      -3.520   7.106   5.393  0.00  0.00    +0.008 A 
ATOM     24  C   UNL     1      -5.823   6.964   4.674  0.00  0.00    +0.033 A 
ATOM     25  C   UNL     1      -5.923   8.354   4.724  0.00  0.00    +0.023 A 
ATOM     26  C   UNL     1      -4.621   6.340   5.010  0.00  0.00    +0.023 A 
ENDROOT
BRANCH  24   6
ATOM      4  O   UNL     1      -8.182   6.014   6.269  0.00  0.00    -0.275 OA
ATOM      6  N   UNL     1      -6.940   6.188   4.284  0.00  0.00    -0.285 N 
ATOM     27  C   UNL     1      -8.003   5.777   5.078  0.00  0.00    +0.218 C 
ATOM     29  H   UNL     1      -6.944   5.905   3.307  0.00  0.00    +0.155 HD
BRANCH  27  18
ATOM     18  C   UNL     1      -9.017   4.952   4.296  0.00  0.00    +0.102 C 
BRANCH  18  15
ATOM     15  C   UNL     1     -10.309   5.710   3.909  0.00  0.00    -0.029 C 
ATOM     21  C   UNL     1     -10.785   5.309   2.502  0.00  0.00    +0.011 C 
ATOM     22  C   UNL     1     -11.440   5.453   4.918  0.00  0.00    +0.011 C 
ATOM     23  C   UNL     1      -9.995   7.219   3.905  0.00  0.00    +0.011 C 
ENDBRANCH  18  15
ENDBRANCH  27  18
ENDBRANCH  24   6
BRANCH  13   8
ATOM      8  C   UNL     1      -2.444   9.314   5.852  0.00  0.00    +0.167 C 
BRANCH   8   7
ATOM      1  O   UNL     1      -0.649  11.521   6.569  0.00  0.00    -0.369 OA
ATOM      3  O   UNL     1       0.622  10.939   3.240  0.00  0.00    -0.273 OA
ATOM      5  N   UNL     1      -1.554  10.729   4.037  0.00  0.00    -0.291 N 
ATOM      7  C   UNL     1      -2.437  10.705   5.210  0.00  0.00    +0.135 C 
ATOM     10  C   UNL     1      -2.003  11.769   6.211  0.00  0.00    +0.185 C 
ATOM     12  C   UNL     1      -0.206  11.065   4.144  0.00  0.00    +0.242 C 
ATOM     14  C   UNL     1       0.208  11.705   5.464  0.00  0.00    +0.255 C 
BRANCH   5   9
ATOM      9  C   UNL     1      -2.087  10.213   2.783  0.00  0.00    +0.111 C 
BRANCH   9  11
ATOM     11  C   UNL     1      -3.298  11.013   2.292  0.00  0.00    +0.000 C 
ATOM     16  C   UNL     1      -4.259  10.096   1.533  0.00  0.00    +0.009 C 
ATOM     17  C   UNL     1      -2.877  12.182   1.398  0.00  0.00    +0.009 C 
ENDBRANCH   9  11
ENDBRANCH   5   9
ENDBRANCH   8   7
BRANCH   8   2
ATOM      2  O   UNL     1      -1.232   8.637   5.499  0.00  0.00    -0.385 OA
ATOM     28  H   UNL     1      -0.615   9.292   5.130  0.00  0.00    +0.210 HD
ENDBRANCH   8   2
ENDBRANCH  13   8
TORSDOF 8
ENDMDL
MODEL 9
REMARK VINA RESULT:      -5.8     28.344     31.060
REMARK  Name = 56774712
REMARK  13 active torsions:
REMARK  status: ('A' for Active; 'I' for Inactive)
REMARK    1  A    between atoms: O_2  and  C_8
REMARK    2  A    between atoms: N_5  and  C_9
REMARK    3  A    between atoms: N_6  and  C_24
REMARK    4  A    between atoms: C_7  and  C_8
REMARK    5  A    between atoms: C_8  and  C_13
REMARK    6  A    between atoms: C_9  and  C_11
REMARK    7  A    between atoms: C_11  and  C_16
REMARK    8  A    between atoms: C_11  and  C_17
REMARK    9  A    between atoms: C_15  and  C_18
REMARK   10  A    between atoms: C_15  and  C_21
REMARK   11  A    between atoms: C_15  and  C_22
REMARK   12  A    between atoms: C_15  and  C_23
REMARK   13  A    between atoms: C_18  and  C_27
REMARK                            x       y       z     vdW  Elec       q    Type
REMARK                         _______ _______ _______ _____ _____    ______ ____
ROOT
ATOM     13  C   UNL     1     -10.608  -7.990  16.668  0.00  0.00    -0.017 A 
ATOM     19  C   UNL     1      -9.382  -8.163  16.028  0.00  0.00    +0.008 A 
ATOM     20  C   UNL     1     -10.946  -8.791  17.759  0.00  0.00    +0.008 A 
ATOM     24  C   UNL     1      -8.829  -9.940  17.570  0.00  0.00    +0.033 A 
ATOM     25  C   UNL     1      -8.492  -9.139  16.479  0.00  0.00    +0.023 A 
ATOM     26  C   UNL     1     -10.057  -9.767  18.210  0.00  0.00    +0.023 A 
ENDROOT
BRANCH  24   6
ATOM      4  O   UNL     1      -6.885  -9.890  19.858  0.00  0.00    -0.275 OA
ATOM      6  N   UNL     1      -7.926 -10.929  18.027  0.00  0.00    -0.285 N 
ATOM     27  C   UNL     1      -7.045 -10.841  19.097  0.00  0.00    +0.218 C 
ATOM     29  H   UNL     1      -7.935 -11.796  17.494  0.00  0.00    +0.155 HD
BRANCH  27  18
ATOM     18  C   UNL     1      -6.233 -12.117  19.279  0.00  0.00    +0.102 C 
BRANCH  18  15
ATOM     15  C   UNL     1      -4.887 -12.142  18.516  0.00  0.00    -0.029 C 
ATOM     21  C   UNL     1      -4.715 -10.879  17.657  0.00  0.00    +0.011 C 
ATOM     22  C   UNL     1      -3.695 -12.266  19.479  0.00  0.00    +0.011 C 
ATOM     23  C   UNL     1      -4.889 -13.369  17.584  0.00  0.00    +0.011 C 
ENDBRANCH  18  15
ENDBRANCH  27  18
ENDBRANCH  24   6
BRANCH  13   8
ATOM      8  C   UNL     1     -11.560  -6.947  16.187  0.00  0.00    +0.167 C 
BRANCH   8   7
ATOM      1  O   UNL     1     -13.576  -8.948  15.449  0.00  0.00    -0.369 OA
ATOM      3  O   UNL     1     -15.505  -6.007  14.632  0.00  0.00    -0.273 OA
ATOM      5  N   UNL     1     -13.211  -6.353  14.452  0.00  0.00    -0.291 N 
ATOM      7  C   UNL     1     -12.070  -7.221  14.769  0.00  0.00    +0.135 C 
ATOM     10  C   UNL     1     -12.465  -8.683  14.601  0.00  0.00    +0.185 C 
ATOM     12  C   UNL     1     -14.522  -6.746  14.712  0.00  0.00    +0.242 C 
ATOM     14  C   UNL     1     -14.713  -8.223  15.034  0.00  0.00    +0.255 C 
BRANCH   5   9
ATOM      9  C   UNL     1     -12.921  -4.990  14.026  0.00  0.00    +0.111 C 
BRANCH   9  11
ATOM     11  C   UNL     1     -12.297  -4.937  12.627  0.00  0.00    +0.000 C 
ATOM     16  C   UNL     1     -12.150  -3.484  12.174  0.00  0.00    +0.009 C 
ATOM     17  C   UNL     1     -13.129  -5.720  11.608  0.00  0.00    +0.009 C 
ENDBRANCH   9  11
ENDBRANCH   5   9
ENDBRANCH   8   7
BRANCH   8   2
ATOM      2  O   UNL     1     -10.929  -5.662  16.212  0.00  0.00    -0.385 OA
ATOM     28  H   UNL     1     -11.597  -5.002  16.466  0.00  0.00    +0.210 HD
ENDBRANCH   8   2
ENDBRANCH  13   8
TORSDOF 8
ENDMDL
MODEL 10
REMARK VINA RESULT:      -5.8      2.076      3.484
REMARK  Name = 56774712
REMARK  13 active torsions:
REMARK  status: ('A' for Active; 'I' for Inactive)
REMARK    1  A    between atoms: O_2  and  C_8
REMARK    2  A    between atoms: N_5  and  C_9
REMARK    3  A    between atoms: N_6  and  C_24
REMARK    4  A    between atoms: C_7  and  C_8
REMARK    5  A    between atoms: C_8  and  C_13
REMARK    6  A    between atoms: C_9  and  C_11
REMARK    7  A    between atoms: C_11  and  C_16
REMARK    8  A    between atoms: C_11  and  C_17
REMARK    9  A    between atoms: C_15  and  C_18
REMARK   10  A    between atoms: C_15  and  C_21
REMARK   11  A    between atoms: C_15  and  C_22
REMARK   12  A    between atoms: C_15  and  C_23
REMARK   13  A    between atoms: C_18  and  C_27
REMARK                            x       y       z     vdW  Elec       q    Type
REMARK                         _______ _______ _______ _____ _____    ______ ____
ROOT
ATOM     13  C   UNL     1      15.813   7.700  21.624  0.00  0.00    -0.017 A 
ATOM     19  C   UNL     1      16.768   8.709  21.750  0.00  0.00    +0.008 A 
ATOM     20  C   UNL     1      16.174   6.460  21.095  0.00  0.00    +0.008 A 
ATOM     24  C   UNL     1      18.444   7.239  20.817  0.00  0.00    +0.033 A 
ATOM     25  C   UNL     1      18.083   8.478  21.346  0.00  0.00    +0.023 A 
ATOM     26  C   UNL     1      17.488   6.230  20.691  0.00  0.00    +0.023 A 
ENDROOT
BRANCH  24   6
ATOM      4  O   UNL     1      20.675   5.779  22.198  0.00  0.00    -0.275 OA
ATOM      6  N   UNL     1      19.778   7.006  20.408  0.00  0.00    -0.285 N 
ATOM     27  C   UNL     1      20.768   6.321  21.100  0.00  0.00    +0.218 C 
ATOM     29  H   UNL     1      20.022   7.397  19.501  0.00  0.00    +0.155 HD
BRANCH  27  18
ATOM     18  C   UNL     1      22.082   6.280  20.331  0.00  0.00    +0.102 C 
BRANCH  18  15
ATOM     15  C   UNL     1      23.053   7.444  20.644  0.00  0.00    -0.029 C 
ATOM     21  C   UNL     1      24.513   7.027  20.397  0.00  0.00    +0.011 C 
ATOM     22  C   UNL     1      22.732   8.689  19.802  0.00  0.00    +0.011 C 
ATOM     23  C   UNL     1      22.896   7.810  22.133  0.00  0.00    +0.011 C 
ENDBRANCH  18  15
ENDBRANCH  27  18
ENDBRANCH  24   6
BRANCH  13   8
ATOM      8  C   UNL     1      14.407   7.944  22.056  0.00  0.00    +0.167 C 
BRANCH   8   7
ATOM      1  O   UNL     1      11.486   8.105  22.283  0.00  0.00    -0.369 OA
ATOM      3  O   UNL     1      12.010  11.282  20.648  0.00  0.00    -0.273 OA
ATOM      5  N   UNL     1      13.181   9.287  20.388  0.00  0.00    -0.291 N 
ATOM      7  C   UNL     1      13.418   7.926  20.886  0.00  0.00    +0.135 C 
ATOM     10  C   UNL     1      12.098   7.284  21.295  0.00  0.00    +0.185 C 
ATOM     12  C   UNL     1      12.156  10.083  20.895  0.00  0.00    +0.242 C 
ATOM     14  C   UNL     1      11.120   9.356  21.744  0.00  0.00    +0.255 C 
BRANCH   5   9
ATOM      9  C   UNL     1      14.167   9.850  19.475  0.00  0.00    +0.111 C 
BRANCH   9  11
ATOM     11  C   UNL     1      14.038   9.282  18.057  0.00  0.00    +0.000 C 
ATOM     16  C   UNL     1      12.593   9.409  17.572  0.00  0.00    +0.009 C 
ATOM     17  C   UNL     1      14.484   7.820  17.991  0.00  0.00    +0.009 C 
ENDBRANCH   9  11
ENDBRANCH   5   9
ENDBRANCH   8   7
BRANCH   8   2
ATOM      2  O   UNL     1      14.313   9.209  22.721  0.00  0.00    -0.385 OA
ATOM     28  H   UNL     1      14.993   9.797  22.350  0.00  0.00    +0.210 HD
ENDBRANCH   8   2
ENDBRANCH  13   8
TORSDOF 8
ENDMDL
