MODEL 1
REMARK VINA RESULT:      -6.0      0.000      0.000
REMARK  Name = 75367815
REMARK  6 active torsions:
REMARK  status: ('A' for Active; 'I' for Inactive)
REMARK    1  A    between atoms: O_2  and  C_7
REMARK    2  A    between atoms: O_2  and  C_13
REMARK    3  A    between atoms: N_6  and  C_16
REMARK    4  A    between atoms: N_6  and  C_17
REMARK    5  A    between atoms: C_12  and  C_14
REMARK    6  A    between atoms: C_13  and  C_15
REMARK                            x       y       z     vdW  Elec       q    Type
REMARK                         _______ _______ _______ _____ _____    ______ ____
ROOT
ATOM      1  O   UNL     1      -0.693   4.499  25.030  0.00  0.00    -0.376 OA
ATOM      3  O   UNL     1      -5.552   4.181  25.654  0.00  0.00    -0.276 OA
ATOM      5  N   UNL     1      -3.468   3.136  25.650  0.00  0.00    -0.297 N 
ATOM      7  C   UNL     1      -1.145   2.116  25.320  0.00  0.00    +0.162 C 
ATOM      8  C   UNL     1      -2.667   1.946  25.347  0.00  0.00    +0.141 C 
ATOM      9  C   UNL     1      -0.684   3.231  24.385  0.00  0.00    +0.193 C 
ATOM     10  C   UNL     1      -2.803   4.296  26.250  0.00  0.00    +0.136 C 
ATOM     11  C   UNL     1      -1.987   5.062  25.217  0.00  0.00    +0.179 C 
ATOM     12  C   UNL     1      -4.847   3.202  25.401  0.00  0.00    +0.213 C 
ATOM     14  C   UNL     1      -5.475   1.981  24.773  0.00  0.00    +0.109 C 
ENDROOT
BRANCH   7   2
ATOM      2  O   UNL     1      -0.578   0.892  24.850  0.00  0.00    -0.364 OA
BRANCH   2  13
ATOM     13  C   UNL     1      -1.506   0.165  24.061  0.00  0.00    +0.256 C 
BRANCH  13  15
ATOM      4  O   UNL     1      -0.775  -1.751  25.248  0.00  0.00    -0.273 OA
ATOM      6  N   UNL     1      -2.977  -1.789  24.512  0.00  0.00    -0.306 N 
ATOM     15  C   UNL     1      -1.716  -1.210  24.657  0.00  0.00    +0.241 C 
ATOM     16  C   UNL     1      -3.231  -3.109  25.077  0.00  0.00    +0.131 C 
ATOM     17  C   UNL     1      -4.118  -1.176  23.835  0.00  0.00    +0.131 C 
ENDBRANCH  13  15
ENDBRANCH   2  13
ENDBRANCH   7   2
TORSDOF 3
ENDMDL
MODEL 2
REMARK VINA RESULT:      -5.6     16.222     18.090
REMARK  Name = 75367815
REMARK  6 active torsions:
REMARK  status: ('A' for Active; 'I' for Inactive)
REMARK    1  A    between atoms: O_2  and  C_7
REMARK    2  A    between atoms: O_2  and  C_13
REMARK    3  A    between atoms: N_6  and  C_16
REMARK    4  A    between atoms: N_6  and  C_17
REMARK    5  A    between atoms: C_12  and  C_14
REMARK    6  A    between atoms: C_13  and  C_15
REMARK                            x       y       z     vdW  Elec       q    Type
REMARK                         _______ _______ _______ _____ _____    ______ ____
ROOT
ATOM      1  O   UNL     1      11.063   8.419  19.172  0.00  0.00    -0.376 OA
ATOM      3  O   UNL     1      15.480   6.279  19.230  0.00  0.00    -0.276 OA
ATOM      5  N   UNL     1      13.580   6.965  20.393  0.00  0.00    -0.297 N 
ATOM      7  C   UNL     1      11.555   8.036  21.533  0.00  0.00    +0.162 C 
ATOM      8  C   UNL     1      12.997   7.526  21.616  0.00  0.00    +0.141 C 
ATOM      9  C   UNL     1      11.343   9.052  20.415  0.00  0.00    +0.193 C 
ATOM     10  C   UNL     1      12.683   6.592  19.296  0.00  0.00    +0.136 C 
ATOM     11  C   UNL     1      12.189   7.820  18.542  0.00  0.00    +0.179 C 
ATOM     12  C   UNL     1      14.958   6.759  20.238  0.00  0.00    +0.213 C 
ATOM     14  C   UNL     1      15.833   7.171  21.398  0.00  0.00    +0.109 C 
ENDROOT
BRANCH   7   2
ATOM      2  O   UNL     1      11.250   8.680  22.771  0.00  0.00    -0.364 OA
BRANCH   2  13
ATOM     13  C   UNL     1      10.568   9.906  22.559  0.00  0.00    +0.256 C 
BRANCH  13  15
ATOM      4  O   UNL     1      11.131  10.623  24.746  0.00  0.00    -0.273 OA
ATOM      6  N   UNL     1      11.396  12.197  23.060  0.00  0.00    -0.306 N 
ATOM     15  C   UNL     1      11.053  10.938  23.554  0.00  0.00    +0.241 C 
ATOM     16  C   UNL     1      11.877  13.222  23.978  0.00  0.00    +0.131 C 
ATOM     17  C   UNL     1      11.332  12.603  21.657  0.00  0.00    +0.131 C 
ENDBRANCH  13  15
ENDBRANCH   2  13
ENDBRANCH   7   2
TORSDOF 3
ENDMDL
MODEL 3
REMARK VINA RESULT:      -5.4     16.275     18.492
REMARK  Name = 75367815
REMARK  6 active torsions:
REMARK  status: ('A' for Active; 'I' for Inactive)
REMARK    1  A    between atoms: O_2  and  C_7
REMARK    2  A    between atoms: O_2  and  C_13
REMARK    3  A    between atoms: N_6  and  C_16
REMARK    4  A    between atoms: N_6  and  C_17
REMARK    5  A    between atoms: C_12  and  C_14
REMARK    6  A    between atoms: C_13  and  C_15
REMARK                            x       y       z     vdW  Elec       q    Type
REMARK                         _______ _______ _______ _____ _____    ______ ____
ROOT
ATOM      1  O   UNL     1      11.410   6.589  21.569  0.00  0.00    -0.376 OA
ATOM      3  O   UNL     1      11.376  11.495  21.745  0.00  0.00    -0.276 OA
ATOM      5  N   UNL     1      11.899   9.543  20.581  0.00  0.00    -0.297 N 
ATOM      7  C   UNL     1      12.652   7.307  19.592  0.00  0.00    +0.162 C 
ATOM      8  C   UNL     1      12.817   8.827  19.691  0.00  0.00    +0.141 C 
ATOM      9  C   UNL     1      12.691   6.611  20.949  0.00  0.00    +0.193 C 
ATOM     10  C   UNL     1      10.683   8.861  21.032  0.00  0.00    +0.136 C 
ATOM     11  C   UNL     1      10.992   7.835  22.114  0.00  0.00    +0.179 C 
ATOM     12  C   UNL     1      12.132  10.859  21.007  0.00  0.00    +0.213 C 
ATOM     14  C   UNL     1      13.406  11.507  20.518  0.00  0.00    +0.109 C 
ENDROOT
BRANCH   7   2
ATOM      2  O   UNL     1      13.736   6.801  18.811  0.00  0.00    -0.364 OA
BRANCH   2  13
ATOM     13  C   UNL     1      14.877   7.638  18.912  0.00  0.00    +0.256 C 
BRANCH  13  15
ATOM      4  O   UNL     1      16.441   5.863  18.776  0.00  0.00    -0.273 OA
ATOM      6  N   UNL     1      16.639   7.253  20.625  0.00  0.00    -0.306 N 
ATOM     15  C   UNL     1      16.052   6.836  19.430  0.00  0.00    +0.241 C 
ATOM     16  C   UNL     1      17.779   6.519  21.159  0.00  0.00    +0.131 C 
ATOM     17  C   UNL     1      16.218   8.406  21.418  0.00  0.00    +0.131 C 
ENDBRANCH  13  15
ENDBRANCH   2  13
ENDBRANCH   7   2
TORSDOF 3
ENDMDL
MODEL 4
REMARK VINA RESULT:      -5.3     18.115     20.326
REMARK  Name = 75367815
REMARK  6 active torsions:
REMARK  status: ('A' for Active; 'I' for Inactive)
REMARK    1  A    between atoms: O_2  and  C_7
REMARK    2  A    between atoms: O_2  and  C_13
REMARK    3  A    between atoms: N_6  and  C_16
REMARK    4  A    between atoms: N_6  and  C_17
REMARK    5  A    between atoms: C_12  and  C_14
REMARK    6  A    between atoms: C_13  and  C_15
REMARK                            x       y       z     vdW  Elec       q    Type
REMARK                         _______ _______ _______ _____ _____    ______ ____
ROOT
ATOM      1  O   UNL     1      11.482   7.868  17.071  0.00  0.00    -0.376 OA
ATOM      3  O   UNL     1      13.947  11.914  15.784  0.00  0.00    -0.276 OA
ATOM      5  N   UNL     1      13.957   9.796  16.759  0.00  0.00    -0.297 N 
ATOM      7  C   UNL     1      13.709   7.592  18.035  0.00  0.00    +0.162 C 
ATOM      8  C   UNL     1      14.465   8.905  17.807  0.00  0.00    +0.141 C 
ATOM      9  C   UNL     1      12.218   7.796  18.287  0.00  0.00    +0.193 C 
ATOM     10  C   UNL     1      13.020   9.255  15.771  0.00  0.00    +0.136 C 
ATOM     11  C   UNL     1      11.626   9.093  16.361  0.00  0.00    +0.179 C 
ATOM     12  C   UNL     1      14.344  11.140  16.658  0.00  0.00    +0.213 C 
ATOM     14  C   UNL     1      15.304  11.644  17.710  0.00  0.00    +0.109 C 
ENDROOT
BRANCH   7   2
ATOM      2  O   UNL     1      14.265   6.965  19.192  0.00  0.00    -0.364 OA
BRANCH   2  13
ATOM     13  C   UNL     1      15.446   7.625  19.617  0.00  0.00    +0.256 C 
BRANCH  13  15
ATOM      4  O   UNL     1      16.542   5.673  18.842  0.00  0.00    -0.273 OA
ATOM      6  N   UNL     1      17.711   6.948  20.391  0.00  0.00    -0.306 N 
ATOM     15  C   UNL     1      16.611   6.659  19.582  0.00  0.00    +0.241 C 
ATOM     16  C   UNL     1      18.861   6.052  20.385  0.00  0.00    +0.131 C 
ATOM     17  C   UNL     1      17.836   8.111  21.267  0.00  0.00    +0.131 C 
ENDBRANCH  13  15
ENDBRANCH   2  13
ENDBRANCH   7   2
TORSDOF 3
ENDMDL
MODEL 5
REMARK VINA RESULT:      -5.2     17.595     19.729
REMARK  Name = 75367815
REMARK  6 active torsions:
REMARK  status: ('A' for Active; 'I' for Inactive)
REMARK    1  A    between atoms: O_2  and  C_7
REMARK    2  A    between atoms: O_2  and  C_13
REMARK    3  A    between atoms: N_6  and  C_16
REMARK    4  A    between atoms: N_6  and  C_17
REMARK    5  A    between atoms: C_12  and  C_14
REMARK    6  A    between atoms: C_13  and  C_15
REMARK                            x       y       z     vdW  Elec       q    Type
REMARK                         _______ _______ _______ _____ _____    ______ ____
ROOT
ATOM      1  O   UNL     1      12.904   8.269  21.991  0.00  0.00    -0.376 OA
ATOM      3  O   UNL     1      11.721   8.995  17.283  0.00  0.00    -0.276 OA
ATOM      5  N   UNL     1      12.921   7.787  18.876  0.00  0.00    -0.297 N 
ATOM      7  C   UNL     1      14.364   6.773  20.729  0.00  0.00    +0.162 C 
ATOM      8  C   UNL     1      14.154   7.085  19.244  0.00  0.00    +0.141 C 
ATOM      9  C   UNL     1      14.253   8.005  21.621  0.00  0.00    +0.193 C 
ATOM     10  C   UNL     1      11.822   7.829  19.843  0.00  0.00    +0.136 C 
ATOM     11  C   UNL     1      12.103   8.829  20.958  0.00  0.00    +0.179 C 
ATOM     12  C   UNL     1      12.747   8.407  17.630  0.00  0.00    +0.213 C 
ATOM     14  C   UNL     1      13.918   8.339  16.677  0.00  0.00    +0.109 C 
ENDROOT
BRANCH   7   2
ATOM      2  O   UNL     1      15.682   6.243  20.880  0.00  0.00    -0.364 OA
BRANCH   2  13
ATOM     13  C   UNL     1      16.502   6.580  19.772  0.00  0.00    +0.256 C 
BRANCH  13  15
ATOM      4  O   UNL     1      18.431   5.207  19.682  0.00  0.00    -0.273 OA
ATOM      6  N   UNL     1      18.660   7.206  20.839  0.00  0.00    -0.306 N 
ATOM     15  C   UNL     1      17.948   6.266  20.094  0.00  0.00    +0.241 C 
ATOM     16  C   UNL     1      20.058   6.953  21.167  0.00  0.00    +0.131 C 
ATOM     17  C   UNL     1      18.129   8.476  21.330  0.00  0.00    +0.131 C 
ENDBRANCH  13  15
ENDBRANCH   2  13
ENDBRANCH   7   2
TORSDOF 3
ENDMDL
MODEL 6
REMARK VINA RESULT:      -5.2     18.882     20.964
REMARK  Name = 75367815
REMARK  6 active torsions:
REMARK  status: ('A' for Active; 'I' for Inactive)
REMARK    1  A    between atoms: O_2  and  C_7
REMARK    2  A    between atoms: O_2  and  C_13
REMARK    3  A    between atoms: N_6  and  C_16
REMARK    4  A    between atoms: N_6  and  C_17
REMARK    5  A    between atoms: C_12  and  C_14
REMARK    6  A    between atoms: C_13  and  C_15
REMARK                            x       y       z     vdW  Elec       q    Type
REMARK                         _______ _______ _______ _____ _____    ______ ____
ROOT
ATOM      1  O   UNL     1      14.863   7.717  22.273  0.00  0.00    -0.376 OA
ATOM      3  O   UNL     1      11.838   7.677  18.406  0.00  0.00    -0.276 OA
ATOM      5  N   UNL     1      13.927   7.174  19.311  0.00  0.00    -0.297 N 
ATOM      7  C   UNL     1      16.233   6.959  20.398  0.00  0.00    +0.162 C 
ATOM      8  C   UNL     1      15.380   7.093  19.133  0.00  0.00    +0.141 C 
ATOM      9  C   UNL     1      15.956   8.053  21.426  0.00  0.00    +0.193 C 
ATOM     10  C   UNL     1      13.354   6.769  20.598  0.00  0.00    +0.136 C 
ATOM     11  C   UNL     1      13.582   7.832  21.664  0.00  0.00    +0.179 C 
ATOM     12  C   UNL     1      13.064   7.609  18.295  0.00  0.00    +0.213 C 
ATOM     14  C   UNL     1      13.713   8.022  16.995  0.00  0.00    +0.109 C 
ENDROOT
BRANCH   7   2
ATOM      2  O   UNL     1      17.605   7.062  20.012  0.00  0.00    -0.364 OA
BRANCH   2  13
ATOM     13  C   UNL     1      18.453   6.413  20.946  0.00  0.00    +0.256 C 
BRANCH  13  15
ATOM      4  O   UNL     1      19.922   8.266  21.098  0.00  0.00    -0.273 OA
ATOM      6  N   UNL     1      20.918   6.210  20.685  0.00  0.00    -0.306 N 
ATOM     15  C   UNL     1      19.826   7.048  20.914  0.00  0.00    +0.241 C 
ATOM     16  C   UNL     1      22.262   6.773  20.654  0.00  0.00    +0.131 C 
ATOM     17  C   UNL     1      20.847   4.765  20.479  0.00  0.00    +0.131 C 
ENDBRANCH  13  15
ENDBRANCH   2  13
ENDBRANCH   7   2
TORSDOF 3
ENDMDL
MODEL 7
REMARK VINA RESULT:      -5.1     15.565     17.966
REMARK  Name = 75367815
REMARK  6 active torsions:
REMARK  status: ('A' for Active; 'I' for Inactive)
REMARK    1  A    between atoms: O_2  and  C_7
REMARK    2  A    between atoms: O_2  and  C_13
REMARK    3  A    between atoms: N_6  and  C_16
REMARK    4  A    between atoms: N_6  and  C_17
REMARK    5  A    between atoms: C_12  and  C_14
REMARK    6  A    between atoms: C_13  and  C_15
REMARK                            x       y       z     vdW  Elec       q    Type
REMARK                         _______ _______ _______ _____ _____    ______ ____
ROOT
ATOM      1  O   UNL     1      11.146   6.569  21.838  0.00  0.00    -0.376 OA
ATOM      3  O   UNL     1      14.119   8.294  18.333  0.00  0.00    -0.276 OA
ATOM      5  N   UNL     1      13.034   8.623  20.370  0.00  0.00    -0.297 N 
ATOM      7  C   UNL     1      11.549   8.903  22.435  0.00  0.00    +0.162 C 
ATOM      8  C   UNL     1      12.333   9.534  21.280  0.00  0.00    +0.141 C 
ATOM      9  C   UNL     1      10.544   7.852  21.971  0.00  0.00    +0.193 C 
ATOM     10  C   UNL     1      13.254   7.238  20.796  0.00  0.00    +0.136 C 
ATOM     11  C   UNL     1      11.976   6.418  20.692  0.00  0.00    +0.179 C 
ATOM     12  C   UNL     1      13.515   9.029  19.117  0.00  0.00    +0.213 C 
ATOM     14  C   UNL     1      13.251  10.465  18.729  0.00  0.00    +0.109 C 
ENDROOT
BRANCH   7   2
ATOM      2  O   UNL     1      10.820   9.944  23.087  0.00  0.00    -0.364 OA
BRANCH   2  13
ATOM     13  C   UNL     1      11.645  11.071  23.336  0.00  0.00    +0.256 C 
BRANCH  13  15
ATOM      4  O   UNL     1      10.457  12.083  25.119  0.00  0.00    -0.273 OA
ATOM      6  N   UNL     1      10.516  13.277  23.129  0.00  0.00    -0.306 N 
ATOM     15  C   UNL     1      10.818  12.185  23.942  0.00  0.00    +0.241 C 
ATOM     16  C   UNL     1       9.729  14.379  23.669  0.00  0.00    +0.131 C 
ATOM     17  C   UNL     1      10.938  13.441  21.739  0.00  0.00    +0.131 C 
ENDBRANCH  13  15
ENDBRANCH   2  13
ENDBRANCH   7   2
TORSDOF 3
ENDMDL
MODEL 8
REMARK VINA RESULT:      -5.1     14.357     15.804
REMARK  Name = 75367815
REMARK  6 active torsions:
REMARK  status: ('A' for Active; 'I' for Inactive)
REMARK    1  A    between atoms: O_2  and  C_7
REMARK    2  A    between atoms: O_2  and  C_13
REMARK    3  A    between atoms: N_6  and  C_16
REMARK    4  A    between atoms: N_6  and  C_17
REMARK    5  A    between atoms: C_12  and  C_14
REMARK    6  A    between atoms: C_13  and  C_15
REMARK                            x       y       z     vdW  Elec       q    Type
REMARK                         _______ _______ _______ _____ _____    ______ ____
ROOT
ATOM      1  O   UNL     1      -6.438 -10.017  14.978  0.00  0.00    -0.376 OA
ATOM      3  O   UNL     1      -1.919 -10.406  13.100  0.00  0.00    -0.276 OA
ATOM      5  N   UNL     1      -3.365 -10.719  14.902  0.00  0.00    -0.297 N 
ATOM      7  C   UNL     1      -5.030 -10.721  16.845  0.00  0.00    +0.162 C 
ATOM      8  C   UNL     1      -3.580 -10.691  16.352  0.00  0.00    +0.141 C 
ATOM      9  C   UNL     1      -5.893  -9.622  16.232  0.00  0.00    +0.193 C 
ATOM     10  C   UNL     1      -4.474 -11.128  14.036  0.00  0.00    +0.136 C 
ATOM     11  C   UNL     1      -5.509 -10.020  13.900  0.00  0.00    +0.179 C 
ATOM     12  C   UNL     1      -2.138 -10.382  14.313  0.00  0.00    +0.213 C 
ATOM     14  C   UNL     1      -1.035  -9.959  15.255  0.00  0.00    +0.109 C 
ENDROOT
BRANCH   7   2
ATOM      2  O   UNL     1      -5.013 -10.524  18.260  0.00  0.00    -0.364 OA
BRANCH   2  13
ATOM     13  C   UNL     1      -6.302 -10.182  18.747  0.00  0.00    +0.256 C 
BRANCH  13  15
ATOM      4  O   UNL     1      -6.313 -11.452  20.747  0.00  0.00    -0.273 OA
ATOM      6  N   UNL     1      -7.864 -12.078  19.136  0.00  0.00    -0.306 N 
ATOM     15  C   UNL     1      -6.822 -11.294  19.633  0.00  0.00    +0.241 C 
ATOM     16  C   UNL     1      -8.406 -13.154  19.956  0.00  0.00    +0.131 C 
ATOM     17  C   UNL     1      -8.502 -11.911  17.832  0.00  0.00    +0.131 C 
ENDBRANCH  13  15
ENDBRANCH   2  13
ENDBRANCH   7   2
TORSDOF 3
ENDMDL
MODEL 9
REMARK VINA RESULT:      -4.8     13.129     14.964
REMARK  Name = 75367815
REMARK  6 active torsions:
REMARK  status: ('A' for Active; 'I' for Inactive)
REMARK    1  A    between atoms: O_2  and  C_7
REMARK    2  A    between atoms: O_2  and  C_13
REMARK    3  A    between atoms: N_6  and  C_16
REMARK    4  A    between atoms: N_6  and  C_17
REMARK    5  A    between atoms: C_12  and  C_14
REMARK    6  A    between atoms: C_13  and  C_15
REMARK                            x       y       z     vdW  Elec       q    Type
REMARK                         _______ _______ _______ _____ _____    ______ ____
ROOT
ATOM      1  O   UNL     1     -14.673   0.162  32.108  0.00  0.00    -0.376 OA
ATOM      3  O   UNL     1     -16.515   0.751  27.596  0.00  0.00    -0.276 OA
ATOM      5  N   UNL     1     -15.065   1.479  29.271  0.00  0.00    -0.297 N 
ATOM      7  C   UNL     1     -13.757   2.283  31.317  0.00  0.00    +0.162 C 
ATOM      8  C   UNL     1     -14.437   2.597  29.980  0.00  0.00    +0.141 C 
ATOM      9  C   UNL     1     -14.678   1.571  32.304  0.00  0.00    +0.193 C 
ATOM     10  C   UNL     1     -14.715   0.112  29.664  0.00  0.00    +0.136 C 
ATOM     11  C   UNL     1     -15.397  -0.282  30.967  0.00  0.00    +0.179 C 
ATOM     12  C   UNL     1     -15.978   1.667  28.222  0.00  0.00    +0.213 C 
ATOM     14  C   UNL     1     -16.307   3.098  27.868  0.00  0.00    +0.109 C 
ENDROOT
BRANCH   7   2
ATOM      2  O   UNL     1     -13.362   3.523  31.906  0.00  0.00    -0.364 OA
BRANCH   2  13
ATOM     13  C   UNL     1     -14.078   3.774  33.105  0.00  0.00    +0.256 C 
BRANCH  13  15
ATOM      4  O   UNL     1     -13.739   6.116  32.976  0.00  0.00    -0.273 OA
ATOM      6  N   UNL     1     -15.934   5.421  33.279  0.00  0.00    -0.306 N 
ATOM     15  C   UNL     1     -14.564   5.208  33.117  0.00  0.00    +0.241 C 
ATOM     16  C   UNL     1     -16.452   6.783  33.288  0.00  0.00    +0.131 C 
ATOM     17  C   UNL     1     -16.942   4.374  33.432  0.00  0.00    +0.131 C 
ENDBRANCH  13  15
ENDBRANCH   2  13
ENDBRANCH   7   2
TORSDOF 3
ENDMDL
MODEL 10
REMARK VINA RESULT:      -4.8     13.009     14.293
REMARK  Name = 75367815
REMARK  6 active torsions:
REMARK  status: ('A' for Active; 'I' for Inactive)
REMARK    1  A    between atoms: O_2  and  C_7
REMARK    2  A    between atoms: O_2  and  C_13
REMARK    3  A    between atoms: N_6  and  C_16
REMARK    4  A    between atoms: N_6  and  C_17
REMARK    5  A    between atoms: C_12  and  C_14
REMARK    6  A    between atoms: C_13  and  C_15
REMARK                            x       y       z     vdW  Elec       q    Type
REMARK                         _______ _______ _______ _____ _____    ______ ____
ROOT
ATOM      1  O   UNL     1     -13.648   0.909  31.022  0.00  0.00    -0.376 OA
ATOM      3  O   UNL     1     -15.629   5.276  32.074  0.00  0.00    -0.276 OA
ATOM      5  N   UNL     1     -15.783   3.229  30.968  0.00  0.00    -0.297 N 
ATOM      7  C   UNL     1     -15.640   1.062  29.615  0.00  0.00    +0.162 C 
ATOM      8  C   UNL     1     -16.199   2.478  29.780  0.00  0.00    +0.141 C 
ATOM      9  C   UNL     1     -14.116   1.009  29.681  0.00  0.00    +0.193 C 
ATOM     10  C   UNL     1     -15.175   2.497  32.083  0.00  0.00    +0.136 C 
ATOM     11  C   UNL     1     -13.734   2.114  31.773  0.00  0.00    +0.179 C 
ATOM     12  C   UNL     1     -15.956   4.615  31.085  0.00  0.00    +0.213 C 
ATOM     14  C   UNL     1     -16.578   5.316  29.901  0.00  0.00    +0.109 C 
ENDROOT
BRANCH   7   2
ATOM      2  O   UNL     1     -16.037   0.583  28.329  0.00  0.00    -0.364 OA
BRANCH   2  13
ATOM     13  C   UNL     1     -16.924   1.490  27.695  0.00  0.00    +0.256 C 
BRANCH  13  15
ATOM      4  O   UNL     1     -16.429   0.551  25.576  0.00  0.00    -0.273 OA
ATOM      6  N   UNL     1     -16.469   2.870  25.676  0.00  0.00    -0.306 N 
ATOM     15  C   UNL     1     -16.583   1.591  26.223  0.00  0.00    +0.241 C 
ATOM     16  C   UNL     1     -16.150   3.019  24.261  0.00  0.00    +0.131 C 
ATOM     17  C   UNL     1     -16.659   4.123  26.404  0.00  0.00    +0.131 C 
ENDBRANCH  13  15
ENDBRANCH   2  13
ENDBRANCH   7   2
TORSDOF 3
ENDMDL
