MODEL 1
REMARK VINA RESULT:      -7.3      0.000      0.000
REMARK  Name = 51137485
REMARK  8 active torsions:
REMARK  status: ('A' for Active; 'I' for Inactive)
REMARK    1  A    between atoms: O_2  and  C_24
REMARK    2  A    between atoms: O_3  and  C_27
REMARK    3  A    between atoms: O_3  and  C_28
REMARK    4  A    between atoms: N_5  and  C_12
REMARK    5  A    between atoms: C_8  and  C_13
REMARK    6  A    between atoms: C_12  and  C_14
REMARK    7  A    between atoms: C_17  and  C_20
REMARK    8  A    between atoms: C_21  and  C_24
REMARK                            x       y       z     vdW  Elec       q    Type
REMARK                         _______ _______ _______ _____ _____    ______ ____
ROOT
ATOM      5  N   UNL     1      17.811   7.792  20.853  0.00  0.00    -0.297 NA
ATOM      8  C   UNL     1      19.852   6.649  21.017  0.00  0.00    +0.092 C 
ATOM      9  C   UNL     1      18.862   5.817  20.182  0.00  0.00    +0.029 C 
ATOM     10  C   UNL     1      18.980   7.690  21.730  0.00  0.00    +0.097 C 
ATOM     11  C   UNL     1      17.494   6.411  20.488  0.00  0.00    +0.085 C 
ENDROOT
BRANCH   8  13
ATOM      1  O   UNL     1      21.408   4.806  21.440  0.00  0.00    -0.420 OA
ATOM      6  N   UNL     1      20.892   6.000  23.260  0.00  0.00    -0.112 NA
ATOM      7  N   UNL     1      21.769   5.000  23.639  0.00  0.00    -0.107 NA
ATOM     13  C   UNL     1      20.709   5.847  21.969  0.00  0.00    +0.222 A 
ATOM     17  C   UNL     1      22.043   4.329  22.546  0.00  0.00    +0.248 A 
BRANCH  17  20
ATOM     20  C   UNL     1      22.893   3.192  22.340  0.00  0.00    +0.039 A 
ATOM     22  C   UNL     1      23.226   2.366  23.413  0.00  0.00    +0.017 A 
ATOM     23  C   UNL     1      23.386   2.912  21.065  0.00  0.00    +0.017 A 
ATOM     25  C   UNL     1      24.051   1.260  23.213  0.00  0.00    +0.046 A 
ATOM     26  C   UNL     1      24.212   1.806  20.865  0.00  0.00    +0.046 A 
ATOM     27  C   UNL     1      24.544   0.980  21.938  0.00  0.00    +0.120 A 
BRANCH  27   3
ATOM      3  O   UNL     1      25.348  -0.101  21.742  0.00  0.00    -0.495 OA
ATOM     28  C   UNL     1      26.397  -0.311  22.687  0.00  0.00    +0.277 C 
ENDBRANCH  27   3
ENDBRANCH  17  20
ENDBRANCH   8  13
BRANCH   5  12
ATOM     12  C   UNL     1      16.692   8.466  21.496  0.00  0.00    +0.119 C 
BRANCH  12  14
ATOM     14  C   UNL     1      15.424   8.331  20.695  0.00  0.00    -0.033 A 
ATOM     15  C   UNL     1      15.282   9.023  19.493  0.00  0.00    +0.006 A 
ATOM     16  C   UNL     1      14.390   7.517  21.159  0.00  0.00    +0.006 A 
ATOM     18  C   UNL     1      14.106   8.898  18.751  0.00  0.00    +0.015 A 
ATOM     19  C   UNL     1      13.215   7.393  20.418  0.00  0.00    +0.015 A 
ATOM     21  C   UNL     1      13.073   8.084  19.215  0.00  0.00    +0.059 A 
BRANCH  21  24
ATOM      4  O   UNL     1      11.760   7.444  17.319  0.00  0.00    -0.245 OA
ATOM     24  C   UNL     1      11.848   7.953  18.442  0.00  0.00    +0.337 C 
BRANCH  24   2
ATOM      2  O   UNL     1      10.766   8.462  19.092  0.00  0.00    -0.477 OA
ATOM     29  H   UNL     1      11.005   9.226  19.657  0.00  0.00    +0.295 HD
ENDBRANCH  24   2
ENDBRANCH  21  24
ENDBRANCH  12  14
ENDBRANCH   5  12
TORSDOF 7
ENDMDL
MODEL 2
REMARK VINA RESULT:      -7.3     30.621     34.969
REMARK  Name = 51137485
REMARK  8 active torsions:
REMARK  status: ('A' for Active; 'I' for Inactive)
REMARK    1  A    between atoms: O_2  and  C_24
REMARK    2  A    between atoms: O_3  and  C_27
REMARK    3  A    between atoms: O_3  and  C_28
REMARK    4  A    between atoms: N_5  and  C_12
REMARK    5  A    between atoms: C_8  and  C_13
REMARK    6  A    between atoms: C_12  and  C_14
REMARK    7  A    between atoms: C_17  and  C_20
REMARK    8  A    between atoms: C_21  and  C_24
REMARK                            x       y       z     vdW  Elec       q    Type
REMARK                         _______ _______ _______ _____ _____    ______ ____
ROOT
ATOM      5  N   UNL     1     -16.971   3.104  26.525  0.00  0.00    -0.297 NA
ATOM      8  C   UNL     1     -16.297   4.685  24.930  0.00  0.00    +0.092 C 
ATOM      9  C   UNL     1     -17.820   4.484  24.843  0.00  0.00    +0.029 C 
ATOM     10  C   UNL     1     -15.793   3.486  25.744  0.00  0.00    +0.097 C 
ATOM     11  C   UNL     1     -18.088   3.180  25.582  0.00  0.00    +0.085 C 
ENDROOT
BRANCH   8  13
ATOM      1  O   UNL     1     -14.875   5.962  23.399  0.00  0.00    -0.420 OA
ATOM      6  N   UNL     1     -15.580   4.007  22.572  0.00  0.00    -0.112 NA
ATOM      7  N   UNL     1     -14.795   4.619  21.612  0.00  0.00    -0.107 NA
ATOM     13  C   UNL     1     -15.599   4.827  23.596  0.00  0.00    +0.222 A 
ATOM     17  C   UNL     1     -14.405   5.755  22.138  0.00  0.00    +0.248 A 
BRANCH  17  20
ATOM     20  C   UNL     1     -13.576   6.795  21.600  0.00  0.00    +0.039 A 
ATOM     22  C   UNL     1     -12.352   6.476  21.011  0.00  0.00    +0.017 A 
ATOM     23  C   UNL     1     -13.993   8.124  21.665  0.00  0.00    +0.017 A 
ATOM     25  C   UNL     1     -11.546   7.486  20.487  0.00  0.00    +0.046 A 
ATOM     26  C   UNL     1     -13.187   9.134  21.141  0.00  0.00    +0.046 A 
ATOM     27  C   UNL     1     -11.963   8.816  20.553  0.00  0.00    +0.120 A 
BRANCH  27   3
ATOM      3  O   UNL     1     -11.178   9.802  20.039  0.00  0.00    -0.495 OA
ATOM     28  C   UNL     1     -10.183   9.413  19.094  0.00  0.00    +0.277 C 
ENDBRANCH  27   3
ENDBRANCH  17  20
ENDBRANCH   8  13
BRANCH   5  12
ATOM     12  C   UNL     1     -16.838   1.782  27.120  0.00  0.00    +0.119 C 
BRANCH  12  14
ATOM     14  C   UNL     1     -16.134   1.837  28.451  0.00  0.00    -0.033 A 
ATOM     15  C   UNL     1     -15.570   3.033  28.892  0.00  0.00    +0.006 A 
ATOM     16  C   UNL     1     -16.045   0.690  29.240  0.00  0.00    +0.006 A 
ATOM     18  C   UNL     1     -14.918   3.083  30.125  0.00  0.00    +0.015 A 
ATOM     19  C   UNL     1     -15.393   0.739  30.471  0.00  0.00    +0.015 A 
ATOM     21  C   UNL     1     -14.829   1.936  30.914  0.00  0.00    +0.059 A 
BRANCH  21  24
ATOM      4  O   UNL     1     -14.653   1.689  33.288  0.00  0.00    -0.245 OA
ATOM     24  C   UNL     1     -14.150   1.988  32.198  0.00  0.00    +0.337 C 
BRANCH  24   2
ATOM      2  O   UNL     1     -12.861   2.411  32.090  0.00  0.00    -0.477 OA
ATOM     29  H   UNL     1     -12.737   3.305  32.472  0.00  0.00    +0.295 HD
ENDBRANCH  24   2
ENDBRANCH  21  24
ENDBRANCH  12  14
ENDBRANCH   5  12
TORSDOF 7
ENDMDL
MODEL 3
REMARK VINA RESULT:      -7.3     27.741     30.898
REMARK  Name = 51137485
REMARK  8 active torsions:
REMARK  status: ('A' for Active; 'I' for Inactive)
REMARK    1  A    between atoms: O_2  and  C_24
REMARK    2  A    between atoms: O_3  and  C_27
REMARK    3  A    between atoms: O_3  and  C_28
REMARK    4  A    between atoms: N_5  and  C_12
REMARK    5  A    between atoms: C_8  and  C_13
REMARK    6  A    between atoms: C_12  and  C_14
REMARK    7  A    between atoms: C_17  and  C_20
REMARK    8  A    between atoms: C_21  and  C_24
REMARK                            x       y       z     vdW  Elec       q    Type
REMARK                         _______ _______ _______ _____ _____    ______ ____
ROOT
ATOM      5  N   UNL     1      -2.037 -10.893  13.947  0.00  0.00    -0.297 NA
ATOM      8  C   UNL     1      -3.197 -10.204  15.865  0.00  0.00    +0.092 C 
ATOM      9  C   UNL     1      -1.775 -10.644  16.254  0.00  0.00    +0.029 C 
ATOM     10  C   UNL     1      -3.406 -10.769  14.454  0.00  0.00    +0.097 C 
ATOM     11  C   UNL     1      -1.271 -11.448  15.064  0.00  0.00    +0.085 C 
ENDROOT
BRANCH   8  13
ATOM      1  O   UNL     1      -5.495 -10.031  16.695  0.00  0.00    -0.420 OA
ATOM      6  N   UNL     1      -4.229 -11.498  17.813  0.00  0.00    -0.112 NA
ATOM      7  N   UNL     1      -5.490 -11.501  18.382  0.00  0.00    -0.107 NA
ATOM     13  C   UNL     1      -4.279 -10.626  16.834  0.00  0.00    +0.222 A 
ATOM     17  C   UNL     1      -6.194 -10.631  17.698  0.00  0.00    +0.248 A 
BRANCH  17  20
ATOM     20  C   UNL     1      -7.562 -10.221  17.840  0.00  0.00    +0.039 A 
ATOM     22  C   UNL     1      -8.056  -9.164  17.077  0.00  0.00    +0.017 A 
ATOM     23  C   UNL     1      -8.397 -10.881  18.742  0.00  0.00    +0.017 A 
ATOM     25  C   UNL     1      -9.385  -8.766  17.215  0.00  0.00    +0.046 A 
ATOM     26  C   UNL     1      -9.726 -10.482  18.880  0.00  0.00    +0.046 A 
ATOM     27  C   UNL     1     -10.221  -9.425  18.117  0.00  0.00    +0.120 A 
BRANCH  27   3
ATOM      3  O   UNL     1     -11.519  -9.039  18.249  0.00  0.00    -0.495 OA
ATOM     28  C   UNL     1     -12.338  -9.806  19.131  0.00  0.00    +0.277 C 
ENDBRANCH  27   3
ENDBRANCH  17  20
ENDBRANCH   8  13
BRANCH   5  12
ATOM     12  C   UNL     1      -1.960 -11.724  12.755  0.00  0.00    +0.119 C 
BRANCH  12  14
ATOM     14  C   UNL     1      -2.742 -11.135  11.611  0.00  0.00    -0.033 A 
ATOM     15  C   UNL     1      -3.739 -11.886  10.988  0.00  0.00    +0.006 A 
ATOM     16  C   UNL     1      -2.469  -9.839  11.173  0.00  0.00    +0.006 A 
ATOM     18  C   UNL     1      -4.463 -11.340   9.928  0.00  0.00    +0.015 A 
ATOM     19  C   UNL     1      -3.192  -9.293  10.113  0.00  0.00    +0.015 A 
ATOM     21  C   UNL     1      -4.190 -10.044   9.491  0.00  0.00    +0.059 A 
BRANCH  21  24
ATOM      4  O   UNL     1      -5.106 -10.004   7.280  0.00  0.00    -0.245 OA
ATOM     24  C   UNL     1      -4.945  -9.474   8.386  0.00  0.00    +0.337 C 
BRANCH  24   2
ATOM      2  O   UNL     1      -5.479  -8.261   8.691  0.00  0.00    -0.477 OA
ATOM     29  H   UNL     1      -4.823  -7.669   9.115  0.00  0.00    +0.295 HD
ENDBRANCH  24   2
ENDBRANCH  21  24
ENDBRANCH  12  14
ENDBRANCH   5  12
TORSDOF 7
ENDMDL
MODEL 4
REMARK VINA RESULT:      -7.1     30.518     34.278
REMARK  Name = 51137485
REMARK  8 active torsions:
REMARK  status: ('A' for Active; 'I' for Inactive)
REMARK    1  A    between atoms: O_2  and  C_24
REMARK    2  A    between atoms: O_3  and  C_27
REMARK    3  A    between atoms: O_3  and  C_28
REMARK    4  A    between atoms: N_5  and  C_12
REMARK    5  A    between atoms: C_8  and  C_13
REMARK    6  A    between atoms: C_12  and  C_14
REMARK    7  A    between atoms: C_17  and  C_20
REMARK    8  A    between atoms: C_21  and  C_24
REMARK                            x       y       z     vdW  Elec       q    Type
REMARK                         _______ _______ _______ _____ _____    ______ ____
ROOT
ATOM      5  N   UNL     1     -14.429   6.338  21.947  0.00  0.00    -0.297 NA
ATOM      8  C   UNL     1     -15.518   4.566  23.030  0.00  0.00    +0.092 C 
ATOM      9  C   UNL     1     -16.339   5.002  21.804  0.00  0.00    +0.029 C 
ATOM     10  C   UNL     1     -14.537   5.720  23.271  0.00  0.00    +0.097 C 
ATOM     11  C   UNL     1     -15.800   6.378  21.438  0.00  0.00    +0.085 C 
ENDROOT
BRANCH   8  13
ATOM      1  O   UNL     1     -15.685   3.621  25.283  0.00  0.00    -0.420 OA
ATOM      6  N   UNL     1     -17.614   4.425  24.486  0.00  0.00    -0.112 NA
ATOM      7  N   UNL     1     -17.851   3.926  25.754  0.00  0.00    -0.107 NA
ATOM     13  C   UNL     1     -16.338   4.225  24.254  0.00  0.00    +0.222 A 
ATOM     17  C   UNL     1     -16.698   3.468  26.180  0.00  0.00    +0.248 A 
BRANCH  17  20
ATOM     20  C   UNL     1     -16.346   2.842  27.422  0.00  0.00    +0.039 A 
ATOM     22  C   UNL     1     -15.579   3.533  28.359  0.00  0.00    +0.017 A 
ATOM     23  C   UNL     1     -16.771   1.541  27.693  0.00  0.00    +0.017 A 
ATOM     25  C   UNL     1     -15.236   2.925  29.566  0.00  0.00    +0.046 A 
ATOM     26  C   UNL     1     -16.428   0.933  28.900  0.00  0.00    +0.046 A 
ATOM     27  C   UNL     1     -15.661   1.625  29.837  0.00  0.00    +0.120 A 
BRANCH  27   3
ATOM      3  O   UNL     1     -15.330   1.032  31.017  0.00  0.00    -0.495 OA
ATOM     28  C   UNL     1     -14.919  -0.334  30.964  0.00  0.00    +0.277 C 
ENDBRANCH  27   3
ENDBRANCH  17  20
ENDBRANCH   8  13
BRANCH   5  12
ATOM     12  C   UNL     1     -13.818   7.658  21.999  0.00  0.00    +0.119 C 
BRANCH  12  14
ATOM     14  C   UNL     1     -12.916   7.904  20.818  0.00  0.00    -0.033 A 
ATOM     15  C   UNL     1     -12.921   9.146  20.185  0.00  0.00    +0.006 A 
ATOM     16  C   UNL     1     -12.077   6.888  20.358  0.00  0.00    +0.006 A 
ATOM     18  C   UNL     1     -12.085   9.373  19.090  0.00  0.00    +0.015 A 
ATOM     19  C   UNL     1     -11.243   7.115  19.264  0.00  0.00    +0.015 A 
ATOM     21  C   UNL     1     -11.247   8.357  18.630  0.00  0.00    +0.059 A 
BRANCH  21  24
ATOM      4  O   UNL     1     -10.509   8.089  16.369  0.00  0.00    -0.245 OA
ATOM     24  C   UNL     1     -10.376   8.594  17.490  0.00  0.00    +0.337 C 
BRANCH  24   2
ATOM      2  O   UNL     1      -9.362   9.454  17.778  0.00  0.00    -0.477 OA
ATOM     29  H   UNL     1      -9.225   9.547  18.744  0.00  0.00    +0.295 HD
ENDBRANCH  24   2
ENDBRANCH  21  24
ENDBRANCH  12  14
ENDBRANCH   5  12
TORSDOF 7
ENDMDL
MODEL 5
REMARK VINA RESULT:      -6.8     28.453     31.115
REMARK  Name = 51137485
REMARK  8 active torsions:
REMARK  status: ('A' for Active; 'I' for Inactive)
REMARK    1  A    between atoms: O_2  and  C_24
REMARK    2  A    between atoms: O_3  and  C_27
REMARK    3  A    between atoms: O_3  and  C_28
REMARK    4  A    between atoms: N_5  and  C_12
REMARK    5  A    between atoms: C_8  and  C_13
REMARK    6  A    between atoms: C_12  and  C_14
REMARK    7  A    between atoms: C_17  and  C_20
REMARK    8  A    between atoms: C_21  and  C_24
REMARK                            x       y       z     vdW  Elec       q    Type
REMARK                         _______ _______ _______ _____ _____    ______ ____
ROOT
ATOM      5  N   UNL     1      -2.946 -11.396  15.126  0.00  0.00    -0.297 NA
ATOM      8  C   UNL     1      -3.330 -11.415  12.813  0.00  0.00    +0.092 C 
ATOM      9  C   UNL     1      -1.963 -12.056  13.112  0.00  0.00    +0.029 C 
ATOM     10  C   UNL     1      -3.701 -10.671  14.101  0.00  0.00    +0.097 C 
ATOM     11  C   UNL     1      -1.627 -11.621  14.532  0.00  0.00    +0.085 C 
ENDROOT
BRANCH   8  13
ATOM      1  O   UNL     1      -4.529 -10.470  10.897  0.00  0.00    -0.420 OA
ATOM      6  N   UNL     1      -2.409  -9.779  11.077  0.00  0.00    -0.112 NA
ATOM      7  N   UNL     1      -2.963  -9.175   9.963  0.00  0.00    -0.107 NA
ATOM     13  C   UNL     1      -3.359 -10.526  11.590  0.00  0.00    +0.222 A 
ATOM     17  C   UNL     1      -4.200  -9.607   9.898  0.00  0.00    +0.248 A 
BRANCH  17  20
ATOM     20  C   UNL     1      -5.239  -9.315   8.953  0.00  0.00    +0.039 A 
ATOM     22  C   UNL     1      -5.207  -9.889   7.683  0.00  0.00    +0.017 A 
ATOM     23  C   UNL     1      -6.282  -8.458   9.306  0.00  0.00    +0.017 A 
ATOM     25  C   UNL     1      -6.217  -9.606   6.764  0.00  0.00    +0.046 A 
ATOM     26  C   UNL     1      -7.292  -8.176   8.387  0.00  0.00    +0.046 A 
ATOM     27  C   UNL     1      -7.260  -8.750   7.116  0.00  0.00    +0.120 A 
BRANCH  27   3
ATOM      3  O   UNL     1      -8.249  -8.476   6.221  0.00  0.00    -0.495 OA
ATOM     28  C   UNL     1      -7.883  -8.438   4.842  0.00  0.00    +0.277 C 
ENDBRANCH  27   3
ENDBRANCH  17  20
ENDBRANCH   8  13
BRANCH   5  12
ATOM     12  C   UNL     1      -2.871 -10.665  16.382  0.00  0.00    +0.119 C 
BRANCH  12  14
ATOM     14  C   UNL     1      -4.089 -10.896  17.238  0.00  0.00    -0.033 A 
ATOM     15  C   UNL     1      -5.209 -10.079  17.090  0.00  0.00    +0.006 A 
ATOM     16  C   UNL     1      -4.094 -11.927  18.178  0.00  0.00    +0.006 A 
ATOM     18  C   UNL     1      -6.337 -10.294  17.883  0.00  0.00    +0.015 A 
ATOM     19  C   UNL     1      -5.221 -12.141  18.971  0.00  0.00    +0.015 A 
ATOM     21  C   UNL     1      -6.342 -11.324  18.823  0.00  0.00    +0.059 A 
BRANCH  21  24
ATOM      4  O   UNL     1      -7.797 -12.605  20.228  0.00  0.00    -0.245 OA
ATOM     24  C   UNL     1      -7.518 -11.548  19.650  0.00  0.00    +0.337 C 
BRANCH  24   2
ATOM      2  O   UNL     1      -8.314 -10.447  19.733  0.00  0.00    -0.477 OA
ATOM     29  H   UNL     1      -7.925  -9.759  20.312  0.00  0.00    +0.295 HD
ENDBRANCH  24   2
ENDBRANCH  21  24
ENDBRANCH  12  14
ENDBRANCH   5  12
TORSDOF 7
ENDMDL
MODEL 6
REMARK VINA RESULT:      -6.8     28.623     31.015
REMARK  Name = 51137485
REMARK  8 active torsions:
REMARK  status: ('A' for Active; 'I' for Inactive)
REMARK    1  A    between atoms: O_2  and  C_24
REMARK    2  A    between atoms: O_3  and  C_27
REMARK    3  A    between atoms: O_3  and  C_28
REMARK    4  A    between atoms: N_5  and  C_12
REMARK    5  A    between atoms: C_8  and  C_13
REMARK    6  A    between atoms: C_12  and  C_14
REMARK    7  A    between atoms: C_17  and  C_20
REMARK    8  A    between atoms: C_21  and  C_24
REMARK                            x       y       z     vdW  Elec       q    Type
REMARK                         _______ _______ _______ _____ _____    ______ ____
ROOT
ATOM      5  N   UNL     1      -4.330 -11.309  10.872  0.00  0.00    -0.297 NA
ATOM      8  C   UNL     1      -3.079 -10.549  12.704  0.00  0.00    +0.092 C 
ATOM      9  C   UNL     1      -2.321 -11.688  11.999  0.00  0.00    +0.029 C 
ATOM     10  C   UNL     1      -4.512 -10.646  12.165  0.00  0.00    +0.097 C 
ATOM     11  C   UNL     1      -3.363 -12.376  11.129  0.00  0.00    +0.085 C 
ENDROOT
BRANCH   8  13
ATOM      1  O   UNL     1      -4.200 -10.645  14.880  0.00  0.00    -0.420 OA
ATOM      6  N   UNL     1      -1.968 -10.562  15.006  0.00  0.00    -0.112 NA
ATOM      7  N   UNL     1      -2.467 -10.611  16.295  0.00  0.00    -0.107 NA
ATOM     13  C   UNL     1      -3.014 -10.583  14.214  0.00  0.00    +0.222 A 
ATOM     17  C   UNL     1      -3.773 -10.660  16.172  0.00  0.00    +0.248 A 
BRANCH  17  20
ATOM     20  C   UNL     1      -4.800 -10.723  17.171  0.00  0.00    +0.039 A 
ATOM     22  C   UNL     1      -4.559 -11.379  18.378  0.00  0.00    +0.017 A 
ATOM     23  C   UNL     1      -6.040 -10.129  16.935  0.00  0.00    +0.017 A 
ATOM     25  C   UNL     1      -5.557 -11.441  19.350  0.00  0.00    +0.046 A 
ATOM     26  C   UNL     1      -7.038 -10.192  17.907  0.00  0.00    +0.046 A 
ATOM     27  C   UNL     1      -6.797 -10.847  19.114  0.00  0.00    +0.120 A 
BRANCH  27   3
ATOM      3  O   UNL     1      -7.771 -10.905  20.064  0.00  0.00    -0.495 OA
ATOM     28  C   UNL     1      -9.118 -11.020  19.606  0.00  0.00    +0.277 C 
ENDBRANCH  27   3
ENDBRANCH  17  20
ENDBRANCH   8  13
BRANCH   5  12
ATOM     12  C   UNL     1      -5.581 -11.814  10.326  0.00  0.00    +0.119 C 
BRANCH  12  14
ATOM     14  C   UNL     1      -5.965 -11.103   9.055  0.00  0.00    -0.033 A 
ATOM     15  C   UNL     1      -7.311 -10.947   8.723  0.00  0.00    +0.006 A 
ATOM     16  C   UNL     1      -4.975 -10.603   8.210  0.00  0.00    +0.006 A 
ATOM     18  C   UNL     1      -7.666 -10.288   7.545  0.00  0.00    +0.015 A 
ATOM     19  C   UNL     1      -5.330  -9.945   7.032  0.00  0.00    +0.015 A 
ATOM     21  C   UNL     1      -6.675  -9.788   6.700  0.00  0.00    +0.059 A 
BRANCH  21  24
ATOM      4  O   UNL     1      -7.281  -9.648   4.389  0.00  0.00    -0.245 OA
ATOM     24  C   UNL     1      -7.045  -9.101   5.473  0.00  0.00    +0.337 C 
BRANCH  24   2
ATOM      2  O   UNL     1      -7.111  -7.751   5.630  0.00  0.00    -0.477 OA
ATOM     29  H   UNL     1      -7.948  -7.383   5.279  0.00  0.00    +0.295 HD
ENDBRANCH  24   2
ENDBRANCH  21  24
ENDBRANCH  12  14
ENDBRANCH   5  12
TORSDOF 7
ENDMDL
MODEL 7
REMARK VINA RESULT:      -6.7     31.454     34.115
REMARK  Name = 51137485
REMARK  8 active torsions:
REMARK  status: ('A' for Active; 'I' for Inactive)
REMARK    1  A    between atoms: O_2  and  C_24
REMARK    2  A    between atoms: O_3  and  C_27
REMARK    3  A    between atoms: O_3  and  C_28
REMARK    4  A    between atoms: N_5  and  C_12
REMARK    5  A    between atoms: C_8  and  C_13
REMARK    6  A    between atoms: C_12  and  C_14
REMARK    7  A    between atoms: C_17  and  C_20
REMARK    8  A    between atoms: C_21  and  C_24
REMARK                            x       y       z     vdW  Elec       q    Type
REMARK                         _______ _______ _______ _____ _____    ______ ____
ROOT
ATOM      5  N   UNL     1     -13.466   7.118  33.544  0.00  0.00    -0.297 NA
ATOM      8  C   UNL     1     -11.853   8.623  32.749  0.00  0.00    +0.092 C 
ATOM      9  C   UNL     1     -12.216   8.977  34.202  0.00  0.00    +0.029 C 
ATOM     10  C   UNL     1     -12.976   7.686  32.286  0.00  0.00    +0.097 C 
ATOM     11  C   UNL     1     -13.526   8.249  34.470  0.00  0.00    +0.085 C 
ENDROOT
BRANCH   8  13
ATOM      1  O   UNL     1     -11.740   9.578  30.496  0.00  0.00    -0.420 OA
ATOM      6  N   UNL     1     -11.432  11.068  32.135  0.00  0.00    -0.112 NA
ATOM      7  N   UNL     1     -11.343  11.737  30.928  0.00  0.00    -0.107 NA
ATOM     13  C   UNL     1     -11.664   9.812  31.834  0.00  0.00    +0.222 A 
ATOM     17  C   UNL     1     -11.529  10.828  30.000  0.00  0.00    +0.248 A 
BRANCH  17  20
ATOM     20  C   UNL     1     -11.544  10.946  28.570  0.00  0.00    +0.039 A 
ATOM     22  C   UNL     1     -12.143  12.052  27.968  0.00  0.00    +0.017 A 
ATOM     23  C   UNL     1     -10.960   9.954  27.783  0.00  0.00    +0.017 A 
ATOM     25  C   UNL     1     -12.158  12.167  26.579  0.00  0.00    +0.046 A 
ATOM     26  C   UNL     1     -10.975  10.069  26.393  0.00  0.00    +0.046 A 
ATOM     27  C   UNL     1     -11.573  11.175  25.791  0.00  0.00    +0.120 A 
BRANCH  27   3
ATOM      3  O   UNL     1     -11.585  11.288  24.434  0.00  0.00    -0.495 OA
ATOM     28  C   UNL     1     -12.712  10.747  23.747  0.00  0.00    +0.277 C 
ENDBRANCH  27   3
ENDBRANCH  17  20
ENDBRANCH   8  13
BRANCH   5  12
ATOM     12  C   UNL     1     -14.754   6.458  33.391  0.00  0.00    +0.119 C 
BRANCH  12  14
ATOM     14  C   UNL     1     -14.636   5.175  32.611  0.00  0.00    -0.033 A 
ATOM     15  C   UNL     1     -15.333   5.023  31.412  0.00  0.00    +0.006 A 
ATOM     16  C   UNL     1     -13.833   4.140  33.088  0.00  0.00    +0.006 A 
ATOM     18  C   UNL     1     -15.224   3.834  30.690  0.00  0.00    +0.015 A 
ATOM     19  C   UNL     1     -13.724   2.952  32.366  0.00  0.00    +0.015 A 
ATOM     21  C   UNL     1     -14.420   2.799  31.167  0.00  0.00    +0.059 A 
BRANCH  21  24
ATOM      4  O   UNL     1     -15.199   0.713  30.287  0.00  0.00    -0.245 OA
ATOM     24  C   UNL     1     -14.306   1.560  30.414  0.00  0.00    +0.337 C 
BRANCH  24   2
ATOM      2  O   UNL     1     -13.082   1.410  29.839  0.00  0.00    -0.477 OA
ATOM     29  H   UNL     1     -12.983   1.969  29.039  0.00  0.00    +0.295 HD
ENDBRANCH  24   2
ENDBRANCH  21  24
ENDBRANCH  12  14
ENDBRANCH   5  12
TORSDOF 7
ENDMDL
MODEL 8
REMARK VINA RESULT:      -6.6     28.369     30.860
REMARK  Name = 51137485
REMARK  8 active torsions:
REMARK  status: ('A' for Active; 'I' for Inactive)
REMARK    1  A    between atoms: O_2  and  C_24
REMARK    2  A    between atoms: O_3  and  C_27
REMARK    3  A    between atoms: O_3  and  C_28
REMARK    4  A    between atoms: N_5  and  C_12
REMARK    5  A    between atoms: C_8  and  C_13
REMARK    6  A    between atoms: C_12  and  C_14
REMARK    7  A    between atoms: C_17  and  C_20
REMARK    8  A    between atoms: C_21  and  C_24
REMARK                            x       y       z     vdW  Elec       q    Type
REMARK                         _______ _______ _______ _____ _____    ______ ____
ROOT
ATOM      5  N   UNL     1      -3.803 -11.087  10.544  0.00  0.00    -0.297 NA
ATOM      8  C   UNL     1      -2.446 -11.188  12.454  0.00  0.00    +0.092 C 
ATOM      9  C   UNL     1      -2.968 -12.597  12.118  0.00  0.00    +0.029 C 
ATOM     10  C   UNL     1      -3.341 -10.240  11.646  0.00  0.00    +0.097 C 
ATOM     11  C   UNL     1      -4.136 -12.368  11.168  0.00  0.00    +0.085 C 
ENDROOT
BRANCH   8  13
ATOM      1  O   UNL     1      -3.568 -11.059  14.627  0.00  0.00    -0.420 OA
ATOM      6  N   UNL     1      -1.433 -10.394  14.662  0.00  0.00    -0.112 NA
ATOM      7  N   UNL     1      -1.940 -10.270  15.942  0.00  0.00    -0.107 NA
ATOM     13  C   UNL     1      -2.418 -10.858  13.929  0.00  0.00    +0.222 A 
ATOM     17  C   UNL     1      -3.188 -10.669  15.875  0.00  0.00    +0.248 A 
BRANCH  17  20
ATOM     20  C   UNL     1      -4.194 -10.757  16.893  0.00  0.00    +0.039 A 
ATOM     22  C   UNL     1      -3.960 -11.510  18.042  0.00  0.00    +0.017 A 
ATOM     23  C   UNL     1      -5.408 -10.088  16.733  0.00  0.00    +0.017 A 
ATOM     25  C   UNL     1      -4.938 -11.595  19.033  0.00  0.00    +0.046 A 
ATOM     26  C   UNL     1      -6.386 -10.173  17.724  0.00  0.00    +0.046 A 
ATOM     27  C   UNL     1      -6.152 -10.926  18.873  0.00  0.00    +0.120 A 
BRANCH  27   3
ATOM      3  O   UNL     1      -7.106 -11.007  19.841  0.00  0.00    -0.495 OA
ATOM     28  C   UNL     1      -8.461 -11.114  19.409  0.00  0.00    +0.277 C 
ENDBRANCH  27   3
ENDBRANCH  17  20
ENDBRANCH   8  13
BRANCH   5  12
ATOM     12  C   UNL     1      -4.933 -10.507   9.833  0.00  0.00    +0.119 C 
BRANCH  12  14
ATOM     14  C   UNL     1      -4.924 -10.874   8.372  0.00  0.00    -0.033 A 
ATOM     15  C   UNL     1      -5.626 -10.095   7.454  0.00  0.00    +0.006 A 
ATOM     16  C   UNL     1      -4.215 -11.995   7.940  0.00  0.00    +0.006 A 
ATOM     18  C   UNL     1      -5.617 -10.436   6.101  0.00  0.00    +0.015 A 
ATOM     19  C   UNL     1      -4.207 -12.336   6.588  0.00  0.00    +0.015 A 
ATOM     21  C   UNL     1      -4.908 -11.556   5.668  0.00  0.00    +0.059 A 
BRANCH  21  24
ATOM      4  O   UNL     1      -4.009 -12.550   3.685  0.00  0.00    -0.245 OA
ATOM     24  C   UNL     1      -4.899 -11.912   4.258  0.00  0.00    +0.337 C 
BRANCH  24   2
ATOM      2  O   UNL     1      -6.002 -11.461   3.600  0.00  0.00    -0.477 OA
ATOM     29  H   UNL     1      -6.753 -11.306   4.210  0.00  0.00    +0.295 HD
ENDBRANCH  24   2
ENDBRANCH  21  24
ENDBRANCH  12  14
ENDBRANCH   5  12
TORSDOF 7
ENDMDL
MODEL 9
REMARK VINA RESULT:      -6.4     32.663     34.473
REMARK  Name = 51137485
REMARK  8 active torsions:
REMARK  status: ('A' for Active; 'I' for Inactive)
REMARK    1  A    between atoms: O_2  and  C_24
REMARK    2  A    between atoms: O_3  and  C_27
REMARK    3  A    between atoms: O_3  and  C_28
REMARK    4  A    between atoms: N_5  and  C_12
REMARK    5  A    between atoms: C_8  and  C_13
REMARK    6  A    between atoms: C_12  and  C_14
REMARK    7  A    between atoms: C_17  and  C_20
REMARK    8  A    between atoms: C_21  and  C_24
REMARK                            x       y       z     vdW  Elec       q    Type
REMARK                         _______ _______ _______ _____ _____    ______ ____
ROOT
ATOM      5  N   UNL     1     -12.684   8.824  32.475  0.00  0.00    -0.297 NA
ATOM      8  C   UNL     1     -14.049   7.174  33.430  0.00  0.00    +0.092 C 
ATOM      9  C   UNL     1     -13.341   7.964  34.544  0.00  0.00    +0.029 C 
ATOM     10  C   UNL     1     -13.272   7.521  32.153  0.00  0.00    +0.097 C 
ATOM     11  C   UNL     1     -12.197   8.688  33.848  0.00  0.00    +0.085 C 
ENDROOT
BRANCH   8  13
ATOM      1  O   UNL     1     -14.164   4.882  32.574  0.00  0.00    -0.420 OA
ATOM      6  N   UNL     1     -14.218   5.026  34.806  0.00  0.00    -0.112 NA
ATOM      7  N   UNL     1     -14.290   3.688  34.462  0.00  0.00    -0.107 NA
ATOM     13  C   UNL     1     -14.146   5.684  33.673  0.00  0.00    +0.222 A 
ATOM     17  C   UNL     1     -14.255   3.652  33.151  0.00  0.00    +0.248 A 
BRANCH  17  20
ATOM     20  C   UNL     1     -14.298   2.538  32.249  0.00  0.00    +0.039 A 
ATOM     22  C   UNL     1     -14.820   1.316  32.674  0.00  0.00    +0.017 A 
ATOM     23  C   UNL     1     -13.818   2.676  30.946  0.00  0.00    +0.017 A 
ATOM     25  C   UNL     1     -14.862   0.233  31.797  0.00  0.00    +0.046 A 
ATOM     26  C   UNL     1     -13.860   1.592  30.069  0.00  0.00    +0.046 A 
ATOM     27  C   UNL     1     -14.382   0.371  30.494  0.00  0.00    +0.120 A 
BRANCH  27   3
ATOM      3  O   UNL     1     -14.426  -0.686  29.637  0.00  0.00    -0.495 OA
ATOM     28  C   UNL     1     -13.177  -1.237  29.222  0.00  0.00    +0.277 C 
ENDBRANCH  27   3
ENDBRANCH  17  20
ENDBRANCH   8  13
BRANCH   5  12
ATOM     12  C   UNL     1     -11.628   9.200  31.546  0.00  0.00    +0.119 C 
BRANCH  12  14
ATOM     14  C   UNL     1     -12.169   9.945  30.355  0.00  0.00    -0.033 A 
ATOM     15  C   UNL     1     -13.448  10.498  30.402  0.00  0.00    +0.006 A 
ATOM     16  C   UNL     1     -11.392  10.079  29.204  0.00  0.00    +0.006 A 
ATOM     18  C   UNL     1     -13.950  11.188  29.297  0.00  0.00    +0.015 A 
ATOM     19  C   UNL     1     -11.894  10.768  28.100  0.00  0.00    +0.015 A 
ATOM     21  C   UNL     1     -13.173  11.322  28.147  0.00  0.00    +0.059 A 
BRANCH  21  24
ATOM      4  O   UNL     1     -13.851  11.567  25.865  0.00  0.00    -0.245 OA
ATOM     24  C   UNL     1     -13.695  12.042  26.996  0.00  0.00    +0.337 C 
BRANCH  24   2
ATOM      2  O   UNL     1     -14.010  13.333  27.287  0.00  0.00    -0.477 OA
ATOM     29  H   UNL     1     -13.255  13.938  27.128  0.00  0.00    +0.295 HD
ENDBRANCH  24   2
ENDBRANCH  21  24
ENDBRANCH  12  14
ENDBRANCH   5  12
TORSDOF 7
ENDMDL
MODEL 10
REMARK VINA RESULT:      -6.4     29.029     33.871
REMARK  Name = 51137485
REMARK  8 active torsions:
REMARK  status: ('A' for Active; 'I' for Inactive)
REMARK    1  A    between atoms: O_2  and  C_24
REMARK    2  A    between atoms: O_3  and  C_27
REMARK    3  A    between atoms: O_3  and  C_28
REMARK    4  A    between atoms: N_5  and  C_12
REMARK    5  A    between atoms: C_8  and  C_13
REMARK    6  A    between atoms: C_12  and  C_14
REMARK    7  A    between atoms: C_17  and  C_20
REMARK    8  A    between atoms: C_21  and  C_24
REMARK                            x       y       z     vdW  Elec       q    Type
REMARK                         _______ _______ _______ _____ _____    ______ ____
ROOT
ATOM      5  N   UNL     1      -6.329  -9.751   8.226  0.00  0.00    -0.297 NA
ATOM      8  C   UNL     1      -8.315  -8.606   8.721  0.00  0.00    +0.092 C 
ATOM      9  C   UNL     1      -8.495  -9.410   7.421  0.00  0.00    +0.029 C 
ATOM     10  C   UNL     1      -6.798  -8.564   8.945  0.00  0.00    +0.097 C 
ATOM     11  C   UNL     1      -7.081  -9.751   6.970  0.00  0.00    +0.085 C 
ENDROOT
BRANCH   8  13
ATOM      1  O   UNL     1     -10.158  -7.108   9.320  0.00  0.00    -0.420 OA
ATOM      6  N   UNL     1      -8.503  -6.113   8.193  0.00  0.00    -0.112 NA
ATOM      7  N   UNL     1      -9.468  -5.160   8.464  0.00  0.00    -0.107 NA
ATOM     13  C   UNL     1      -8.948  -7.233   8.710  0.00  0.00    +0.222 A 
ATOM     17  C   UNL     1     -10.414  -5.786   9.123  0.00  0.00    +0.248 A 
BRANCH  17  20
ATOM     20  C   UNL     1     -11.654  -5.301   9.657  0.00  0.00    +0.039 A 
ATOM     22  C   UNL     1     -12.778  -6.126   9.669  0.00  0.00    +0.017 A 
ATOM     23  C   UNL     1     -11.735  -4.005  10.166  0.00  0.00    +0.017 A 
ATOM     25  C   UNL     1     -13.984  -5.656  10.188  0.00  0.00    +0.046 A 
ATOM     26  C   UNL     1     -12.941  -3.534  10.686  0.00  0.00    +0.046 A 
ATOM     27  C   UNL     1     -14.065  -4.359  10.697  0.00  0.00    +0.120 A 
BRANCH  27   3
ATOM      3  O   UNL     1     -15.241  -3.900  11.208  0.00  0.00    -0.495 OA
ATOM     28  C   UNL     1     -15.577  -2.540  10.941  0.00  0.00    +0.277 C 
ENDBRANCH  27   3
ENDBRANCH  17  20
ENDBRANCH   8  13
BRANCH   5  12
ATOM     12  C   UNL     1      -4.890  -9.736   8.010  0.00  0.00    +0.119 C 
BRANCH  12  14
ATOM     14  C   UNL     1      -4.136 -10.174   9.238  0.00  0.00    -0.033 A 
ATOM     15  C   UNL     1      -4.260 -11.484   9.701  0.00  0.00    +0.006 A 
ATOM     16  C   UNL     1      -3.315  -9.270   9.912  0.00  0.00    +0.006 A 
ATOM     18  C   UNL     1      -3.561 -11.890  10.839  0.00  0.00    +0.015 A 
ATOM     19  C   UNL     1      -2.617  -9.675  11.049  0.00  0.00    +0.015 A 
ATOM     21  C   UNL     1      -2.741 -10.985  11.513  0.00  0.00    +0.059 A 
BRANCH  21  24
ATOM      4  O   UNL     1      -1.806 -10.712  13.699  0.00  0.00    -0.245 OA
ATOM     24  C   UNL     1      -2.012 -11.408  12.698  0.00  0.00    +0.337 C 
BRANCH  24   2
ATOM      2  O   UNL     1      -1.561 -12.688  12.604  0.00  0.00    -0.477 OA
ATOM     29  H   UNL     1      -1.893 -13.248  13.337  0.00  0.00    +0.295 HD
ENDBRANCH  24   2
ENDBRANCH  21  24
ENDBRANCH  12  14
ENDBRANCH   5  12
TORSDOF 7
ENDMDL
