MODEL 1
REMARK VINA RESULT:      -7.8      0.000      0.000
REMARK  Name = 25388703
REMARK  3 active torsions:
REMARK  status: ('A' for Active; 'I' for Inactive)
REMARK    1  A    between atoms: C_19  and  C_22
REMARK    2  A    between atoms: C_20  and  C_23
REMARK    3  A    between atoms: C_28  and  C_31
REMARK                            x       y       z     vdW  Elec       q    Type
REMARK                         _______ _______ _______ _____ _____    ______ ____
ROOT
ATOM      4  O   UNL     1      12.893   7.002   3.524  0.00  0.00    -0.267 OA
ATOM      5  O   UNL     1      13.005   7.726  -1.527  0.00  0.00    -0.270 OA
ATOM      6  N   UNL     1      13.852   5.580  -1.141  0.00  0.00    -0.296 N 
ATOM      7  N   UNL     1      13.493   5.352   1.988  0.00  0.00    -0.311 N 
ATOM     10  C   UNL     1      15.635   5.484   0.589  0.00  0.00    +0.027 C 
ATOM     11  C   UNL     1      14.102   3.578   0.308  0.00  0.00    +0.054 C 
ATOM     12  C   UNL     1      15.556   3.962   0.579  0.00  0.00    +0.018 C 
ATOM     13  C   UNL     1      15.184   6.054  -0.769  0.00  0.00    +0.113 C 
ATOM     14  C   UNL     1      14.783   6.015   1.749  0.00  0.00    +0.130 C 
ATOM     15  C   UNL     1      13.674   4.119  -1.072  0.00  0.00    +0.117 C 
ATOM     16  C   UNL     1      13.182   4.134   1.378  0.00  0.00    +0.027 A 
ATOM     17  C   UNL     1      12.053   3.484   1.704  0.00  0.00    +0.022 A 
ATOM     18  C   UNL     1      12.639   5.948   2.938  0.00  0.00    +0.259 A 
ATOM     19  C   UNL     1      12.859   6.505  -1.469  0.00  0.00    +0.250 C 
ATOM     20  C   UNL     1      11.360   5.218   3.247  0.00  0.00    +0.047 A 
ATOM     21  C   UNL     1      11.129   4.040   2.649  0.00  0.00    +0.015 A 
ENDROOT
BRANCH  19  22
ATOM      8  N   UNL     1       9.371   5.227  -0.967  0.00  0.00    -0.243 NA
ATOM      9  N   UNL     1       9.820   5.343  -3.332  0.00  0.00    -0.243 NA
ATOM     22  C   UNL     1      11.511   6.001  -1.750  0.00  0.00    +0.073 A 
ATOM     26  C   UNL     1      10.618   5.693  -0.745  0.00  0.00    +0.127 A 
ATOM     27  C   UNL     1      11.053   5.804  -3.037  0.00  0.00    +0.127 A 
ATOM     32  C   UNL     1       9.043   5.078  -2.265  0.00  0.00    +0.221 A 
ENDBRANCH  19  22
BRANCH  20  23
ATOM     23  C   UNL     1      10.364   5.785   4.173  0.00  0.00    -0.012 A 
ATOM     24  C   UNL     1      10.448   5.514   5.539  0.00  0.00    +0.021 A 
ATOM     25  C   UNL     1       9.337   6.591   3.683  0.00  0.00    +0.009 A 
ATOM     28  C   UNL     1       9.505   6.050   6.415  0.00  0.00    +0.055 A 
ATOM     29  C   UNL     1       8.393   7.126   4.560  0.00  0.00    +0.001 A 
ATOM     30  C   UNL     1       8.477   6.857   5.926  0.00  0.00    +0.012 A 
BRANCH  28  31
ATOM      1  F   UNL     1       8.668   6.426   8.624  0.00  0.00    -0.166 F 
ATOM      2  F   UNL     1      10.805   6.099   8.404  0.00  0.00    -0.166 F 
ATOM      3  F   UNL     1       9.418   4.440   8.182  0.00  0.00    -0.166 F 
ATOM     31  C   UNL     1       9.594   5.760   7.875  0.00  0.00    +0.417 C 
ENDBRANCH  28  31
ENDBRANCH  20  23
TORSDOF 3
ENDMDL
MODEL 2
REMARK VINA RESULT:      -7.3     15.949     19.708
REMARK  Name = 25388703
REMARK  3 active torsions:
REMARK  status: ('A' for Active; 'I' for Inactive)
REMARK    1  A    between atoms: C_19  and  C_22
REMARK    2  A    between atoms: C_20  and  C_23
REMARK    3  A    between atoms: C_28  and  C_31
REMARK                            x       y       z     vdW  Elec       q    Type
REMARK                         _______ _______ _______ _____ _____    ______ ____
ROOT
ATOM      4  O   UNL     1      15.039   6.137  21.590  0.00  0.00    -0.267 OA
ATOM      5  O   UNL     1      11.661   7.328  17.954  0.00  0.00    -0.270 OA
ATOM      6  N   UNL     1      11.634   9.090  19.493  0.00  0.00    -0.296 N 
ATOM      7  N   UNL     1      13.909   8.175  21.484  0.00  0.00    -0.311 N 
ATOM     10  C   UNL     1      11.382   8.370  21.859  0.00  0.00    +0.027 C 
ATOM     11  C   UNL     1      12.701  10.379  21.328  0.00  0.00    +0.054 C 
ATOM     12  C   UNL     1      11.701   9.788  22.320  0.00  0.00    +0.018 C 
ATOM     13  C   UNL     1      10.773   8.389  20.445  0.00  0.00    +0.113 C 
ATOM     14  C   UNL     1      12.663   7.529  21.925  0.00  0.00    +0.130 C 
ATOM     15  C   UNL     1      12.067  10.430  19.923  0.00  0.00    +0.117 C 
ATOM     16  C   UNL     1      13.974   9.555  21.280  0.00  0.00    +0.027 A 
ATOM     17  C   UNL     1      15.149  10.141  20.997  0.00  0.00    +0.022 A 
ATOM     18  C   UNL     1      15.048   7.352  21.383  0.00  0.00    +0.259 A 
ATOM     19  C   UNL     1      12.021   8.449  18.315  0.00  0.00    +0.250 C 
ATOM     20  C   UNL     1      16.340   8.031  21.019  0.00  0.00    +0.047 A 
ATOM     21  C   UNL     1      16.346   9.363  20.861  0.00  0.00    +0.015 A 
ENDROOT
BRANCH  19  22
ATOM      8  N   UNL     1      13.495  10.037  15.255  0.00  0.00    -0.243 NA
ATOM      9  N   UNL     1      15.074  10.231  17.066  0.00  0.00    -0.243 NA
ATOM     22  C   UNL     1      12.956   9.145  17.425  0.00  0.00    +0.073 A 
ATOM     26  C   UNL     1      12.659   9.400  16.102  0.00  0.00    +0.127 A 
ATOM     27  C   UNL     1      14.190   9.587  17.856  0.00  0.00    +0.127 A 
ATOM     32  C   UNL     1      14.668  10.420  15.796  0.00  0.00    +0.221 A 
ENDBRANCH  19  22
BRANCH  20  23
ATOM     23  C   UNL     1      17.578   7.258  20.820  0.00  0.00    -0.012 A 
ATOM     24  C   UNL     1      18.705   7.534  21.593  0.00  0.00    +0.021 A 
ATOM     25  C   UNL     1      17.623   6.251  19.856  0.00  0.00    +0.009 A 
ATOM     28  C   UNL     1      19.878   6.802  21.404  0.00  0.00    +0.055 A 
ATOM     29  C   UNL     1      18.795   5.519  19.667  0.00  0.00    +0.001 A 
ATOM     30  C   UNL     1      19.922   5.794  20.441  0.00  0.00    +0.012 A 
BRANCH  28  31
ATOM      1  F   UNL     1      22.209   7.327  21.494  0.00  0.00    -0.166 F 
ATOM      2  F   UNL     1      21.401   6.078  23.079  0.00  0.00    -0.166 F 
ATOM      3  F   UNL     1      20.945   8.203  23.023  0.00  0.00    -0.166 F 
ATOM     31  C   UNL     1      21.083   7.098  22.231  0.00  0.00    +0.417 C 
ENDBRANCH  28  31
ENDBRANCH  20  23
TORSDOF 3
ENDMDL
MODEL 3
REMARK VINA RESULT:      -7.2     18.193     21.234
REMARK  Name = 25388703
REMARK  3 active torsions:
REMARK  status: ('A' for Active; 'I' for Inactive)
REMARK    1  A    between atoms: C_19  and  C_22
REMARK    2  A    between atoms: C_20  and  C_23
REMARK    3  A    between atoms: C_28  and  C_31
REMARK                            x       y       z     vdW  Elec       q    Type
REMARK                         _______ _______ _______ _____ _____    ______ ____
ROOT
ATOM      4  O   UNL     1      10.656  10.207  22.333  0.00  0.00    -0.267 OA
ATOM      5  O   UNL     1      14.942   7.436  22.370  0.00  0.00    -0.270 OA
ATOM      6  N   UNL     1      14.558   8.042  20.143  0.00  0.00    -0.296 N 
ATOM      7  N   UNL     1      11.998   9.865  20.456  0.00  0.00    -0.311 N 
ATOM     10  C   UNL     1      12.252   7.571  19.343  0.00  0.00    +0.027 C 
ATOM     11  C   UNL     1      13.481   9.509  18.453  0.00  0.00    +0.054 C 
ATOM     12  C   UNL     1      12.533   8.372  18.077  0.00  0.00    +0.018 C 
ATOM     13  C   UNL     1      13.561   6.997  19.916  0.00  0.00    +0.113 C 
ATOM     14  C   UNL     1      11.528   8.476  20.349  0.00  0.00    +0.130 C 
ATOM     15  C   UNL     1      14.804   8.923  18.989  0.00  0.00    +0.117 C 
ATOM     16  C   UNL     1      12.864  10.410  19.506  0.00  0.00    +0.027 A 
ATOM     17  C   UNL     1      13.183  11.714  19.551  0.00  0.00    +0.022 A 
ATOM     18  C   UNL     1      11.450  10.641  21.497  0.00  0.00    +0.259 A 
ATOM     19  C   UNL     1      15.146   8.169  21.403  0.00  0.00    +0.250 C 
ATOM     20  C   UNL     1      11.863  12.087  21.549  0.00  0.00    +0.047 A 
ATOM     21  C   UNL     1      12.677  12.560  20.593  0.00  0.00    +0.015 A 
ENDROOT
BRANCH  19  22
ATOM      8  N   UNL     1      18.314  10.167  21.582  0.00  0.00    -0.243 NA
ATOM      9  N   UNL     1      16.478  11.562  22.283  0.00  0.00    -0.243 NA
ATOM     22  C   UNL     1      16.076   9.283  21.622  0.00  0.00    +0.073 A 
ATOM     26  C   UNL     1      17.431   9.164  21.391  0.00  0.00    +0.127 A 
ATOM     27  C   UNL     1      15.652  10.516  22.072  0.00  0.00    +0.127 A 
ATOM     32  C   UNL     1      17.777  11.321  22.022  0.00  0.00    +0.221 A 
ENDBRANCH  19  22
BRANCH  20  23
ATOM     23  C   UNL     1      11.404  12.972  22.634  0.00  0.00    -0.012 A 
ATOM     24  C   UNL     1      12.167  13.108  23.793  0.00  0.00    +0.021 A 
ATOM     25  C   UNL     1      10.205  13.673  22.501  0.00  0.00    +0.009 A 
ATOM     28  C   UNL     1      11.733  13.946  24.820  0.00  0.00    +0.055 A 
ATOM     29  C   UNL     1       9.771  14.510  23.528  0.00  0.00    +0.001 A 
ATOM     30  C   UNL     1      10.534  14.648  24.687  0.00  0.00    +0.012 A 
BRANCH  28  31
ATOM      1  F   UNL     1      13.606  14.943  25.923  0.00  0.00    -0.166 F 
ATOM      2  F   UNL     1      13.085  12.906  26.476  0.00  0.00    -0.166 F 
ATOM      3  F   UNL     1      11.842  14.567  27.127  0.00  0.00    -0.166 F 
ATOM     31  C   UNL     1      12.549  14.090  26.060  0.00  0.00    +0.417 C 
ENDBRANCH  28  31
ENDBRANCH  20  23
TORSDOF 3
ENDMDL
MODEL 4
REMARK VINA RESULT:      -7.2      2.153      2.616
REMARK  Name = 25388703
REMARK  3 active torsions:
REMARK  status: ('A' for Active; 'I' for Inactive)
REMARK    1  A    between atoms: C_19  and  C_22
REMARK    2  A    between atoms: C_20  and  C_23
REMARK    3  A    between atoms: C_28  and  C_31
REMARK                            x       y       z     vdW  Elec       q    Type
REMARK                         _______ _______ _______ _____ _____    ______ ____
ROOT
ATOM      4  O   UNL     1      12.545   7.205   3.274  0.00  0.00    -0.267 OA
ATOM      5  O   UNL     1      13.224   7.428  -1.779  0.00  0.00    -0.270 OA
ATOM      6  N   UNL     1      13.960   5.314  -1.099  0.00  0.00    -0.296 N 
ATOM      7  N   UNL     1      13.258   5.401   1.979  0.00  0.00    -0.311 N 
ATOM     10  C   UNL     1      15.542   5.355   0.818  0.00  0.00    +0.027 C 
ATOM     11  C   UNL     1      13.993   3.460   0.553  0.00  0.00    +0.054 C 
ATOM     12  C   UNL     1      15.419   3.841   0.945  0.00  0.00    +0.018 C 
ATOM     13  C   UNL     1      15.258   5.797  -0.629  0.00  0.00    +0.113 C 
ATOM     14  C   UNL     1      14.585   6.013   1.821  0.00  0.00    +0.130 C 
ATOM     15  C   UNL     1      13.733   3.872  -0.911  0.00  0.00    +0.117 C 
ATOM     16  C   UNL     1      12.979   4.136   1.456  0.00  0.00    +0.027 A 
ATOM     17  C   UNL     1      11.803   3.542   1.716  0.00  0.00    +0.022 A 
ATOM     18  C   UNL     1      12.325   6.104   2.767  0.00  0.00    +0.259 A 
ATOM     19  C   UNL     1      13.037   6.222  -1.622  0.00  0.00    +0.250 C 
ATOM     20  C   UNL     1      10.999   5.432   3.001  0.00  0.00    +0.047 A 
ATOM     21  C   UNL     1      10.799   4.206   2.496  0.00  0.00    +0.015 A 
ENDROOT
BRANCH  19  22
ATOM      8  N   UNL     1       9.458   5.127  -1.400  0.00  0.00    -0.243 NA
ATOM      9  N   UNL     1      10.203   4.880  -3.678  0.00  0.00    -0.243 NA
ATOM     22  C   UNL     1      11.712   5.719  -2.001  0.00  0.00    +0.073 A 
ATOM     26  C   UNL     1      10.688   5.587  -1.086  0.00  0.00    +0.127 A 
ATOM     27  C   UNL     1      11.410   5.346  -3.294  0.00  0.00    +0.127 A 
ATOM     32  C   UNL     1       9.288   4.797  -2.694  0.00  0.00    +0.221 A 
ENDBRANCH  19  22
BRANCH  20  23
ATOM     23  C   UNL     1       9.926   6.106   3.753  0.00  0.00    -0.012 A 
ATOM     24  C   UNL     1       9.301   7.232   3.220  0.00  0.00    +0.021 A 
ATOM     25  C   UNL     1       9.537   5.617   5.001  0.00  0.00    +0.009 A 
ATOM     28  C   UNL     1       8.285   7.870   3.932  0.00  0.00    +0.055 A 
ATOM     29  C   UNL     1       8.522   6.255   5.713  0.00  0.00    +0.001 A 
ATOM     30  C   UNL     1       7.896   7.381   5.179  0.00  0.00    +0.012 A 
BRANCH  28  31
ATOM      1  F   UNL     1       6.470   9.425   4.012  0.00  0.00    -0.166 F 
ATOM      2  F   UNL     1       7.261   8.908   2.055  0.00  0.00    -0.166 F 
ATOM      3  F   UNL     1       8.398  10.196   3.387  0.00  0.00    -0.166 F 
ATOM     31  C   UNL     1       7.618   9.075   3.362  0.00  0.00    +0.417 C 
ENDBRANCH  28  31
ENDBRANCH  20  23
TORSDOF 3
ENDMDL
MODEL 5
REMARK VINA RESULT:      -7.1     15.330     18.486
REMARK  Name = 25388703
REMARK  3 active torsions:
REMARK  status: ('A' for Active; 'I' for Inactive)
REMARK    1  A    between atoms: C_19  and  C_22
REMARK    2  A    between atoms: C_20  and  C_23
REMARK    3  A    between atoms: C_28  and  C_31
REMARK                            x       y       z     vdW  Elec       q    Type
REMARK                         _______ _______ _______ _____ _____    ______ ____
ROOT
ATOM      4  O   UNL     1      13.472  11.908  18.407  0.00  0.00    -0.267 OA
ATOM      5  O   UNL     1      15.726   9.112  22.032  0.00  0.00    -0.270 OA
ATOM      6  N   UNL     1      13.726   8.023  21.496  0.00  0.00    -0.296 N 
ATOM      7  N   UNL     1      12.666   9.848  19.147  0.00  0.00    -0.311 N 
ATOM     10  C   UNL     1      11.728   9.502  21.506  0.00  0.00    +0.027 C 
ATOM     11  C   UNL     1      11.837   7.606  19.939  0.00  0.00    +0.054 C 
ATOM     12  C   UNL     1      10.907   8.389  20.864  0.00  0.00    +0.018 C 
ATOM     13  C   UNL     1      12.897   8.910  22.313  0.00  0.00    +0.113 C 
ATOM     14  C   UNL     1      12.210  10.456  20.405  0.00  0.00    +0.130 C 
ATOM     15  C   UNL     1      12.983   6.984  20.764  0.00  0.00    +0.117 C 
ATOM     16  C   UNL     1      12.417   8.503  18.862  0.00  0.00    +0.027 A 
ATOM     17  C   UNL     1      12.732   7.998  17.658  0.00  0.00    +0.022 A 
ATOM     18  C   UNL     1      13.267  10.709  18.207  0.00  0.00    +0.259 A 
ATOM     19  C   UNL     1      15.103   8.244  21.422  0.00  0.00    +0.250 C 
ATOM     20  C   UNL     1      13.651  10.102  16.885  0.00  0.00    +0.047 A 
ATOM     21  C   UNL     1      13.362   8.812  16.660  0.00  0.00    +0.015 A 
ENDROOT
BRANCH  19  22
ATOM      8  N   UNL     1      17.906   6.162  20.057  0.00  0.00    -0.243 NA
ATOM      9  N   UNL     1      16.115   6.202  18.445  0.00  0.00    -0.243 NA
ATOM     22  C   UNL     1      15.891   7.392  20.525  0.00  0.00    +0.073 A 
ATOM     26  C   UNL     1      17.153   6.946  20.858  0.00  0.00    +0.127 A 
ATOM     27  C   UNL     1      15.418   6.986  19.294  0.00  0.00    +0.127 A 
ATOM     32  C   UNL     1      17.334   5.833  18.883  0.00  0.00    +0.221 A 
ENDBRANCH  19  22
BRANCH  20  23
ATOM     23  C   UNL     1      14.346  10.894  15.856  0.00  0.00    -0.012 A 
ATOM     24  C   UNL     1      15.706  11.174  15.991  0.00  0.00    +0.021 A 
ATOM     25  C   UNL     1      13.644  11.366  14.747  0.00  0.00    +0.009 A 
ATOM     28  C   UNL     1      16.364  11.925  15.017  0.00  0.00    +0.055 A 
ATOM     29  C   UNL     1      14.302  12.117  13.773  0.00  0.00    +0.001 A 
ATOM     30  C   UNL     1      15.662  12.395  13.907  0.00  0.00    +0.012 A 
BRANCH  28  31
ATOM      1  F   UNL     1      18.630  11.206  14.752  0.00  0.00    -0.166 F 
ATOM      2  F   UNL     1      18.174  12.479  16.455  0.00  0.00    -0.166 F 
ATOM      3  F   UNL     1      18.225  13.315  14.449  0.00  0.00    -0.166 F 
ATOM     31  C   UNL     1      17.817  12.224  15.162  0.00  0.00    +0.417 C 
ENDBRANCH  28  31
ENDBRANCH  20  23
TORSDOF 3
ENDMDL
MODEL 6
REMARK VINA RESULT:      -7.0     27.933     29.820
REMARK  Name = 25388703
REMARK  3 active torsions:
REMARK  status: ('A' for Active; 'I' for Inactive)
REMARK    1  A    between atoms: C_19  and  C_22
REMARK    2  A    between atoms: C_20  and  C_23
REMARK    3  A    between atoms: C_28  and  C_31
REMARK                            x       y       z     vdW  Elec       q    Type
REMARK                         _______ _______ _______ _____ _____    ______ ____
ROOT
ATOM      4  O   UNL     1     -12.759  10.027  20.595  0.00  0.00    -0.267 OA
ATOM      5  O   UNL     1     -14.473  11.967  16.198  0.00  0.00    -0.270 OA
ATOM      6  N   UNL     1     -12.152  11.772  15.981  0.00  0.00    -0.296 N 
ATOM      7  N   UNL     1     -11.411  10.401  18.729  0.00  0.00    -0.311 N 
ATOM     10  C   UNL     1     -10.868  12.753  17.871  0.00  0.00    +0.027 C 
ATOM     11  C   UNL     1      -9.986  10.782  16.688  0.00  0.00    +0.054 C 
ATOM     12  C   UNL     1      -9.594  12.111  17.333  0.00  0.00    +0.018 C 
ATOM     13  C   UNL     1     -11.870  12.998  16.727  0.00  0.00    +0.113 C 
ATOM     14  C   UNL     1     -11.451  11.851  18.966  0.00  0.00    +0.130 C 
ATOM     15  C   UNL     1     -10.959  11.043  15.519  0.00  0.00    +0.117 C 
ATOM     16  C   UNL     1     -10.642   9.858  17.697  0.00  0.00    +0.027 A 
ATOM     17  C   UNL     1     -10.521   8.526  17.572  0.00  0.00    +0.022 A 
ATOM     18  C   UNL     1     -12.099   9.588  19.651  0.00  0.00    +0.259 A 
ATOM     19  C   UNL     1     -13.475  11.359  15.811  0.00  0.00    +0.250 C 
ATOM     20  C   UNL     1     -11.982   8.100  19.458  0.00  0.00    +0.047 A 
ATOM     21  C   UNL     1     -11.207   7.638  18.465  0.00  0.00    +0.015 A 
ENDROOT
BRANCH  19  22
ATOM      8  N   UNL     1     -14.080   7.703  15.244  0.00  0.00    -0.243 NA
ATOM      9  N   UNL     1     -14.043   8.822  13.110  0.00  0.00    -0.243 NA
ATOM     22  C   UNL     1     -13.717  10.080  15.136  0.00  0.00    +0.073 A 
ATOM     26  C   UNL     1     -13.857   8.898  15.832  0.00  0.00    +0.127 A 
ATOM     27  C   UNL     1     -13.819   9.982  13.763  0.00  0.00    +0.127 A 
ATOM     32  C   UNL     1     -14.161   7.739  13.900  0.00  0.00    +0.221 A 
ENDBRANCH  19  22
BRANCH  20  23
ATOM     23  C   UNL     1     -12.714   7.159  20.323  0.00  0.00    -0.012 A 
ATOM     24  C   UNL     1     -14.104   7.085  20.254  0.00  0.00    +0.021 A 
ATOM     25  C   UNL     1     -12.014   6.344  21.214  0.00  0.00    +0.009 A 
ATOM     28  C   UNL     1     -14.797   6.194  21.074  0.00  0.00    +0.055 A 
ATOM     29  C   UNL     1     -12.707   5.453  22.033  0.00  0.00    +0.001 A 
ATOM     30  C   UNL     1     -14.098   5.378  21.964  0.00  0.00    +0.012 A 
BRANCH  28  31
ATOM      1  F   UNL     1     -16.878   5.828  22.196  0.00  0.00    -0.166 F 
ATOM      2  F   UNL     1     -16.716   5.151  20.136  0.00  0.00    -0.166 F 
ATOM      3  F   UNL     1     -16.873   7.274  20.580  0.00  0.00    -0.166 F 
ATOM     31  C   UNL     1     -16.284   6.115  21.000  0.00  0.00    +0.417 C 
ENDBRANCH  28  31
ENDBRANCH  20  23
TORSDOF 3
ENDMDL
MODEL 7
REMARK VINA RESULT:      -7.0      4.432      7.925
REMARK  Name = 25388703
REMARK  3 active torsions:
REMARK  status: ('A' for Active; 'I' for Inactive)
REMARK    1  A    between atoms: C_19  and  C_22
REMARK    2  A    between atoms: C_20  and  C_23
REMARK    3  A    between atoms: C_28  and  C_31
REMARK                            x       y       z     vdW  Elec       q    Type
REMARK                         _______ _______ _______ _____ _____    ______ ____
ROOT
ATOM      4  O   UNL     1      10.019   6.981   0.527  0.00  0.00    -0.267 OA
ATOM      5  O   UNL     1      11.554  10.327   4.061  0.00  0.00    -0.270 OA
ATOM      6  N   UNL     1      10.356   8.666   5.191  0.00  0.00    -0.296 N 
ATOM      7  N   UNL     1       9.706   6.684   2.820  0.00  0.00    -0.311 N 
ATOM     10  C   UNL     1       8.133   8.162   4.199  0.00  0.00    +0.027 C 
ATOM     11  C   UNL     1       9.413   6.372   5.301  0.00  0.00    +0.054 C 
ATOM     12  C   UNL     1       8.009   6.943   5.106  0.00  0.00    +0.018 C 
ATOM     13  C   UNL     1       9.048   9.220   4.842  0.00  0.00    +0.113 C 
ATOM     14  C   UNL     1       8.651   7.707   2.828  0.00  0.00    +0.130 C 
ATOM     15  C   UNL     1      10.310   7.426   5.982  0.00  0.00    +0.117 C 
ATOM     16  C   UNL     1      10.026   5.966   3.974  0.00  0.00    +0.027 A 
ATOM     17  C   UNL     1      10.905   4.952   3.918  0.00  0.00    +0.022 A 
ATOM     18  C   UNL     1      10.299   6.394   1.575  0.00  0.00    +0.259 A 
ATOM     19  C   UNL     1      11.513   9.291   4.723  0.00  0.00    +0.250 C 
ATOM     20  C   UNL     1      11.314   5.284   1.553  0.00  0.00    +0.047 A 
ATOM     21  C   UNL     1      11.560   4.613   2.688  0.00  0.00    +0.015 A 
ENDROOT
BRANCH  19  22
ATOM      8  N   UNL     1      14.588   7.173   4.382  0.00  0.00    -0.243 NA
ATOM      9  N   UNL     1      14.689   8.352   6.482  0.00  0.00    -0.243 NA
ATOM     22  C   UNL     1      12.805   8.660   5.016  0.00  0.00    +0.073 A 
ATOM     26  C   UNL     1      13.402   7.773   4.145  0.00  0.00    +0.127 A 
ATOM     27  C   UNL     1      13.500   8.914   6.181  0.00  0.00    +0.127 A 
ATOM     32  C   UNL     1      15.168   7.504   5.552  0.00  0.00    +0.221 A 
ENDBRANCH  19  22
BRANCH  20  23
ATOM     23  C   UNL     1      12.044   4.943   0.319  0.00  0.00    -0.012 A 
ATOM     24  C   UNL     1      11.595   3.902  -0.492  0.00  0.00    +0.021 A 
ATOM     25  C   UNL     1      13.187   5.660  -0.035  0.00  0.00    +0.009 A 
ATOM     28  C   UNL     1      12.286   3.579  -1.660  0.00  0.00    +0.055 A 
ATOM     29  C   UNL     1      13.878   5.337  -1.202  0.00  0.00    +0.001 A 
ATOM     30  C   UNL     1      13.428   4.297  -2.015  0.00  0.00    +0.012 A 
BRANCH  28  31
ATOM      1  F   UNL     1      12.086   1.224  -2.031  0.00  0.00    -0.166 F 
ATOM      2  F   UNL     1      12.359   2.494  -3.774  0.00  0.00    -0.166 F 
ATOM      3  F   UNL     1      10.454   2.471  -2.726  0.00  0.00    -0.166 F 
ATOM     31  C   UNL     1      11.805   2.465  -2.527  0.00  0.00    +0.417 C 
ENDBRANCH  28  31
ENDBRANCH  20  23
TORSDOF 3
ENDMDL
MODEL 8
REMARK VINA RESULT:      -6.8     27.676     31.854
REMARK  Name = 25388703
REMARK  3 active torsions:
REMARK  status: ('A' for Active; 'I' for Inactive)
REMARK    1  A    between atoms: C_19  and  C_22
REMARK    2  A    between atoms: C_20  and  C_23
REMARK    3  A    between atoms: C_28  and  C_31
REMARK                            x       y       z     vdW  Elec       q    Type
REMARK                         _______ _______ _______ _____ _____    ______ ____
ROOT
ATOM      4  O   UNL     1     -14.340   8.077  17.993  0.00  0.00    -0.267 OA
ATOM      5  O   UNL     1     -16.474  10.034  22.196  0.00  0.00    -0.270 OA
ATOM      6  N   UNL     1     -15.734   7.888  22.760  0.00  0.00    -0.296 N 
ATOM      7  N   UNL     1     -14.323   7.018  20.071  0.00  0.00    -0.311 N 
ATOM     10  C   UNL     1     -16.452   6.114  21.174  0.00  0.00    +0.027 C 
ATOM     11  C   UNL     1     -14.290   5.913  22.334  0.00  0.00    +0.054 C 
ATOM     12  C   UNL     1     -15.511   5.128  21.858  0.00  0.00    +0.018 C 
ATOM     13  C   UNL     1     -16.885   7.214  22.160  0.00  0.00    +0.113 C 
ATOM     14  C   UNL     1     -15.750   6.689  19.937  0.00  0.00    +0.130 C 
ATOM     15  C   UNL     1     -14.730   6.987  23.350  0.00  0.00    +0.117 C 
ATOM     16  C   UNL     1     -13.581   6.578  21.169  0.00  0.00    +0.027 A 
ATOM     17  C   UNL     1     -12.254   6.784  21.214  0.00  0.00    +0.022 A 
ATOM     18  C   UNL     1     -13.727   7.703  18.995  0.00  0.00    +0.259 A 
ATOM     19  C   UNL     1     -15.637   9.279  22.689  0.00  0.00    +0.250 C 
ATOM     20  C   UNL     1     -12.247   7.960  19.095  0.00  0.00    +0.047 A 
ATOM     21  C   UNL     1     -11.582   7.490  20.161  0.00  0.00    +0.015 A 
ENDROOT
BRANCH  19  22
ATOM      8  N   UNL     1     -13.201  10.827  25.082  0.00  0.00    -0.243 NA
ATOM      9  N   UNL     1     -12.220  10.809  22.881  0.00  0.00    -0.243 NA
ATOM     22  C   UNL     1     -14.428   9.915  23.223  0.00  0.00    +0.073 A 
ATOM     26  C   UNL     1     -14.298  10.241  24.557  0.00  0.00    +0.127 A 
ATOM     27  C   UNL     1     -13.347  10.225  22.423  0.00  0.00    +0.127 A 
ATOM     32  C   UNL     1     -12.214  11.078  24.200  0.00  0.00    +0.221 A 
ENDBRANCH  19  22
BRANCH  20  23
ATOM     23  C   UNL     1     -11.534   8.726  18.059  0.00  0.00    -0.012 A 
ATOM     24  C   UNL     1     -11.263  10.080  18.254  0.00  0.00    +0.021 A 
ATOM     25  C   UNL     1     -11.132   8.097  16.880  0.00  0.00    +0.009 A 
ATOM     28  C   UNL     1     -10.588  10.805  17.273  0.00  0.00    +0.055 A 
ATOM     29  C   UNL     1     -10.457   8.823  15.899  0.00  0.00    +0.001 A 
ATOM     30  C   UNL     1     -10.185  10.176  16.095  0.00  0.00    +0.012 A 
BRANCH  28  31
ATOM      1  F   UNL     1      -8.968  12.554  17.464  0.00  0.00    -0.166 F 
ATOM      2  F   UNL     1     -10.761  12.712  18.682  0.00  0.00    -0.166 F 
ATOM      3  F   UNL     1     -10.861  13.065  16.539  0.00  0.00    -0.166 F 
ATOM     31  C   UNL     1     -10.299  12.253  17.483  0.00  0.00    +0.417 C 
ENDBRANCH  28  31
ENDBRANCH  20  23
TORSDOF 3
ENDMDL
MODEL 9
REMARK VINA RESULT:      -6.8     32.521     35.392
REMARK  Name = 25388703
REMARK  3 active torsions:
REMARK  status: ('A' for Active; 'I' for Inactive)
REMARK    1  A    between atoms: C_19  and  C_22
REMARK    2  A    between atoms: C_20  and  C_23
REMARK    3  A    between atoms: C_28  and  C_31
REMARK                            x       y       z     vdW  Elec       q    Type
REMARK                         _______ _______ _______ _____ _____    ______ ____
ROOT
ATOM      4  O   UNL     1       9.633  -9.439  32.475  0.00  0.00    -0.267 OA
ATOM      5  O   UNL     1       8.873  -8.268  37.384  0.00  0.00    -0.270 OA
ATOM      6  N   UNL     1       8.341  -6.353  36.151  0.00  0.00    -0.296 N 
ATOM      7  N   UNL     1       8.721  -7.419  33.202  0.00  0.00    -0.311 N 
ATOM     10  C   UNL     1      10.082  -5.684  34.507  0.00  0.00    +0.027 C 
ATOM     11  C   UNL     1       7.708  -5.261  34.012  0.00  0.00    +0.054 C 
ATOM     12  C   UNL     1       9.114  -4.674  33.900  0.00  0.00    +0.018 C 
ATOM     13  C   UNL     1       9.733  -5.939  35.985  0.00  0.00    +0.113 C 
ATOM     14  C   UNL     1      10.040  -6.971  33.673  0.00  0.00    +0.130 C 
ATOM     15  C   UNL     1       7.354  -5.476  35.499  0.00  0.00    +0.117 C 
ATOM     16  C   UNL     1       7.606  -6.581  33.272  0.00  0.00    +0.027 A 
ATOM     17  C   UNL     1       6.440  -6.962  32.725  0.00  0.00    +0.022 A 
ATOM     18  C   UNL     1       8.664  -8.685  32.588  0.00  0.00    +0.259 A 
ATOM     19  C   UNL     1       8.051  -7.533  36.839  0.00  0.00    +0.250 C 
ATOM     20  C   UNL     1       7.332  -9.103  32.026  0.00  0.00    +0.047 A 
ATOM     21  C   UNL     1       6.304  -8.245  32.098  0.00  0.00    +0.015 A 
ENDROOT
BRANCH  19  22
ATOM      8  N   UNL     1       4.527  -7.969  38.042  0.00  0.00    -0.243 NA
ATOM      9  N   UNL     1       4.797  -9.186  35.980  0.00  0.00    -0.243 NA
ATOM     22  C   UNL     1       6.651  -7.965  36.910  0.00  0.00    +0.073 A 
ATOM     26  C   UNL     1       5.819  -7.590  37.945  0.00  0.00    +0.127 A 
ATOM     27  C   UNL     1       6.081  -8.772  35.947  0.00  0.00    +0.127 A 
ATOM     32  C   UNL     1       4.088  -8.755  37.040  0.00  0.00    +0.221 A 
ENDBRANCH  19  22
BRANCH  20  23
ATOM     23  C   UNL     1       7.143 -10.433  31.422  0.00  0.00    -0.012 A 
ATOM     24  C   UNL     1       7.708 -10.723  30.181  0.00  0.00    +0.021 A 
ATOM     25  C   UNL     1       6.395 -11.402  32.092  0.00  0.00    +0.009 A 
ATOM     28  C   UNL     1       7.528 -11.983  29.609  0.00  0.00    +0.055 A 
ATOM     29  C   UNL     1       6.215 -12.662  31.520  0.00  0.00    +0.001 A 
ATOM     30  C   UNL     1       6.782 -12.952  30.279  0.00  0.00    +0.012 A 
BRANCH  28  31
ATOM      1  F   UNL     1       7.993 -11.286  27.369  0.00  0.00    -0.166 F 
ATOM      2  F   UNL     1       7.581 -13.395  27.697  0.00  0.00    -0.166 F 
ATOM      3  F   UNL     1       9.475 -12.539  28.335  0.00  0.00    -0.166 F 
ATOM     31  C   UNL     1       8.132 -12.291  28.281  0.00  0.00    +0.417 C 
ENDBRANCH  28  31
ENDBRANCH  20  23
TORSDOF 3
ENDMDL
MODEL 10
REMARK VINA RESULT:      -6.8     25.556     28.369
REMARK  Name = 25388703
REMARK  3 active torsions:
REMARK  status: ('A' for Active; 'I' for Inactive)
REMARK    1  A    between atoms: C_19  and  C_22
REMARK    2  A    between atoms: C_20  and  C_23
REMARK    3  A    between atoms: C_28  and  C_31
REMARK                            x       y       z     vdW  Elec       q    Type
REMARK                         _______ _______ _______ _____ _____    ______ ____
ROOT
ATOM      4  O   UNL     1      -6.702  -9.987  14.206  0.00  0.00    -0.267 OA
ATOM      5  O   UNL     1      -4.745 -14.413  12.586  0.00  0.00    -0.270 OA
ATOM      6  N   UNL     1      -2.935 -13.078  13.230  0.00  0.00    -0.296 N 
ATOM      7  N   UNL     1      -4.438 -10.531  14.337  0.00  0.00    -0.311 N 
ATOM     10  C   UNL     1      -2.961 -10.790  12.259  0.00  0.00    +0.027 C 
ATOM     11  C   UNL     1      -2.004 -11.156  14.497  0.00  0.00    +0.054 C 
ATOM     12  C   UNL     1      -1.823 -10.387  13.190  0.00  0.00    +0.018 C 
ATOM     13  C   UNL     1      -2.923 -12.305  11.989  0.00  0.00    +0.113 C 
ATOM     14  C   UNL     1      -4.290 -10.349  12.885  0.00  0.00    +0.130 C 
ATOM     15  C   UNL     1      -1.924 -12.672  14.220  0.00  0.00    +0.117 C 
ATOM     16  C   UNL     1      -3.337 -10.829  15.143  0.00  0.00    +0.027 A 
ATOM     17  C   UNL     1      -3.469 -10.869  16.479  0.00  0.00    +0.022 A 
ATOM     18  C   UNL     1      -5.715 -10.287  14.880  0.00  0.00    +0.259 A 
ATOM     19  C   UNL     1      -3.899 -14.072  13.412  0.00  0.00    +0.250 C 
ATOM     20  C   UNL     1      -5.841 -10.386  16.376  0.00  0.00    +0.047 A 
ATOM     21  C   UNL     1      -4.743 -10.649  17.100  0.00  0.00    +0.015 A 
ENDROOT
BRANCH  19  22
ATOM      8  N   UNL     1      -4.777 -14.936  16.953  0.00  0.00    -0.243 NA
ATOM      9  N   UNL     1      -3.214 -16.571  16.122  0.00  0.00    -0.243 NA
ATOM     22  C   UNL     1      -3.939 -14.767  14.703  0.00  0.00    +0.073 A 
ATOM     26  C   UNL     1      -4.717 -14.322  15.752  0.00  0.00    +0.127 A 
ATOM     27  C   UNL     1      -3.201 -15.907  14.947  0.00  0.00    +0.127 A 
ATOM     32  C   UNL     1      -4.012 -16.038  17.067  0.00  0.00    +0.221 A 
ENDBRANCH  19  22
BRANCH  20  23
ATOM     23  C   UNL     1      -7.144 -10.217  17.044  0.00  0.00    -0.012 A 
ATOM     24  C   UNL     1      -7.597 -11.181  17.943  0.00  0.00    +0.021 A 
ATOM     25  C   UNL     1      -7.924  -9.093  16.774  0.00  0.00    +0.009 A 
ATOM     28  C   UNL     1      -8.830 -11.022  18.575  0.00  0.00    +0.055 A 
ATOM     29  C   UNL     1      -9.157  -8.933  17.406  0.00  0.00    +0.001 A 
ATOM     30  C   UNL     1      -9.610  -9.897  18.307  0.00  0.00    +0.012 A 
BRANCH  28  31
ATOM      1  F   UNL     1     -10.010 -13.069  18.945  0.00  0.00    -0.166 F 
ATOM      2  F   UNL     1     -10.153 -11.538  20.482  0.00  0.00    -0.166 F 
ATOM      3  F   UNL     1      -8.311 -12.667  20.232  0.00  0.00    -0.166 F 
ATOM     31  C   UNL     1      -9.314 -12.054  19.536  0.00  0.00    +0.417 C 
ENDBRANCH  28  31
ENDBRANCH  20  23
TORSDOF 3
ENDMDL
