MODEL 1
REMARK VINA RESULT:      -7.7      0.000      0.000
REMARK  Name = 51137486
REMARK  6 active torsions:
REMARK  status: ('A' for Active; 'I' for Inactive)
REMARK    1  A    between atoms: O_2  and  C_28
REMARK    2  A    between atoms: O_2  and  C_29
REMARK    3  A    between atoms: N_3  and  C_11
REMARK    4  A    between atoms: C_7  and  C_12
REMARK    5  A    between atoms: C_11  and  C_13
REMARK    6  A    between atoms: C_16  and  C_19
REMARK                            x       y       z     vdW  Elec       q    Type
REMARK                         _______ _______ _______ _____ _____    ______ ____
ROOT
ATOM      3  N   UNL     1      16.401   7.249  20.233  0.00  0.00    -0.297 NA
ATOM      7  C   UNL     1      18.697   6.893  20.544  0.00  0.00    +0.092 C 
ATOM      8  C   UNL     1      18.154   5.880  19.521  0.00  0.00    +0.029 C 
ATOM      9  C   UNL     1      17.448   7.457  21.235  0.00  0.00    +0.097 C 
ATOM     10  C   UNL     1      16.642   5.905  19.708  0.00  0.00    +0.085 C 
ENDROOT
BRANCH   7  12
ATOM      1  O   UNL     1      20.471   5.293  21.082  0.00  0.00    -0.420 OA
ATOM      4  N   UNL     1      19.972   6.697  22.751  0.00  0.00    -0.112 NA
ATOM      5  N   UNL     1      20.979   5.856  23.188  0.00  0.00    -0.107 NA
ATOM     12  C   UNL     1      19.707   6.332  21.518  0.00  0.00    +0.222 A 
ATOM     16  C   UNL     1      21.238   5.054  22.181  0.00  0.00    +0.248 A 
BRANCH  16  19
ATOM     19  C   UNL     1      22.188   3.985  22.063  0.00  0.00    +0.039 A 
ATOM     22  C   UNL     1      22.506   3.209  23.178  0.00  0.00    +0.017 A 
ATOM     23  C   UNL     1      22.792   3.723  20.834  0.00  0.00    +0.017 A 
ATOM     26  C   UNL     1      23.428   2.169  23.063  0.00  0.00    +0.046 A 
ATOM     27  C   UNL     1      23.715   2.683  20.719  0.00  0.00    +0.046 A 
ATOM     28  C   UNL     1      24.034   1.906  21.834  0.00  0.00    +0.120 A 
BRANCH  28   2
ATOM      2  O   UNL     1      24.932   0.890  21.721  0.00  0.00    -0.495 OA
ATOM     29  C   UNL     1      25.736   0.605  22.864  0.00  0.00    +0.277 C 
ENDBRANCH  28   2
ENDBRANCH  16  19
ENDBRANCH   7  12
BRANCH   3  11
ATOM     11  C   UNL     1      15.063   7.394  20.790  0.00  0.00    +0.121 C 
BRANCH  11  13
ATOM      6  N   UNL     1      11.765   7.535  18.977  0.00  0.00    -0.255 NA
ATOM     13  C   UNL     1      14.045   7.707  19.753  0.00  0.00    -0.015 A 
ATOM     14  C   UNL     1      14.374   8.436  18.619  0.00  0.00    +0.016 A 
ATOM     15  C   UNL     1      12.738   7.283  19.882  0.00  0.00    +0.116 A 
ATOM     17  C   UNL     1      13.397   8.718  17.654  0.00  0.00    +0.001 A 
ATOM     18  C   UNL     1      12.088   8.242  17.877  0.00  0.00    +0.071 A 
ATOM     20  C   UNL     1      13.697   9.453  16.496  0.00  0.00    +0.010 A 
ATOM     21  C   UNL     1      11.118   8.522  16.919  0.00  0.00    +0.028 A 
ATOM     24  C   UNL     1      12.707   9.719  15.554  0.00  0.00    +0.001 A 
ATOM     25  C   UNL     1      11.416   9.253  15.766  0.00  0.00    +0.002 A 
ENDBRANCH  11  13
ENDBRANCH   3  11
TORSDOF 5
ENDMDL
MODEL 2
REMARK VINA RESULT:      -7.5     30.202     34.329
REMARK  Name = 51137486
REMARK  6 active torsions:
REMARK  status: ('A' for Active; 'I' for Inactive)
REMARK    1  A    between atoms: O_2  and  C_28
REMARK    2  A    between atoms: O_2  and  C_29
REMARK    3  A    between atoms: N_3  and  C_11
REMARK    4  A    between atoms: C_7  and  C_12
REMARK    5  A    between atoms: C_11  and  C_13
REMARK    6  A    between atoms: C_16  and  C_19
REMARK                            x       y       z     vdW  Elec       q    Type
REMARK                         _______ _______ _______ _____ _____    ______ ____
ROOT
ATOM      3  N   UNL     1     -16.716   3.419  26.201  0.00  0.00    -0.297 NA
ATOM      7  C   UNL     1     -16.042   4.996  24.602  0.00  0.00    +0.092 C 
ATOM      8  C   UNL     1     -17.512   5.246  24.983  0.00  0.00    +0.029 C 
ATOM      9  C   UNL     1     -15.740   3.584  25.122  0.00  0.00    +0.097 C 
ATOM     10  C   UNL     1     -17.965   3.962  25.666  0.00  0.00    +0.085 C 
ENDROOT
BRANCH   7  12
ATOM      1  O   UNL     1     -14.696   5.986  22.812  0.00  0.00    -0.420 OA
ATOM      4  N   UNL     1     -16.313   4.622  22.088  0.00  0.00    -0.112 NA
ATOM      5  N   UNL     1     -15.638   5.107  20.983  0.00  0.00    -0.107 NA
ATOM     12  C   UNL     1     -15.730   5.162  23.132  0.00  0.00    +0.222 A 
ATOM     16  C   UNL     1     -14.703   5.899  21.454  0.00  0.00    +0.248 A 
BRANCH  16  19
ATOM     19  C   UNL     1     -13.705   6.671  20.770  0.00  0.00    +0.039 A 
ATOM     22  C   UNL     1     -14.079   7.548  19.753  0.00  0.00    +0.017 A 
ATOM     23  C   UNL     1     -12.362   6.543  21.124  0.00  0.00    +0.017 A 
ATOM     26  C   UNL     1     -13.109   8.299  19.088  0.00  0.00    +0.046 A 
ATOM     27  C   UNL     1     -11.392   7.295  20.460  0.00  0.00    +0.046 A 
ATOM     28  C   UNL     1     -11.765   8.172  19.442  0.00  0.00    +0.120 A 
BRANCH  28   2
ATOM      2  O   UNL     1     -10.819   8.907  18.796  0.00  0.00    -0.495 OA
ATOM     29  C   UNL     1     -10.681  10.273  19.185  0.00  0.00    +0.277 C 
ENDBRANCH  28   2
ENDBRANCH  16  19
ENDBRANCH   7  12
BRANCH   3  11
ATOM     11  C   UNL     1     -16.850   2.032  26.622  0.00  0.00    +0.121 C 
BRANCH  11  13
ATOM      6  N   UNL     1     -16.029   0.307  29.867  0.00  0.00    -0.255 NA
ATOM     13  C   UNL     1     -16.314   1.796  27.988  0.00  0.00    -0.015 A 
ATOM     14  C   UNL     1     -15.617   2.784  28.668  0.00  0.00    +0.016 A 
ATOM     15  C   UNL     1     -16.491   0.585  28.627  0.00  0.00    +0.116 A 
ATOM     17  C   UNL     1     -15.122   2.539  29.956  0.00  0.00    +0.001 A 
ATOM     18  C   UNL     1     -15.354   1.269  30.525  0.00  0.00    +0.071 A 
ATOM     20  C   UNL     1     -14.412   3.518  30.671  0.00  0.00    +0.010 A 
ATOM     21  C   UNL     1     -14.861   1.025  31.804  0.00  0.00    +0.028 A 
ATOM     24  C   UNL     1     -13.931   3.247  31.948  0.00  0.00    +0.001 A 
ATOM     25  C   UNL     1     -14.157   1.999  32.516  0.00  0.00    +0.002 A 
ENDBRANCH  11  13
ENDBRANCH   3  11
TORSDOF 5
ENDMDL
MODEL 3
REMARK VINA RESULT:      -7.2     30.697     33.985
REMARK  Name = 51137486
REMARK  6 active torsions:
REMARK  status: ('A' for Active; 'I' for Inactive)
REMARK    1  A    between atoms: O_2  and  C_28
REMARK    2  A    between atoms: O_2  and  C_29
REMARK    3  A    between atoms: N_3  and  C_11
REMARK    4  A    between atoms: C_7  and  C_12
REMARK    5  A    between atoms: C_11  and  C_13
REMARK    6  A    between atoms: C_16  and  C_19
REMARK                            x       y       z     vdW  Elec       q    Type
REMARK                         _______ _______ _______ _____ _____    ______ ____
ROOT
ATOM      3  N   UNL     1     -15.855   5.216  22.936  0.00  0.00    -0.297 NA
ATOM      7  C   UNL     1     -16.398   3.114  23.822  0.00  0.00    +0.092 C 
ATOM      8  C   UNL     1     -17.689   3.878  23.484  0.00  0.00    +0.029 C 
ATOM      9  C   UNL     1     -15.298   4.185  23.814  0.00  0.00    +0.097 C 
ATOM     10  C   UNL     1     -17.258   5.332  23.333  0.00  0.00    +0.085 C 
ENDROOT
BRANCH   7  12
ATOM      1  O   UNL     1     -16.051   2.977  26.242  0.00  0.00    -0.420 OA
ATOM      4  N   UNL     1     -16.813   1.086  25.321  0.00  0.00    -0.112 NA
ATOM      5  N   UNL     1     -16.664   0.869  26.679  0.00  0.00    -0.107 NA
ATOM     12  C   UNL     1     -16.444   2.328  25.112  0.00  0.00    +0.222 A 
ATOM     16  C   UNL     1     -16.217   1.999  27.175  0.00  0.00    +0.248 A 
BRANCH  16  19
ATOM     19  C   UNL     1     -15.884   2.356  28.524  0.00  0.00    +0.039 A 
ATOM     22  C   UNL     1     -15.705   1.361  29.485  0.00  0.00    +0.017 A 
ATOM     23  C   UNL     1     -15.739   3.699  28.874  0.00  0.00    +0.017 A 
ATOM     26  C   UNL     1     -15.380   1.708  30.796  0.00  0.00    +0.046 A 
ATOM     27  C   UNL     1     -15.414   4.046  30.186  0.00  0.00    +0.046 A 
ATOM     28  C   UNL     1     -15.235   3.051  31.147  0.00  0.00    +0.120 A 
BRANCH  28   2
ATOM      2  O   UNL     1     -14.915   3.390  32.426  0.00  0.00    -0.495 OA
ATOM     29  C   UNL     1     -14.894   2.338  33.390  0.00  0.00    +0.277 C 
ENDBRANCH  28   2
ENDBRANCH  16  19
ENDBRANCH   7  12
BRANCH   3  11
ATOM     11  C   UNL     1     -15.143   6.481  23.043  0.00  0.00    +0.121 C 
BRANCH  11  13
ATOM      6  N   UNL     1     -15.123   8.033  19.612  0.00  0.00    -0.255 NA
ATOM     13  C   UNL     1     -14.652   6.972  21.729  0.00  0.00    -0.015 A 
ATOM     14  C   UNL     1     -13.317   6.851  21.369  0.00  0.00    +0.016 A 
ATOM     15  C   UNL     1     -15.506   7.566  20.822  0.00  0.00    +0.116 A 
ATOM     17  C   UNL     1     -12.877   7.322  20.124  0.00  0.00    +0.001 A 
ATOM     18  C   UNL     1     -13.827   7.913  19.265  0.00  0.00    +0.071 A 
ATOM     20  C   UNL     1     -11.534   7.214  19.729  0.00  0.00    +0.010 A 
ATOM     21  C   UNL     1     -13.390   8.381  18.029  0.00  0.00    +0.028 A 
ATOM     24  C   UNL     1     -11.124   7.690  18.487  0.00  0.00    +0.001 A 
ATOM     25  C   UNL     1     -12.054   8.273  17.635  0.00  0.00    +0.002 A 
ENDBRANCH  11  13
ENDBRANCH   3  11
TORSDOF 5
ENDMDL
MODEL 4
REMARK VINA RESULT:      -7.2     27.637     29.754
REMARK  Name = 51137486
REMARK  6 active torsions:
REMARK  status: ('A' for Active; 'I' for Inactive)
REMARK    1  A    between atoms: O_2  and  C_28
REMARK    2  A    between atoms: O_2  and  C_29
REMARK    3  A    between atoms: N_3  and  C_11
REMARK    4  A    between atoms: C_7  and  C_12
REMARK    5  A    between atoms: C_11  and  C_13
REMARK    6  A    between atoms: C_16  and  C_19
REMARK                            x       y       z     vdW  Elec       q    Type
REMARK                         _______ _______ _______ _____ _____    ______ ____
ROOT
ATOM      3  N   UNL     1      -2.958 -10.369  10.840  0.00  0.00    -0.297 NA
ATOM      7  C   UNL     1      -2.453 -11.431  12.868  0.00  0.00    +0.092 C 
ATOM      8  C   UNL     1      -3.768 -11.997  12.305  0.00  0.00    +0.029 C 
ATOM      9  C   UNL     1      -2.219 -10.134  12.082  0.00  0.00    +0.097 C 
ATOM     10  C   UNL     1      -4.217 -10.984  11.261  0.00  0.00    +0.085 C 
ENDROOT
BRANCH   7  12
ATOM      1  O   UNL     1      -3.645 -11.241  14.998  0.00  0.00    -0.420 OA
ATOM      4  N   UNL     1      -1.426 -11.021  15.173  0.00  0.00    -0.112 NA
ATOM      5  N   UNL     1      -1.968 -10.893  16.438  0.00  0.00    -0.107 NA
ATOM     12  C   UNL     1      -2.440 -11.222  14.365  0.00  0.00    +0.222 A 
ATOM     16  C   UNL     1      -3.265 -11.029  16.288  0.00  0.00    +0.248 A 
BRANCH  16  19
ATOM     19  C   UNL     1      -4.323 -10.989  17.256  0.00  0.00    +0.039 A 
ATOM     22  C   UNL     1      -5.508 -10.313  16.966  0.00  0.00    +0.017 A 
ATOM     23  C   UNL     1      -4.167 -11.628  18.486  0.00  0.00    +0.017 A 
ATOM     26  C   UNL     1      -6.538 -10.275  17.907  0.00  0.00    +0.046 A 
ATOM     27  C   UNL     1      -5.197 -11.590  19.427  0.00  0.00    +0.046 A 
ATOM     28  C   UNL     1      -6.381 -10.913  19.138  0.00  0.00    +0.120 A 
BRANCH  28   2
ATOM      2  O   UNL     1      -7.387 -10.879  20.054  0.00  0.00    -0.495 OA
ATOM     29  C   UNL     1      -8.709 -11.121  19.577  0.00  0.00    +0.277 C 
ENDBRANCH  28   2
ENDBRANCH  16  19
ENDBRANCH   7  12
BRANCH   3  11
ATOM     11  C   UNL     1      -3.166  -9.147  10.077  0.00  0.00    +0.121 C 
BRANCH  11  13
ATOM      6  N   UNL     1      -6.662  -8.462   8.856  0.00  0.00    -0.255 NA
ATOM     13  C   UNL     1      -4.395  -9.197   9.243  0.00  0.00    -0.015 A 
ATOM     14  C   UNL     1      -4.459  -9.987   8.104  0.00  0.00    +0.016 A 
ATOM     15  C   UNL     1      -5.515  -8.460   9.572  0.00  0.00    +0.116 A 
ATOM     17  C   UNL     1      -5.630 -10.018   7.333  0.00  0.00    +0.001 A 
ATOM     18  C   UNL     1      -6.722  -9.230   7.752  0.00  0.00    +0.071 A 
ATOM     20  C   UNL     1      -5.727 -10.807   6.175  0.00  0.00    +0.010 A 
ATOM     21  C   UNL     1      -7.884  -9.261   6.986  0.00  0.00    +0.028 A 
ATOM     24  C   UNL     1      -6.901 -10.820   5.428  0.00  0.00    +0.001 A 
ATOM     25  C   UNL     1      -7.981 -10.046   5.834  0.00  0.00    +0.002 A 
ENDBRANCH  11  13
ENDBRANCH   3  11
TORSDOF 5
ENDMDL
MODEL 5
REMARK VINA RESULT:      -7.1      3.726     10.961
REMARK  Name = 51137486
REMARK  6 active torsions:
REMARK  status: ('A' for Active; 'I' for Inactive)
REMARK    1  A    between atoms: O_2  and  C_28
REMARK    2  A    between atoms: O_2  and  C_29
REMARK    3  A    between atoms: N_3  and  C_11
REMARK    4  A    between atoms: C_7  and  C_12
REMARK    5  A    between atoms: C_11  and  C_13
REMARK    6  A    between atoms: C_16  and  C_19
REMARK                            x       y       z     vdW  Elec       q    Type
REMARK                         _______ _______ _______ _____ _____    ______ ____
ROOT
ATOM      3  N   UNL     1      18.343   6.208  20.920  0.00  0.00    -0.297 NA
ATOM      7  C   UNL     1      16.048   6.173  20.443  0.00  0.00    +0.092 C 
ATOM      8  C   UNL     1      16.843   5.843  19.168  0.00  0.00    +0.029 C 
ATOM      9  C   UNL     1      17.084   6.777  21.402  0.00  0.00    +0.097 C 
ATOM     10  C   UNL     1      18.266   6.301  19.461  0.00  0.00    +0.085 C 
ENDROOT
BRANCH   7  12
ATOM      1  O   UNL     1      14.367   7.720  21.324  0.00  0.00    -0.420 OA
ATOM      4  N   UNL     1      14.183   7.326  19.129  0.00  0.00    -0.112 NA
ATOM      5  N   UNL     1      13.181   8.207  19.490  0.00  0.00    -0.107 NA
ATOM     12  C   UNL     1      14.850   7.069  20.230  0.00  0.00    +0.222 A 
ATOM     16  C   UNL     1      13.327   8.408  20.779  0.00  0.00    +0.248 A 
BRANCH  16  19
ATOM     19  C   UNL     1      12.573   9.227  21.685  0.00  0.00    +0.039 A 
ATOM     22  C   UNL     1      11.243   8.916  21.964  0.00  0.00    +0.017 A 
ATOM     23  C   UNL     1      13.172  10.335  22.285  0.00  0.00    +0.017 A 
ATOM     26  C   UNL     1      10.511   9.711  22.845  0.00  0.00    +0.046 A 
ATOM     27  C   UNL     1      12.440  11.131  23.167  0.00  0.00    +0.046 A 
ATOM     28  C   UNL     1      11.109  10.819  23.446  0.00  0.00    +0.120 A 
BRANCH  28   2
ATOM      2  O   UNL     1      10.396  11.594  24.308  0.00  0.00    -0.495 OA
ATOM     29  C   UNL     1      10.459  13.007  24.116  0.00  0.00    +0.277 C 
ENDBRANCH  28   2
ENDBRANCH  16  19
ENDBRANCH   7  12
BRANCH   3  11
ATOM     11  C   UNL     1      19.507   6.899  21.458  0.00  0.00    +0.121 C 
BRANCH  11  13
ATOM      6  N   UNL     1      23.038   6.338  20.275  0.00  0.00    -0.255 NA
ATOM     13  C   UNL     1      20.783   6.211  21.126  0.00  0.00    -0.015 A 
ATOM     14  C   UNL     1      20.941   4.849  21.337  0.00  0.00    +0.016 A 
ATOM     15  C   UNL     1      21.853   6.904  20.597  0.00  0.00    +0.116 A 
ATOM     17  C   UNL     1      22.153   4.222  21.016  0.00  0.00    +0.001 A 
ATOM     18  C   UNL     1      23.189   5.016  20.480  0.00  0.00    +0.071 A 
ATOM     20  C   UNL     1      22.346   2.846  21.218  0.00  0.00    +0.010 A 
ATOM     21  C   UNL     1      24.392   4.393  20.162  0.00  0.00    +0.028 A 
ATOM     24  C   UNL     1      23.560   2.249  20.890  0.00  0.00    +0.001 A 
ATOM     25  C   UNL     1      24.584   3.024  20.361  0.00  0.00    +0.002 A 
ENDBRANCH  11  13
ENDBRANCH   3  11
TORSDOF 5
ENDMDL
MODEL 6
REMARK VINA RESULT:      -7.1     27.187     31.204
REMARK  Name = 51137486
REMARK  6 active torsions:
REMARK  status: ('A' for Active; 'I' for Inactive)
REMARK    1  A    between atoms: O_2  and  C_28
REMARK    2  A    between atoms: O_2  and  C_29
REMARK    3  A    between atoms: N_3  and  C_11
REMARK    4  A    between atoms: C_7  and  C_12
REMARK    5  A    between atoms: C_11  and  C_13
REMARK    6  A    between atoms: C_16  and  C_19
REMARK                            x       y       z     vdW  Elec       q    Type
REMARK                         _______ _______ _______ _____ _____    ______ ____
ROOT
ATOM      3  N   UNL     1      -4.683 -11.729  16.865  0.00  0.00    -0.297 NA
ATOM      7  C   UNL     1      -6.258 -10.480  18.072  0.00  0.00    +0.092 C 
ATOM      8  C   UNL     1      -5.663 -11.571  18.979  0.00  0.00    +0.029 C 
ATOM      9  C   UNL     1      -5.874 -10.906  16.648  0.00  0.00    +0.097 C 
ATOM     10  C   UNL     1      -5.005 -12.560  18.025  0.00  0.00    +0.085 C 
ENDROOT
BRANCH   7  12
ATOM      1  O   UNL     1      -8.323  -9.336  17.420  0.00  0.00    -0.420 OA
ATOM      4  N   UNL     1      -8.586 -10.824  19.069  0.00  0.00    -0.112 NA
ATOM      5  N   UNL     1      -9.819 -10.257  18.805  0.00  0.00    -0.107 NA
ATOM     12  C   UNL     1      -7.744 -10.256  18.239  0.00  0.00    +0.222 A 
ATOM     16  C   UNL     1      -9.617  -9.395  17.836  0.00  0.00    +0.248 A 
BRANCH  16  19
ATOM     19  C   UNL     1     -10.534  -8.523  17.160  0.00  0.00    +0.039 A 
ATOM     22  C   UNL     1     -10.082  -7.318  16.622  0.00  0.00    +0.017 A 
ATOM     23  C   UNL     1     -11.877  -8.880  17.041  0.00  0.00    +0.017 A 
ATOM     26  C   UNL     1     -10.973  -6.470  15.964  0.00  0.00    +0.046 A 
ATOM     27  C   UNL     1     -12.769  -8.032  16.382  0.00  0.00    +0.046 A 
ATOM     28  C   UNL     1     -12.317  -6.827  15.845  0.00  0.00    +0.120 A 
BRANCH  28   2
ATOM      2  O   UNL     1     -13.186  -6.002  15.200  0.00  0.00    -0.495 OA
ATOM     29  C   UNL     1     -12.703  -5.332  14.037  0.00  0.00    +0.277 C 
ENDBRANCH  28   2
ENDBRANCH  16  19
ENDBRANCH   7  12
BRANCH   3  11
ATOM     11  C   UNL     1      -4.335 -12.522  15.695  0.00  0.00    +0.121 C 
BRANCH  11  13
ATOM      6  N   UNL     1      -1.513 -10.667  14.027  0.00  0.00    -0.255 NA
ATOM     13  C   UNL     1      -3.572 -11.744  14.684  0.00  0.00    -0.015 A 
ATOM     14  C   UNL     1      -4.153 -11.363  13.483  0.00  0.00    +0.016 A 
ATOM     15  C   UNL     1      -2.261 -11.374  14.905  0.00  0.00    +0.116 A 
ATOM     17  C   UNL     1      -3.414 -10.628  12.545  0.00  0.00    +0.001 A 
ATOM     18  C   UNL     1      -2.080 -10.298  12.863  0.00  0.00    +0.071 A 
ATOM     20  C   UNL     1      -3.971 -10.227  11.320  0.00  0.00    +0.010 A 
ATOM     21  C   UNL     1      -1.346  -9.569  11.931  0.00  0.00    +0.028 A 
ATOM     24  C   UNL     1      -3.215  -9.499  10.406  0.00  0.00    +0.001 A 
ATOM     25  C   UNL     1      -1.900  -9.169  10.713  0.00  0.00    +0.002 A 
ENDBRANCH  11  13
ENDBRANCH   3  11
TORSDOF 5
ENDMDL
MODEL 7
REMARK VINA RESULT:      -7.1      2.598      3.167
REMARK  Name = 51137486
REMARK  6 active torsions:
REMARK  status: ('A' for Active; 'I' for Inactive)
REMARK    1  A    between atoms: O_2  and  C_28
REMARK    2  A    between atoms: O_2  and  C_29
REMARK    3  A    between atoms: N_3  and  C_11
REMARK    4  A    between atoms: C_7  and  C_12
REMARK    5  A    between atoms: C_11  and  C_13
REMARK    6  A    between atoms: C_16  and  C_19
REMARK                            x       y       z     vdW  Elec       q    Type
REMARK                         _______ _______ _______ _____ _____    ______ ____
ROOT
ATOM      3  N   UNL     1      17.655   8.025  21.583  0.00  0.00    -0.297 NA
ATOM      7  C   UNL     1      19.441   6.607  22.130  0.00  0.00    +0.092 C 
ATOM      8  C   UNL     1      19.739   8.029  22.637  0.00  0.00    +0.029 C 
ATOM      9  C   UNL     1      18.288   6.783  21.132  0.00  0.00    +0.097 C 
ATOM     10  C   UNL     1      18.767   8.928  21.883  0.00  0.00    +0.085 C 
ENDROOT
BRANCH   7  12
ATOM      1  O   UNL     1      21.111   4.821  22.238  0.00  0.00    -0.420 OA
ATOM      4  N   UNL     1      21.282   6.121  20.425  0.00  0.00    -0.112 NA
ATOM      5  N   UNL     1      22.277   5.163  20.359  0.00  0.00    -0.107 NA
ATOM     12  C   UNL     1      20.627   5.883  21.537  0.00  0.00    +0.222 A 
ATOM     16  C   UNL     1      22.139   4.427  21.437  0.00  0.00    +0.248 A 
BRANCH  16  19
ATOM     19  C   UNL     1      22.890   3.292  21.892  0.00  0.00    +0.039 A 
ATOM     22  C   UNL     1      22.922   2.976  23.250  0.00  0.00    +0.017 A 
ATOM     23  C   UNL     1      23.587   2.506  20.975  0.00  0.00    +0.017 A 
ATOM     26  C   UNL     1      23.651   1.872  23.692  0.00  0.00    +0.046 A 
ATOM     27  C   UNL     1      24.317   1.401  21.417  0.00  0.00    +0.046 A 
ATOM     28  C   UNL     1      24.350   1.085  22.775  0.00  0.00    +0.120 A 
BRANCH  28   2
ATOM      2  O   UNL     1      25.059   0.007  23.206  0.00  0.00    -0.495 OA
ATOM     29  C   UNL     1      25.108  -0.218  24.614  0.00  0.00    +0.277 C 
ENDBRANCH  28   2
ENDBRANCH  16  19
ENDBRANCH   7  12
BRANCH   3  11
ATOM     11  C   UNL     1      16.746   8.577  20.588  0.00  0.00    +0.121 C 
BRANCH  11  13
ATOM      6  N   UNL     1      13.626   6.472  20.465  0.00  0.00    -0.255 NA
ATOM     13  C   UNL     1      15.341   8.139  20.795  0.00  0.00    -0.015 A 
ATOM     14  C   UNL     1      14.434   8.934  21.481  0.00  0.00    +0.016 A 
ATOM     15  C   UNL     1      14.890   6.928  20.311  0.00  0.00    +0.116 A 
ATOM     17  C   UNL     1      13.113   8.500  21.663  0.00  0.00    +0.001 A 
ATOM     18  C   UNL     1      12.747   7.245  21.131  0.00  0.00    +0.071 A 
ATOM     20  C   UNL     1      12.170   9.279  22.353  0.00  0.00    +0.010 A 
ATOM     21  C   UNL     1      11.436   6.815  21.312  0.00  0.00    +0.028 A 
ATOM     24  C   UNL     1      10.865   8.824  22.519  0.00  0.00    +0.001 A 
ATOM     25  C   UNL     1      10.498   7.590  21.997  0.00  0.00    +0.002 A 
ENDBRANCH  11  13
ENDBRANCH   3  11
TORSDOF 5
ENDMDL
MODEL 8
REMARK VINA RESULT:      -7.1     27.155     30.362
REMARK  Name = 51137486
REMARK  6 active torsions:
REMARK  status: ('A' for Active; 'I' for Inactive)
REMARK    1  A    between atoms: O_2  and  C_28
REMARK    2  A    between atoms: O_2  and  C_29
REMARK    3  A    between atoms: N_3  and  C_11
REMARK    4  A    between atoms: C_7  and  C_12
REMARK    5  A    between atoms: C_11  and  C_13
REMARK    6  A    between atoms: C_16  and  C_19
REMARK                            x       y       z     vdW  Elec       q    Type
REMARK                         _______ _______ _______ _____ _____    ______ ____
ROOT
ATOM      3  N   UNL     1      -2.183 -10.994  14.012  0.00  0.00    -0.297 NA
ATOM      7  C   UNL     1      -3.267 -10.250  15.954  0.00  0.00    +0.092 C 
ATOM      8  C   UNL     1      -1.828 -10.671  16.298  0.00  0.00    +0.029 C 
ATOM      9  C   UNL     1      -3.531 -10.858  14.569  0.00  0.00    +0.097 C 
ATOM     10  C   UNL     1      -1.370 -11.512  15.113  0.00  0.00    +0.085 C 
ENDROOT
BRANCH   7  12
ATOM      1  O   UNL     1      -5.547 -10.103  16.833  0.00  0.00    -0.420 OA
ATOM      4  N   UNL     1      -4.200 -11.446  18.010  0.00  0.00    -0.112 NA
ATOM      5  N   UNL     1      -5.445 -11.456  18.613  0.00  0.00    -0.107 NA
ATOM     12  C   UNL     1      -4.307 -10.644  16.977  0.00  0.00    +0.222 A 
ATOM     16  C   UNL     1      -6.198 -10.659  17.892  0.00  0.00    +0.248 A 
BRANCH  16  19
ATOM     19  C   UNL     1      -7.577 -10.291  18.045  0.00  0.00    +0.039 A 
ATOM     22  C   UNL     1      -8.109  -9.250  17.283  0.00  0.00    +0.017 A 
ATOM     23  C   UNL     1      -8.383 -10.973  18.955  0.00  0.00    +0.017 A 
ATOM     26  C   UNL     1      -9.449  -8.893  17.431  0.00  0.00    +0.046 A 
ATOM     27  C   UNL     1      -9.724 -10.616  19.103  0.00  0.00    +0.046 A 
ATOM     28  C   UNL     1     -10.257  -9.576  18.342  0.00  0.00    +0.120 A 
BRANCH  28   2
ATOM      2  O   UNL     1     -11.565  -9.229  18.484  0.00  0.00    -0.495 OA
ATOM     29  C   UNL     1     -12.311  -9.005  17.289  0.00  0.00    +0.277 C 
ENDBRANCH  28   2
ENDBRANCH  16  19
ENDBRANCH   7  12
BRANCH   3  11
ATOM     11  C   UNL     1      -2.150 -11.861  12.843  0.00  0.00    +0.121 C 
BRANCH  11  13
ATOM      6  N   UNL     1      -3.092  -9.358  10.191  0.00  0.00    -0.255 NA
ATOM     13  C   UNL     1      -2.818 -11.252  11.662  0.00  0.00    -0.015 A 
ATOM     14  C   UNL     1      -3.764 -11.955  10.930  0.00  0.00    +0.016 A 
ATOM     15  C   UNL     1      -2.521  -9.968  11.255  0.00  0.00    +0.116 A 
ATOM     17  C   UNL     1      -4.381 -11.361   9.821  0.00  0.00    +0.001 A 
ATOM     18  C   UNL     1      -4.010 -10.043   9.483  0.00  0.00    +0.071 A 
ATOM     20  C   UNL     1      -5.342 -12.045   9.059  0.00  0.00    +0.010 A 
ATOM     21  C   UNL     1      -4.623  -9.452   8.381  0.00  0.00    +0.028 A 
ATOM     24  C   UNL     1      -5.939 -11.431   7.962  0.00  0.00    +0.001 A 
ATOM     25  C   UNL     1      -5.580 -10.132   7.623  0.00  0.00    +0.002 A 
ENDBRANCH  11  13
ENDBRANCH   3  11
TORSDOF 5
ENDMDL
MODEL 9
REMARK VINA RESULT:      -7.0     27.939     30.198
REMARK  Name = 51137486
REMARK  6 active torsions:
REMARK  status: ('A' for Active; 'I' for Inactive)
REMARK    1  A    between atoms: O_2  and  C_28
REMARK    2  A    between atoms: O_2  and  C_29
REMARK    3  A    between atoms: N_3  and  C_11
REMARK    4  A    between atoms: C_7  and  C_12
REMARK    5  A    between atoms: C_11  and  C_13
REMARK    6  A    between atoms: C_16  and  C_19
REMARK                            x       y       z     vdW  Elec       q    Type
REMARK                         _______ _______ _______ _____ _____    ______ ____
ROOT
ATOM      3  N   UNL     1      -4.610 -10.917  10.601  0.00  0.00    -0.297 NA
ATOM      7  C   UNL     1      -3.124 -10.438  12.350  0.00  0.00    +0.092 C 
ATOM      8  C   UNL     1      -2.642 -11.688  11.593  0.00  0.00    +0.029 C 
ATOM      9  C   UNL     1      -4.581 -10.252  11.905  0.00  0.00    +0.097 C 
ATOM     10  C   UNL     1      -3.850 -12.153  10.790  0.00  0.00    +0.085 C 
ENDROOT
BRANCH   7  12
ATOM      1  O   UNL     1      -4.117 -10.559  14.585  0.00  0.00    -0.420 OA
ATOM      4  N   UNL     1      -1.880 -10.526  14.581  0.00  0.00    -0.112 NA
ATOM      5  N   UNL     1      -2.303 -10.594  15.895  0.00  0.00    -0.107 NA
ATOM     12  C   UNL     1      -2.971 -10.507  13.852  0.00  0.00    +0.222 A 
ATOM     16  C   UNL     1      -3.615 -10.612  15.849  0.00  0.00    +0.248 A 
BRANCH  16  19
ATOM     19  C   UNL     1      -4.583 -10.677  16.906  0.00  0.00    +0.039 A 
ATOM     22  C   UNL     1      -4.282 -11.354  18.087  0.00  0.00    +0.017 A 
ATOM     23  C   UNL     1      -5.825 -10.061  16.752  0.00  0.00    +0.017 A 
ATOM     26  C   UNL     1      -5.222 -11.417  19.115  0.00  0.00    +0.046 A 
ATOM     27  C   UNL     1      -6.767 -10.124  17.780  0.00  0.00    +0.046 A 
ATOM     28  C   UNL     1      -6.465 -10.801  18.961  0.00  0.00    +0.120 A 
BRANCH  28   2
ATOM      2  O   UNL     1      -7.382 -10.860  19.965  0.00  0.00    -0.495 OA
ATOM     29  C   UNL     1      -8.652 -11.430  19.652  0.00  0.00    +0.277 C 
ENDBRANCH  28   2
ENDBRANCH  16  19
ENDBRANCH   7  12
BRANCH   3  11
ATOM     11  C   UNL     1      -5.967 -11.167  10.135  0.00  0.00    +0.121 C 
BRANCH  11  13
ATOM      6  N   UNL     1      -5.713 -10.224   6.498  0.00  0.00    -0.255 NA
ATOM     13  C   UNL     1      -6.254 -10.509   8.834  0.00  0.00    -0.015 A 
ATOM     14  C   UNL     1      -7.286  -9.591   8.705  0.00  0.00    +0.016 A 
ATOM     15  C   UNL     1      -5.504 -10.788   7.709  0.00  0.00    +0.116 A 
ATOM     17  C   UNL     1      -7.538  -8.982   7.467  0.00  0.00    +0.001 A 
ATOM     18  C   UNL     1      -6.716  -9.333   6.376  0.00  0.00    +0.071 A 
ATOM     20  C   UNL     1      -8.575  -8.049   7.303  0.00  0.00    +0.010 A 
ATOM     21  C   UNL     1      -6.966  -8.728   5.147  0.00  0.00    +0.028 A 
ATOM     24  C   UNL     1      -8.803  -7.460   6.063  0.00  0.00    +0.001 A 
ATOM     25  C   UNL     1      -7.997  -7.800   4.984  0.00  0.00    +0.002 A 
ENDBRANCH  11  13
ENDBRANCH   3  11
TORSDOF 5
ENDMDL
MODEL 10
REMARK VINA RESULT:      -7.0     27.683     30.205
REMARK  Name = 51137486
REMARK  6 active torsions:
REMARK  status: ('A' for Active; 'I' for Inactive)
REMARK    1  A    between atoms: O_2  and  C_28
REMARK    2  A    between atoms: O_2  and  C_29
REMARK    3  A    between atoms: N_3  and  C_11
REMARK    4  A    between atoms: C_7  and  C_12
REMARK    5  A    between atoms: C_11  and  C_13
REMARK    6  A    between atoms: C_16  and  C_19
REMARK                            x       y       z     vdW  Elec       q    Type
REMARK                         _______ _______ _______ _____ _____    ______ ____
ROOT
ATOM      3  N   UNL     1      -4.105 -11.023  10.574  0.00  0.00    -0.297 NA
ATOM      7  C   UNL     1      -2.590 -10.933  12.361  0.00  0.00    +0.092 C 
ATOM      8  C   UNL     1      -2.800 -12.398  11.938  0.00  0.00    +0.029 C 
ATOM      9  C   UNL     1      -3.751 -10.170  11.710  0.00  0.00    +0.097 C 
ATOM     10  C   UNL     1      -4.074 -12.387  11.103  0.00  0.00    +0.085 C 
ENDROOT
BRANCH   7  12
ATOM      1  O   UNL     1      -3.633 -10.924  14.576  0.00  0.00    -0.420 OA
ATOM      4  N   UNL     1      -1.476 -10.331  14.581  0.00  0.00    -0.112 NA
ATOM      5  N   UNL     1      -1.935 -10.282  15.884  0.00  0.00    -0.107 NA
ATOM     12  C   UNL     1      -2.500 -10.709  13.852  0.00  0.00    +0.222 A 
ATOM     16  C   UNL     1      -3.198 -10.636  15.833  0.00  0.00    +0.248 A 
BRANCH  16  19
ATOM     19  C   UNL     1      -4.172 -10.765  16.878  0.00  0.00    +0.039 A 
ATOM     22  C   UNL     1      -3.867 -11.488  18.031  0.00  0.00    +0.017 A 
ATOM     23  C   UNL     1      -5.424 -10.166  16.741  0.00  0.00    +0.017 A 
ATOM     26  C   UNL     1      -4.813 -11.612  19.048  0.00  0.00    +0.046 A 
ATOM     27  C   UNL     1      -6.372 -10.290  17.759  0.00  0.00    +0.046 A 
ATOM     28  C   UNL     1      -6.066 -11.013  18.912  0.00  0.00    +0.120 A 
BRANCH  28   2
ATOM      2  O   UNL     1      -6.989 -11.131  19.905  0.00  0.00    -0.495 OA
ATOM     29  C   UNL     1      -8.033 -12.085  19.711  0.00  0.00    +0.277 C 
ENDBRANCH  28   2
ENDBRANCH  16  19
ENDBRANCH   7  12
BRANCH   3  11
ATOM     11  C   UNL     1      -5.401 -10.680  10.004  0.00  0.00    +0.121 C 
BRANCH  11  13
ATOM      6  N   UNL     1      -6.613 -10.609   6.439  0.00  0.00    -0.255 NA
ATOM     13  C   UNL     1      -5.459 -10.917   8.538  0.00  0.00    -0.015 A 
ATOM     14  C   UNL     1      -4.468 -11.637   7.886  0.00  0.00    +0.016 A 
ATOM     15  C   UNL     1      -6.501 -10.429   7.775  0.00  0.00    +0.116 A 
ATOM     17  C   UNL     1      -4.545 -11.848   6.502  0.00  0.00    +0.001 A 
ATOM     18  C   UNL     1      -5.650 -11.309   5.809  0.00  0.00    +0.071 A 
ATOM     20  C   UNL     1      -3.559 -12.572   5.812  0.00  0.00    +0.010 A 
ATOM     21  C   UNL     1      -5.726 -11.519   4.435  0.00  0.00    +0.028 A 
ATOM     24  C   UNL     1      -3.661 -12.766   4.437  0.00  0.00    +0.001 A 
ATOM     25  C   UNL     1      -4.746 -12.239   3.748  0.00  0.00    +0.002 A 
ENDBRANCH  11  13
ENDBRANCH   3  11
TORSDOF 5
ENDMDL
