MODEL 1
REMARK VINA RESULT:      -6.1      0.000      0.000
REMARK  Name = 45783997
REMARK  14 active torsions:
REMARK  status: ('A' for Active; 'I' for Inactive)
REMARK    1  A    between atoms: O_2  and  C_25
REMARK    2  A    between atoms: N_3  and  C_12
REMARK    3  A    between atoms: N_4  and  C_24
REMARK    4  A    between atoms: C_7  and  C_11
REMARK    5  A    between atoms: C_8  and  C_12
REMARK    6  A    between atoms: C_10  and  C_15
REMARK    7  A    between atoms: C_11  and  C_18
REMARK    8  A    between atoms: C_11  and  C_19
REMARK    9  A    between atoms: C_14  and  C_22
REMARK   10  A    between atoms: C_15  and  C_23
REMARK   11  A    between atoms: C_24  and  C_25
REMARK   12  A    between atoms: C_26  and  C_27
REMARK   13  A    between atoms: C_27  and  C_28
REMARK   14  A    between atoms: C_28  and  C_29
REMARK                            x       y       z     vdW  Elec       q    Type
REMARK                         _______ _______ _______ _____ _____    ______ ____
ROOT
ATOM      7  C   UNL     1      -4.882 -12.036  15.252  0.00  0.00    +0.000 C 
ATOM      8  C   UNL     1      -4.618 -11.135  16.481  0.00  0.00    +0.029 C 
ATOM      9  C   UNL     1      -4.219 -11.447  13.999  0.00  0.00    +0.012 C 
ATOM     10  C   UNL     1      -2.699 -11.227  14.159  0.00  0.00    +0.024 C 
ATOM     13  C   UNL     1      -3.189 -10.663  16.556  0.00  0.00    -0.023 C 
ATOM     14  C   UNL     1      -2.313 -10.707  15.535  0.00  0.00    -0.073 C 
ATOM     22  C   UNL     1      -0.883 -10.290  15.744  0.00  0.00    +0.039 C 
ENDROOT
BRANCH   7  11
ATOM     11  C   UNL     1      -4.412 -13.476  15.504  0.00  0.00    -0.013 C 
ATOM     18  C   UNL     1      -4.695 -14.348  14.284  0.00  0.00    +0.007 C 
ATOM     19  C   UNL     1      -5.089 -14.047  16.746  0.00  0.00    +0.007 C 
ENDBRANCH   7  11
BRANCH   8  12
ATOM     12  C   UNL     1      -5.551  -9.920  16.502  0.00  0.00    +0.092 C 
BRANCH  12   3
ATOM      3  N   UNL     1      -6.635 -10.119  17.461  0.00  0.00    -0.299 NA
ATOM      4  N   UNL     1      -8.547 -11.757  18.884  0.00  0.00    -0.298 NA
ATOM     16  C   UNL     1      -7.832 -10.646  16.795  0.00  0.00    +0.100 C 
ATOM     17  C   UNL     1      -6.214 -11.015  18.545  0.00  0.00    +0.100 C 
ATOM     20  C   UNL     1      -8.969 -10.859  17.802  0.00  0.00    +0.100 C 
ATOM     21  C   UNL     1      -7.351 -11.227  19.550  0.00  0.00    +0.100 C 
BRANCH   4  24
ATOM     24  C   UNL     1      -9.631 -11.958  19.844  0.00  0.00    +0.112 C 
BRANCH  24  25
ATOM     25  C   UNL     1     -10.591 -10.780  19.824  0.00  0.00    +0.171 C 
BRANCH  25   2
ATOM      2  O   UNL     1     -10.297  -9.933  20.927  0.00  0.00    -0.394 OA
ATOM     30  H   UNL     1      -9.379 -10.114  21.189  0.00  0.00    +0.209 HD
ENDBRANCH  25   2
ENDBRANCH  24  25
ENDBRANCH   4  24
ENDBRANCH  12   3
ENDBRANCH   8  12
BRANCH  10  15
ATOM     15  C   UNL     1      -2.214 -10.321  13.020  0.00  0.00    +0.105 C 
BRANCH  15  23
ATOM      1  O   UNL     1      -3.428  -9.671  11.005  0.00  0.00    -0.425 OA
ATOM      5  N   UNL     1      -2.974 -11.858  11.135  0.00  0.00    -0.112 NA
ATOM      6  N   UNL     1      -3.657 -11.632   9.954  0.00  0.00    -0.112 NA
ATOM     23  C   UNL     1      -2.863 -10.685  11.715  0.00  0.00    +0.218 A 
ATOM     26  C   UNL     1      -3.901 -10.343   9.920  0.00  0.00    +0.217 A 
BRANCH  26  27
ATOM     27  C   UNL     1      -4.594  -9.549   8.899  0.00  0.00    +0.097 C 
BRANCH  27  28
ATOM     28  C   UNL     1      -5.322  -8.318   9.481  0.00  0.00    +0.006 C 
ATOM     29  C   UNL     1      -6.834  -8.413   9.349  0.00  0.00    +0.004 C 
ENDBRANCH  27  28
ENDBRANCH  26  27
ENDBRANCH  15  23
ENDBRANCH  10  15
TORSDOF 10
ENDMDL
MODEL 2
REMARK VINA RESULT:      -6.0     21.588     26.516
REMARK  Name = 45783997
REMARK  14 active torsions:
REMARK  status: ('A' for Active; 'I' for Inactive)
REMARK    1  A    between atoms: O_2  and  C_25
REMARK    2  A    between atoms: N_3  and  C_12
REMARK    3  A    between atoms: N_4  and  C_24
REMARK    4  A    between atoms: C_7  and  C_11
REMARK    5  A    between atoms: C_8  and  C_12
REMARK    6  A    between atoms: C_10  and  C_15
REMARK    7  A    between atoms: C_11  and  C_18
REMARK    8  A    between atoms: C_11  and  C_19
REMARK    9  A    between atoms: C_14  and  C_22
REMARK   10  A    between atoms: C_15  and  C_23
REMARK   11  A    between atoms: C_24  and  C_25
REMARK   12  A    between atoms: C_26  and  C_27
REMARK   13  A    between atoms: C_27  and  C_28
REMARK   14  A    between atoms: C_28  and  C_29
REMARK                            x       y       z     vdW  Elec       q    Type
REMARK                         _______ _______ _______ _____ _____    ______ ____
ROOT
ATOM      7  C   UNL     1     -14.640   5.402  32.947  0.00  0.00    +0.000 C 
ATOM      8  C   UNL     1     -15.740   5.692  31.901  0.00  0.00    +0.029 C 
ATOM      9  C   UNL     1     -13.402   6.270  32.683  0.00  0.00    +0.012 C 
ATOM     10  C   UNL     1     -13.710   7.783  32.666  0.00  0.00    +0.024 C 
ATOM     13  C   UNL     1     -15.916   7.166  31.639  0.00  0.00    -0.023 C 
ATOM     14  C   UNL     1     -15.028   8.116  31.983  0.00  0.00    -0.073 C 
ATOM     22  C   UNL     1     -15.342   9.569  31.752  0.00  0.00    +0.039 C 
ENDROOT
BRANCH   7  11
ATOM     11  C   UNL     1     -15.163   5.601  34.377  0.00  0.00    -0.013 C 
ATOM     18  C   UNL     1     -14.286   4.848  35.373  0.00  0.00    +0.007 C 
ATOM     19  C   UNL     1     -16.614   5.144  34.482  0.00  0.00    +0.007 C 
ENDBRANCH   7  11
BRANCH   8  12
ATOM     12  C   UNL     1     -15.463   4.975  30.575  0.00  0.00    +0.092 C 
BRANCH  12   3
ATOM      3  N   UNL     1     -15.268   3.543  30.794  0.00  0.00    -0.299 NA
ATOM      4  N   UNL     1     -14.530   0.883  29.934  0.00  0.00    -0.298 NA
ATOM     16  C   UNL     1     -16.142   2.756  29.917  0.00  0.00    +0.100 C 
ATOM     17  C   UNL     1     -13.863   3.171  30.586  0.00  0.00    +0.100 C 
ATOM     20  C   UNL     1     -15.935   1.254  30.143  0.00  0.00    +0.100 C 
ATOM     21  C   UNL     1     -13.657   1.670  30.813  0.00  0.00    +0.100 C 
BRANCH   4  24
ATOM     24  C   UNL     1     -14.333  -0.549  30.151  0.00  0.00    +0.112 C 
BRANCH  24  25
ATOM     25  C   UNL     1     -13.386  -1.125  29.111  0.00  0.00    +0.171 C 
BRANCH  25   2
ATOM      2  O   UNL     1     -12.165  -1.474  29.748  0.00  0.00    -0.394 OA
ATOM     30  H   UNL     1     -12.167  -1.045  30.621  0.00  0.00    +0.209 HD
ENDBRANCH  25   2
ENDBRANCH  24  25
ENDBRANCH   4  24
ENDBRANCH  12   3
ENDBRANCH   8  12
BRANCH  10  15
ATOM     15  C   UNL     1     -12.514   8.518  32.047  0.00  0.00    +0.105 C 
BRANCH  15  23
ATOM      1  O   UNL     1     -11.933   8.822  34.398  0.00  0.00    -0.425 OA
ATOM      5  N   UNL     1     -10.597   9.917  32.975  0.00  0.00    -0.112 NA
ATOM      6  N   UNL     1     -10.157  10.175  34.260  0.00  0.00    -0.112 NA
ATOM     23  C   UNL     1     -11.635   9.123  33.104  0.00  0.00    +0.218 A 
ATOM     26  C   UNL     1     -10.966   9.516  35.057  0.00  0.00    +0.217 A 
BRANCH  26  27
ATOM     27  C   UNL     1     -10.967   9.426  36.522  0.00  0.00    +0.097 C 
BRANCH  27  28
ATOM     28  C   UNL     1     -10.300   8.137  37.049  0.00  0.00    +0.006 C 
ATOM     29  C   UNL     1      -8.781   8.207  37.020  0.00  0.00    +0.004 C 
ENDBRANCH  27  28
ENDBRANCH  26  27
ENDBRANCH  15  23
ENDBRANCH  10  15
TORSDOF 10
ENDMDL
MODEL 3
REMARK VINA RESULT:      -5.9     19.452     22.671
REMARK  Name = 45783997
REMARK  14 active torsions:
REMARK  status: ('A' for Active; 'I' for Inactive)
REMARK    1  A    between atoms: O_2  and  C_25
REMARK    2  A    between atoms: N_3  and  C_12
REMARK    3  A    between atoms: N_4  and  C_24
REMARK    4  A    between atoms: C_7  and  C_11
REMARK    5  A    between atoms: C_8  and  C_12
REMARK    6  A    between atoms: C_10  and  C_15
REMARK    7  A    between atoms: C_11  and  C_18
REMARK    8  A    between atoms: C_11  and  C_19
REMARK    9  A    between atoms: C_14  and  C_22
REMARK   10  A    between atoms: C_15  and  C_23
REMARK   11  A    between atoms: C_24  and  C_25
REMARK   12  A    between atoms: C_26  and  C_27
REMARK   13  A    between atoms: C_27  and  C_28
REMARK   14  A    between atoms: C_28  and  C_29
REMARK                            x       y       z     vdW  Elec       q    Type
REMARK                         _______ _______ _______ _____ _____    ______ ____
ROOT
ATOM      7  C   UNL     1     -13.301  10.467  21.599  0.00  0.00    +0.000 C 
ATOM      8  C   UNL     1     -11.972  10.371  20.814  0.00  0.00    +0.029 C 
ATOM      9  C   UNL     1     -14.294   9.404  21.109  0.00  0.00    +0.012 C 
ATOM     10  C   UNL     1     -13.745   7.964  21.202  0.00  0.00    +0.024 C 
ATOM     13  C   UNL     1     -11.505   8.949  20.639  0.00  0.00    -0.023 C 
ATOM     14  C   UNL     1     -12.276   7.861  20.820  0.00  0.00    -0.073 C 
ATOM     22  C   UNL     1     -11.685   6.483  20.704  0.00  0.00    +0.039 C 
ENDROOT
BRANCH   7  11
ATOM     11  C   UNL     1     -13.066  10.351  23.112  0.00  0.00    -0.013 C 
ATOM     18  C   UNL     1     -14.381  10.509  23.867  0.00  0.00    +0.007 C 
ATOM     19  C   UNL     1     -12.048  11.390  23.573  0.00  0.00    +0.007 C 
ENDBRANCH   7  11
BRANCH   8  12
ATOM     12  C   UNL     1     -12.079  11.038  19.438  0.00  0.00    +0.092 C 
BRANCH  12   3
ATOM      3  N   UNL     1     -11.958  10.046  18.373  0.00  0.00    -0.299 NA
ATOM      4  N   UNL     1     -12.025   9.222  15.602  0.00  0.00    -0.298 NA
ATOM     16  C   UNL     1     -13.228   9.897  17.652  0.00  0.00    +0.100 C 
ATOM     17  C   UNL     1     -10.881  10.407  17.444  0.00  0.00    +0.100 C 
ATOM     20  C   UNL     1     -13.102   8.859  16.530  0.00  0.00    +0.100 C 
ATOM     21  C   UNL     1     -10.755   9.369  16.324  0.00  0.00    +0.100 C 
BRANCH   4  24
ATOM     24  C   UNL     1     -11.903   8.231  14.534  0.00  0.00    +0.112 C 
BRANCH  24  25
ATOM     25  C   UNL     1     -10.445   8.019  14.161  0.00  0.00    +0.171 C 
BRANCH  25   2
ATOM      2  O   UNL     1     -10.097   6.668  14.430  0.00  0.00    -0.394 OA
ATOM     30  H   UNL     1      -9.304   6.684  14.993  0.00  0.00    +0.209 HD
ENDBRANCH  25   2
ENDBRANCH  24  25
ENDBRANCH   4  24
ENDBRANCH  12   3
ENDBRANCH   8  12
BRANCH  10  15
ATOM     15  C   UNL     1     -14.645   7.043  20.371  0.00  0.00    +0.105 C 
BRANCH  15  23
ATOM      1  O   UNL     1     -14.750   5.816  22.478  0.00  0.00    -0.425 OA
ATOM      5  N   UNL     1     -16.159   5.065  20.910  0.00  0.00    -0.112 NA
ATOM      6  N   UNL     1     -16.324   4.287  22.041  0.00  0.00    -0.112 NA
ATOM     23  C   UNL     1     -15.231   5.944  21.211  0.00  0.00    +0.218 A 
ATOM     26  C   UNL     1     -15.482   4.761  22.930  0.00  0.00    +0.217 A 
BRANCH  26  27
ATOM     27  C   UNL     1     -15.231   4.322  24.308  0.00  0.00    +0.097 C 
BRANCH  27  28
ATOM     28  C   UNL     1     -16.008   3.043  24.685  0.00  0.00    +0.006 C 
ATOM     29  C   UNL     1     -16.218   2.903  26.185  0.00  0.00    +0.004 C 
ENDBRANCH  27  28
ENDBRANCH  26  27
ENDBRANCH  15  23
ENDBRANCH  10  15
TORSDOF 10
ENDMDL
MODEL 4
REMARK VINA RESULT:      -5.9      2.609      4.237
REMARK  Name = 45783997
REMARK  14 active torsions:
REMARK  status: ('A' for Active; 'I' for Inactive)
REMARK    1  A    between atoms: O_2  and  C_25
REMARK    2  A    between atoms: N_3  and  C_12
REMARK    3  A    between atoms: N_4  and  C_24
REMARK    4  A    between atoms: C_7  and  C_11
REMARK    5  A    between atoms: C_8  and  C_12
REMARK    6  A    between atoms: C_10  and  C_15
REMARK    7  A    between atoms: C_11  and  C_18
REMARK    8  A    between atoms: C_11  and  C_19
REMARK    9  A    between atoms: C_14  and  C_22
REMARK   10  A    between atoms: C_15  and  C_23
REMARK   11  A    between atoms: C_24  and  C_25
REMARK   12  A    between atoms: C_26  and  C_27
REMARK   13  A    between atoms: C_27  and  C_28
REMARK   14  A    between atoms: C_28  and  C_29
REMARK                            x       y       z     vdW  Elec       q    Type
REMARK                         _______ _______ _______ _____ _____    ______ ____
ROOT
ATOM      7  C   UNL     1      -7.610 -12.093  17.173  0.00  0.00    +0.000 C 
ATOM      8  C   UNL     1      -7.650 -12.054  18.718  0.00  0.00    +0.029 C 
ATOM      9  C   UNL     1      -6.516 -11.159  16.638  0.00  0.00    +0.012 C 
ATOM     10  C   UNL     1      -5.112 -11.478  17.197  0.00  0.00    +0.024 C 
ATOM     13  C   UNL     1      -6.275 -12.100  19.334  0.00  0.00    -0.023 C 
ATOM     14  C   UNL     1      -5.130 -11.859  18.670  0.00  0.00    -0.073 C 
ATOM     22  C   UNL     1      -3.804 -12.017  19.362  0.00  0.00    +0.039 C 
ENDROOT
BRANCH   7  11
ATOM     11  C   UNL     1      -7.418 -13.526  16.655  0.00  0.00    -0.013 C 
ATOM     18  C   UNL     1      -7.495 -13.555  15.132  0.00  0.00    +0.007 C 
ATOM     19  C   UNL     1      -8.460 -14.457  17.267  0.00  0.00    +0.007 C 
ENDBRANCH   7  11
BRANCH   8  12
ATOM     12  C   UNL     1      -8.392 -10.816  19.233  0.00  0.00    +0.092 C 
BRANCH  12   3
ATOM      3  N   UNL     1      -9.544 -11.204  20.042  0.00  0.00    -0.299 NA
ATOM      4  N   UNL     1     -12.142 -12.422  20.408  0.00  0.00    -0.298 NA
ATOM     16  C   UNL     1     -10.767 -10.553  19.557  0.00  0.00    +0.100 C 
ATOM     17  C   UNL     1      -9.709 -12.663  20.049  0.00  0.00    +0.100 C 
ATOM     20  C   UNL     1     -11.978 -10.963  20.403  0.00  0.00    +0.100 C 
ATOM     21  C   UNL     1     -10.919 -13.072  20.895  0.00  0.00    +0.100 C 
BRANCH   4  24
ATOM     24  C   UNL     1     -13.295 -12.812  21.216  0.00  0.00    +0.112 C 
BRANCH  24  25
ATOM     25  C   UNL     1     -12.848 -13.345  22.568  0.00  0.00    +0.171 C 
BRANCH  25   2
ATOM      2  O   UNL     1     -13.214 -12.408  23.571  0.00  0.00    -0.394 OA
ATOM     30  H   UNL     1     -13.656 -11.667  23.122  0.00  0.00    +0.209 HD
ENDBRANCH  25   2
ENDBRANCH  24  25
ENDBRANCH   4  24
ENDBRANCH  12   3
ENDBRANCH   8  12
BRANCH  10  15
ATOM     15  C   UNL     1      -4.186 -10.294  16.897  0.00  0.00    +0.105 C 
BRANCH  15  23
ATOM      1  O   UNL     1      -3.368 -10.821  14.658  0.00  0.00    -0.425 OA
ATOM      5  N   UNL     1      -1.807 -10.944  16.256  0.00  0.00    -0.112 NA
ATOM      6  N   UNL     1      -1.211 -11.263  15.049  0.00  0.00    -0.112 NA
ATOM     23  C   UNL     1      -3.065 -10.693  15.979  0.00  0.00    +0.218 A 
ATOM     26  C   UNL     1      -2.160 -11.179  14.146  0.00  0.00    +0.217 A 
BRANCH  26  27
ATOM     27  C   UNL     1      -2.095 -11.408  12.698  0.00  0.00    +0.097 C 
BRANCH  27  28
ATOM     28  C   UNL     1      -1.779 -10.127  11.896  0.00  0.00    +0.006 C 
ATOM     29  C   UNL     1      -2.794  -9.855  10.798  0.00  0.00    +0.004 C 
ENDBRANCH  27  28
ENDBRANCH  26  27
ENDBRANCH  15  23
ENDBRANCH  10  15
TORSDOF 10
ENDMDL
MODEL 5
REMARK VINA RESULT:      -5.9      2.755      3.903
REMARK  Name = 45783997
REMARK  14 active torsions:
REMARK  status: ('A' for Active; 'I' for Inactive)
REMARK    1  A    between atoms: O_2  and  C_25
REMARK    2  A    between atoms: N_3  and  C_12
REMARK    3  A    between atoms: N_4  and  C_24
REMARK    4  A    between atoms: C_7  and  C_11
REMARK    5  A    between atoms: C_8  and  C_12
REMARK    6  A    between atoms: C_10  and  C_15
REMARK    7  A    between atoms: C_11  and  C_18
REMARK    8  A    between atoms: C_11  and  C_19
REMARK    9  A    between atoms: C_14  and  C_22
REMARK   10  A    between atoms: C_15  and  C_23
REMARK   11  A    between atoms: C_24  and  C_25
REMARK   12  A    between atoms: C_26  and  C_27
REMARK   13  A    between atoms: C_27  and  C_28
REMARK   14  A    between atoms: C_28  and  C_29
REMARK                            x       y       z     vdW  Elec       q    Type
REMARK                         _______ _______ _______ _____ _____    ______ ____
ROOT
ATOM      7  C   UNL     1      -7.035 -12.017  16.902  0.00  0.00    +0.000 C 
ATOM      8  C   UNL     1      -7.102 -11.728  18.419  0.00  0.00    +0.029 C 
ATOM      9  C   UNL     1      -5.792 -11.362  16.283  0.00  0.00    +0.012 C 
ATOM     10  C   UNL     1      -4.472 -11.806  16.950  0.00  0.00    +0.024 C 
ATOM     13  C   UNL     1      -5.767 -11.891  19.099  0.00  0.00    -0.023 C 
ATOM     14  C   UNL     1      -4.584 -11.941  18.461  0.00  0.00    -0.073 C 
ATOM     22  C   UNL     1      -3.316 -12.194  19.231  0.00  0.00    +0.039 C 
ENDROOT
BRANCH   7  11
ATOM     11  C   UNL     1      -7.067 -13.526  16.618  0.00  0.00    -0.013 C 
ATOM     18  C   UNL     1      -7.191 -13.782  15.120  0.00  0.00    +0.007 C 
ATOM     19  C   UNL     1      -8.215 -14.185  17.377  0.00  0.00    +0.007 C 
ENDBRANCH   7  11
BRANCH   8  12
ATOM     12  C   UNL     1      -7.644 -10.322  18.703  0.00  0.00    +0.092 C 
BRANCH  12   3
ATOM      3  N   UNL     1      -8.715  -9.983  17.769  0.00  0.00    -0.299 NA
ATOM      4  N   UNL     1     -10.793  -8.248  16.753  0.00  0.00    -0.298 NA
ATOM     16  C   UNL     1      -9.994  -9.832  18.473  0.00  0.00    +0.100 C 
ATOM     17  C   UNL     1      -8.391  -8.759  17.026  0.00  0.00    +0.100 C 
ATOM     20  C   UNL     1     -11.118  -9.473  17.494  0.00  0.00    +0.100 C 
ATOM     21  C   UNL     1      -9.514  -8.401  16.048  0.00  0.00    +0.100 C 
BRANCH   4  24
ATOM     24  C   UNL     1     -11.864  -7.907  15.819  0.00  0.00    +0.112 C 
BRANCH  24  25
ATOM     25  C   UNL     1     -11.920  -6.405  15.591  0.00  0.00    +0.171 C 
BRANCH  25   2
ATOM      2  O   UNL     1     -11.218  -5.758  16.643  0.00  0.00    -0.394 OA
ATOM     30  H   UNL     1     -10.755  -4.997  16.252  0.00  0.00    +0.209 HD
ENDBRANCH  25   2
ENDBRANCH  24  25
ENDBRANCH   4  24
ENDBRANCH  12   3
ENDBRANCH   8  12
BRANCH  10  15
ATOM     15  C   UNL     1      -3.359 -10.845  16.517  0.00  0.00    +0.105 C 
BRANCH  15  23
ATOM      1  O   UNL     1      -2.688 -10.323  14.228  0.00  0.00    -0.425 OA
ATOM      5  N   UNL     1      -2.252 -12.427  14.854  0.00  0.00    -0.112 NA
ATOM      6  N   UNL     1      -1.824 -12.271  13.548  0.00  0.00    -0.112 NA
ATOM     23  C   UNL     1      -2.749 -11.265  15.209  0.00  0.00    +0.218 A 
ATOM     26  C   UNL     1      -2.098 -11.029  13.225  0.00  0.00    +0.217 A 
BRANCH  26  27
ATOM     27  C   UNL     1      -1.859 -10.315  11.965  0.00  0.00    +0.097 C 
BRANCH  27  28
ATOM     28  C   UNL     1      -3.033 -10.437  10.970  0.00  0.00    +0.006 C 
ATOM     29  C   UNL     1      -3.237  -9.177  10.143  0.00  0.00    +0.004 C 
ENDBRANCH  27  28
ENDBRANCH  26  27
ENDBRANCH  15  23
ENDBRANCH  10  15
TORSDOF 10
ENDMDL
MODEL 6
REMARK VINA RESULT:      -5.8     27.631     29.778
REMARK  Name = 45783997
REMARK  14 active torsions:
REMARK  status: ('A' for Active; 'I' for Inactive)
REMARK    1  A    between atoms: O_2  and  C_25
REMARK    2  A    between atoms: N_3  and  C_12
REMARK    3  A    between atoms: N_4  and  C_24
REMARK    4  A    between atoms: C_7  and  C_11
REMARK    5  A    between atoms: C_8  and  C_12
REMARK    6  A    between atoms: C_10  and  C_15
REMARK    7  A    between atoms: C_11  and  C_18
REMARK    8  A    between atoms: C_11  and  C_19
REMARK    9  A    between atoms: C_14  and  C_22
REMARK   10  A    between atoms: C_15  and  C_23
REMARK   11  A    between atoms: C_24  and  C_25
REMARK   12  A    between atoms: C_26  and  C_27
REMARK   13  A    between atoms: C_27  and  C_28
REMARK   14  A    between atoms: C_28  and  C_29
REMARK                            x       y       z     vdW  Elec       q    Type
REMARK                         _______ _______ _______ _____ _____    ______ ____
ROOT
ATOM      7  C   UNL     1      14.204  10.540  20.511  0.00  0.00    +0.000 C 
ATOM      8  C   UNL     1      12.849  10.394  19.782  0.00  0.00    +0.029 C 
ATOM      9  C   UNL     1      14.873   9.170  20.685  0.00  0.00    +0.012 C 
ATOM     10  C   UNL     1      15.084   8.419  19.353  0.00  0.00    +0.024 C 
ATOM     13  C   UNL     1      12.922   9.454  18.606  0.00  0.00    -0.023 C 
ATOM     14  C   UNL     1      13.917   8.575  18.390  0.00  0.00    -0.073 C 
ATOM     22  C   UNL     1      13.936   7.743  17.136  0.00  0.00    +0.039 C 
ENDROOT
BRANCH   7  11
ATOM     11  C   UNL     1      15.131  11.520  19.776  0.00  0.00    -0.013 C 
ATOM     18  C   UNL     1      16.456  11.656  20.519  0.00  0.00    +0.007 C 
ATOM     19  C   UNL     1      14.454  12.879  19.625  0.00  0.00    +0.007 C 
ENDBRANCH   7  11
BRANCH   8  12
ATOM     12  C   UNL     1      11.743   9.924  20.734  0.00  0.00    +0.092 C 
BRANCH  12   3
ATOM      3  N   UNL     1      11.792  10.670  21.989  0.00  0.00    -0.299 NA
ATOM      4  N   UNL     1      10.574  12.146  24.157  0.00  0.00    -0.298 NA
ATOM     16  C   UNL     1      11.310  12.043  21.801  0.00  0.00    +0.100 C 
ATOM     17  C   UNL     1      11.010   9.991  23.030  0.00  0.00    +0.100 C 
ATOM     20  C   UNL     1      11.358  12.825  23.119  0.00  0.00    +0.100 C 
ATOM     21  C   UNL     1      11.058  10.772  24.347  0.00  0.00    +0.100 C 
BRANCH   4  24
ATOM     24  C   UNL     1      10.621  12.891  25.414  0.00  0.00    +0.112 C 
BRANCH  24  25
ATOM     25  C   UNL     1      11.958  13.597  25.570  0.00  0.00    +0.171 C 
BRANCH  25   2
ATOM      2  O   UNL     1      12.748  12.878  26.507  0.00  0.00    -0.394 OA
ATOM     30  H   UNL     1      12.559  11.933  26.374  0.00  0.00    +0.209 HD
ENDBRANCH  25   2
ENDBRANCH  24  25
ENDBRANCH   4  24
ENDBRANCH  12   3
ENDBRANCH   8  12
BRANCH  10  15
ATOM     15  C   UNL     1      15.410   6.953  19.664  0.00  0.00    +0.105 C 
BRANCH  15  23
ATOM      1  O   UNL     1      17.591   5.857  19.670  0.00  0.00    -0.425 OA
ATOM      5  N   UNL     1      17.372   7.469  21.206  0.00  0.00    -0.112 NA
ATOM      6  N   UNL     1      18.644   6.940  21.320  0.00  0.00    -0.112 NA
ATOM     23  C   UNL     1      16.794   6.807  20.231  0.00  0.00    +0.218 A 
ATOM     26  C   UNL     1      18.727   6.002  20.404  0.00  0.00    +0.217 A 
BRANCH  26  27
ATOM     27  C   UNL     1      19.849   5.116  20.072  0.00  0.00    +0.097 C 
BRANCH  27  28
ATOM     28  C   UNL     1      21.035   5.251  21.051  0.00  0.00    +0.006 C 
ATOM     29  C   UNL     1      22.156   6.119  20.501  0.00  0.00    +0.004 C 
ENDBRANCH  27  28
ENDBRANCH  26  27
ENDBRANCH  15  23
ENDBRANCH  10  15
TORSDOF 10
ENDMDL
MODEL 7
REMARK VINA RESULT:      -5.8      3.677      9.607
REMARK  Name = 45783997
REMARK  14 active torsions:
REMARK  status: ('A' for Active; 'I' for Inactive)
REMARK    1  A    between atoms: O_2  and  C_25
REMARK    2  A    between atoms: N_3  and  C_12
REMARK    3  A    between atoms: N_4  and  C_24
REMARK    4  A    between atoms: C_7  and  C_11
REMARK    5  A    between atoms: C_8  and  C_12
REMARK    6  A    between atoms: C_10  and  C_15
REMARK    7  A    between atoms: C_11  and  C_18
REMARK    8  A    between atoms: C_11  and  C_19
REMARK    9  A    between atoms: C_14  and  C_22
REMARK   10  A    between atoms: C_15  and  C_23
REMARK   11  A    between atoms: C_24  and  C_25
REMARK   12  A    between atoms: C_26  and  C_27
REMARK   13  A    between atoms: C_27  and  C_28
REMARK   14  A    between atoms: C_28  and  C_29
REMARK                            x       y       z     vdW  Elec       q    Type
REMARK                         _______ _______ _______ _____ _____    ______ ____
ROOT
ATOM      7  C   UNL     1      -5.705 -10.459  10.448  0.00  0.00    +0.000 C 
ATOM      8  C   UNL     1      -4.907 -10.046   9.190  0.00  0.00    +0.029 C 
ATOM      9  C   UNL     1      -4.806 -11.225  11.429  0.00  0.00    +0.012 C 
ATOM     10  C   UNL     1      -3.551 -10.433  11.854  0.00  0.00    +0.024 C 
ATOM     13  C   UNL     1      -3.544  -9.496   9.524  0.00  0.00    -0.023 C 
ATOM     14  C   UNL     1      -2.927  -9.647  10.711  0.00  0.00    -0.073 C 
ATOM     22  C   UNL     1      -1.602  -8.982  10.967  0.00  0.00    +0.039 C 
ENDROOT
BRANCH   7  11
ATOM     11  C   UNL     1      -6.354  -9.243  11.124  0.00  0.00    -0.013 C 
ATOM     18  C   UNL     1      -6.924  -9.632  12.484  0.00  0.00    +0.007 C 
ATOM     19  C   UNL     1      -7.441  -8.655  10.230  0.00  0.00    +0.007 C 
ENDBRANCH   7  11
BRANCH   8  12
ATOM     12  C   UNL     1      -4.753 -11.213   8.209  0.00  0.00    +0.092 C 
BRANCH  12   3
ATOM      3  N   UNL     1      -5.178 -10.819   6.868  0.00  0.00    -0.299 NA
ATOM      4  N   UNL     1      -7.148 -10.537   4.770  0.00  0.00    -0.298 NA
ATOM     16  C   UNL     1      -5.655 -11.981   6.108  0.00  0.00    +0.100 C 
ATOM     17  C   UNL     1      -6.220  -9.787   6.933  0.00  0.00    +0.100 C 
ATOM     20  C   UNL     1      -6.105 -11.568   4.702  0.00  0.00    +0.100 C 
ATOM     21  C   UNL     1      -6.669  -9.375   5.528  0.00  0.00    +0.100 C 
BRANCH   4  24
ATOM     24  C   UNL     1      -7.575 -10.143   3.429  0.00  0.00    +0.112 C 
BRANCH  24  25
ATOM     25  C   UNL     1      -7.867  -8.652   3.375  0.00  0.00    +0.171 C 
BRANCH  25   2
ATOM      2  O   UNL     1      -7.607  -8.183   2.059  0.00  0.00    -0.394 OA
ATOM     30  H   UNL     1      -8.455  -7.882   1.691  0.00  0.00    +0.209 HD
ENDBRANCH  25   2
ENDBRANCH  24  25
ENDBRANCH   4  24
ENDBRANCH  12   3
ENDBRANCH   8  12
BRANCH  10  15
ATOM     15  C   UNL     1      -2.566 -11.400  12.522  0.00  0.00    +0.105 C 
BRANCH  15  23
ATOM      1  O   UNL     1      -3.642 -11.009  14.678  0.00  0.00    -0.425 OA
ATOM      5  N   UNL     1      -1.406 -11.044  14.763  0.00  0.00    -0.112 NA
ATOM      6  N   UNL     1      -1.880 -10.817  16.042  0.00  0.00    -0.112 NA
ATOM     23  C   UNL     1      -2.470 -11.150  14.000  0.00  0.00    +0.218 A 
ATOM     26  C   UNL     1      -3.189 -10.804  15.945  0.00  0.00    +0.217 A 
BRANCH  26  27
ATOM     27  C   UNL     1      -4.203 -10.608  16.988  0.00  0.00    +0.097 C 
BRANCH  27  28
ATOM     28  C   UNL     1      -4.588 -11.918  17.709  0.00  0.00    +0.006 C 
ATOM     29  C   UNL     1      -4.119 -11.953  19.155  0.00  0.00    +0.004 C 
ENDBRANCH  27  28
ENDBRANCH  26  27
ENDBRANCH  15  23
ENDBRANCH  10  15
TORSDOF 10
ENDMDL
MODEL 8
REMARK VINA RESULT:      -5.7      2.087      7.537
REMARK  Name = 45783997
REMARK  14 active torsions:
REMARK  status: ('A' for Active; 'I' for Inactive)
REMARK    1  A    between atoms: O_2  and  C_25
REMARK    2  A    between atoms: N_3  and  C_12
REMARK    3  A    between atoms: N_4  and  C_24
REMARK    4  A    between atoms: C_7  and  C_11
REMARK    5  A    between atoms: C_8  and  C_12
REMARK    6  A    between atoms: C_10  and  C_15
REMARK    7  A    between atoms: C_11  and  C_18
REMARK    8  A    between atoms: C_11  and  C_19
REMARK    9  A    between atoms: C_14  and  C_22
REMARK   10  A    between atoms: C_15  and  C_23
REMARK   11  A    between atoms: C_24  and  C_25
REMARK   12  A    between atoms: C_26  and  C_27
REMARK   13  A    between atoms: C_27  and  C_28
REMARK   14  A    between atoms: C_28  and  C_29
REMARK                            x       y       z     vdW  Elec       q    Type
REMARK                         _______ _______ _______ _____ _____    ______ ____
ROOT
ATOM      7  C   UNL     1      -3.537 -10.536  15.441  0.00  0.00    +0.000 C 
ATOM      8  C   UNL     1      -4.633 -11.307  14.669  0.00  0.00    +0.029 C 
ATOM      9  C   UNL     1      -3.950 -10.335  16.906  0.00  0.00    +0.012 C 
ATOM     10  C   UNL     1      -4.263 -11.657  17.640  0.00  0.00    +0.024 C 
ATOM     13  C   UNL     1      -5.177 -12.476  15.449  0.00  0.00    -0.023 C 
ATOM     14  C   UNL     1      -5.012 -12.657  16.773  0.00  0.00    -0.073 C 
ATOM     22  C   UNL     1      -5.523 -13.906  17.438  0.00  0.00    +0.039 C 
ENDROOT
BRANCH   7  11
ATOM     11  C   UNL     1      -2.178 -11.245  15.340  0.00  0.00    -0.013 C 
ATOM     18  C   UNL     1      -1.052 -10.290  15.721  0.00  0.00    +0.007 C 
ATOM     19  C   UNL     1      -1.969 -11.795  13.933  0.00  0.00    +0.007 C 
ENDBRANCH   7  11
BRANCH   8  12
ATOM     12  C   UNL     1      -5.791 -10.389  14.264  0.00  0.00    +0.092 C 
BRANCH  12   3
ATOM      3  N   UNL     1      -5.701 -10.039  12.849  0.00  0.00    -0.299 NA
ATOM      4  N   UNL     1      -6.555 -10.219  10.092  0.00  0.00    -0.298 NA
ATOM     16  C   UNL     1      -5.406 -11.224  12.035  0.00  0.00    +0.100 C 
ATOM     17  C   UNL     1      -6.940  -9.398  12.391  0.00  0.00    +0.100 C 
ATOM     20  C   UNL     1      -5.315 -10.858  10.549  0.00  0.00    +0.100 C 
ATOM     21  C   UNL     1      -6.848  -9.032  10.906  0.00  0.00    +0.100 C 
BRANCH   4  24
ATOM     24  C   UNL     1      -6.467  -9.868   8.676  0.00  0.00    +0.112 C 
BRANCH  24  25
ATOM     25  C   UNL     1      -5.020  -9.868   8.211  0.00  0.00    +0.171 C 
BRANCH  25   2
ATOM      2  O   UNL     1      -4.482  -8.565   8.394  0.00  0.00    -0.394 OA
ATOM     30  H   UNL     1      -3.817  -8.627   9.101  0.00  0.00    +0.209 HD
ENDBRANCH  25   2
ENDBRANCH  24  25
ENDBRANCH   4  24
ENDBRANCH  12   3
ENDBRANCH   8  12
BRANCH  10  15
ATOM     15  C   UNL     1      -4.998 -11.329  18.945  0.00  0.00    +0.105 C 
BRANCH  15  23
ATOM      1  O   UNL     1      -6.665  -9.948  17.818  0.00  0.00    -0.425 OA
ATOM      5  N   UNL     1      -7.530 -11.492  19.187  0.00  0.00    -0.112 NA
ATOM      6  N   UNL     1      -8.577 -10.789  18.620  0.00  0.00    -0.112 NA
ATOM     23  C   UNL     1      -6.434 -10.967  18.690  0.00  0.00    +0.218 A 
ATOM     26  C   UNL     1      -8.025  -9.898  17.828  0.00  0.00    +0.217 A 
BRANCH  26  27
ATOM     27  C   UNL     1      -8.659  -8.887  16.974  0.00  0.00    +0.097 C 
BRANCH  27  28
ATOM     28  C   UNL     1     -10.072  -8.491  17.452  0.00  0.00    +0.006 C 
ATOM     29  C   UNL     1     -10.584  -7.222  16.790  0.00  0.00    +0.004 C 
ENDBRANCH  27  28
ENDBRANCH  26  27
ENDBRANCH  15  23
ENDBRANCH  10  15
TORSDOF 10
ENDMDL
MODEL 9
REMARK VINA RESULT:      -5.7      3.581      9.586
REMARK  Name = 45783997
REMARK  14 active torsions:
REMARK  status: ('A' for Active; 'I' for Inactive)
REMARK    1  A    between atoms: O_2  and  C_25
REMARK    2  A    between atoms: N_3  and  C_12
REMARK    3  A    between atoms: N_4  and  C_24
REMARK    4  A    between atoms: C_7  and  C_11
REMARK    5  A    between atoms: C_8  and  C_12
REMARK    6  A    between atoms: C_10  and  C_15
REMARK    7  A    between atoms: C_11  and  C_18
REMARK    8  A    between atoms: C_11  and  C_19
REMARK    9  A    between atoms: C_14  and  C_22
REMARK   10  A    between atoms: C_15  and  C_23
REMARK   11  A    between atoms: C_24  and  C_25
REMARK   12  A    between atoms: C_26  and  C_27
REMARK   13  A    between atoms: C_27  and  C_28
REMARK   14  A    between atoms: C_28  and  C_29
REMARK                            x       y       z     vdW  Elec       q    Type
REMARK                         _______ _______ _______ _____ _____    ______ ____
ROOT
ATOM      7  C   UNL     1      -5.602 -10.871  11.280  0.00  0.00    +0.000 C 
ATOM      8  C   UNL     1      -5.013 -10.736   9.857  0.00  0.00    +0.029 C 
ATOM      9  C   UNL     1      -4.527 -11.351  12.265  0.00  0.00    +0.012 C 
ATOM     10  C   UNL     1      -3.284 -10.435  12.307  0.00  0.00    +0.024 C 
ATOM     13  C   UNL     1      -3.660 -10.074   9.851  0.00  0.00    -0.023 C 
ATOM     14  C   UNL     1      -2.878  -9.918  10.935  0.00  0.00    -0.073 C 
ATOM     22  C   UNL     1      -1.581  -9.164  10.834  0.00  0.00    +0.039 C 
ENDROOT
BRANCH   7  11
ATOM     11  C   UNL     1      -6.237  -9.554  11.750  0.00  0.00    -0.013 C 
ATOM     18  C   UNL     1      -6.872  -9.732  13.124  0.00  0.00    +0.007 C 
ATOM     19  C   UNL     1      -7.267  -9.069  10.735  0.00  0.00    +0.007 C 
ENDBRANCH   7  11
BRANCH   8  12
ATOM     12  C   UNL     1      -4.912 -12.095   9.156  0.00  0.00    +0.092 C 
BRANCH  12   3
ATOM      3  N   UNL     1      -4.515 -11.927   7.760  0.00  0.00    -0.299 NA
ATOM      4  N   UNL     1      -4.706 -12.528   4.938  0.00  0.00    -0.298 NA
ATOM     16  C   UNL     1      -3.991 -13.184   7.210  0.00  0.00    +0.100 C 
ATOM     17  C   UNL     1      -5.641 -11.445   6.951  0.00  0.00    +0.100 C 
ATOM     20  C   UNL     1      -3.578 -13.010   5.745  0.00  0.00    +0.100 C 
ATOM     21  C   UNL     1      -5.227 -11.270   5.487  0.00  0.00    +0.100 C 
BRANCH   4  24
ATOM     24  C   UNL     1      -4.310 -12.361   3.540  0.00  0.00    +0.112 C 
BRANCH  24  25
ATOM     25  C   UNL     1      -2.929 -12.947   3.299  0.00  0.00    +0.171 C 
BRANCH  25   2
ATOM      2  O   UNL     1      -2.329 -12.267   2.205  0.00  0.00    -0.394 OA
ATOM     30  H   UNL     1      -3.049 -11.861   1.692  0.00  0.00    +0.209 HD
ENDBRANCH  25   2
ENDBRANCH  24  25
ENDBRANCH   4  24
ENDBRANCH  12   3
ENDBRANCH   8  12
BRANCH  10  15
ATOM     15  C   UNL     1      -2.152 -11.180  13.024  0.00  0.00    +0.105 C 
BRANCH  15  23
ATOM      1  O   UNL     1      -3.479 -10.992  15.064  0.00  0.00    -0.425 OA
ATOM      5  N   UNL     1      -1.270 -10.849  15.391  0.00  0.00    -0.112 NA
ATOM      6  N   UNL     1      -1.894 -10.728  16.620  0.00  0.00    -0.112 NA
ATOM     23  C   UNL     1      -2.234 -11.001  14.513  0.00  0.00    +0.218 A 
ATOM     26  C   UNL     1      -3.182 -10.817  16.380  0.00  0.00    +0.217 A 
BRANCH  26  27
ATOM     27  C   UNL     1      -4.313 -10.759  17.313  0.00  0.00    +0.097 C 
BRANCH  27  28
ATOM     28  C   UNL     1      -5.683 -10.860  16.609  0.00  0.00    +0.006 C 
ATOM     29  C   UNL     1      -6.500  -9.583  16.726  0.00  0.00    +0.004 C 
ENDBRANCH  27  28
ENDBRANCH  26  27
ENDBRANCH  15  23
ENDBRANCH  10  15
TORSDOF 10
ENDMDL
MODEL 10
REMARK VINA RESULT:      -5.6     24.645     27.895
REMARK  Name = 45783997
REMARK  14 active torsions:
REMARK  status: ('A' for Active; 'I' for Inactive)
REMARK    1  A    between atoms: O_2  and  C_25
REMARK    2  A    between atoms: N_3  and  C_12
REMARK    3  A    between atoms: N_4  and  C_24
REMARK    4  A    between atoms: C_7  and  C_11
REMARK    5  A    between atoms: C_8  and  C_12
REMARK    6  A    between atoms: C_10  and  C_15
REMARK    7  A    between atoms: C_11  and  C_18
REMARK    8  A    between atoms: C_11  and  C_19
REMARK    9  A    between atoms: C_14  and  C_22
REMARK   10  A    between atoms: C_15  and  C_23
REMARK   11  A    between atoms: C_24  and  C_25
REMARK   12  A    between atoms: C_26  and  C_27
REMARK   13  A    between atoms: C_27  and  C_28
REMARK   14  A    between atoms: C_28  and  C_29
REMARK                            x       y       z     vdW  Elec       q    Type
REMARK                         _______ _______ _______ _____ _____    ______ ____
ROOT
ATOM      7  C   UNL     1       9.803   7.590   5.387  0.00  0.00    +0.000 C 
ATOM      8  C   UNL     1       9.129   7.405   4.008  0.00  0.00    +0.029 C 
ATOM      9  C   UNL     1       9.947   9.081   5.720  0.00  0.00    +0.012 C 
ATOM     10  C   UNL     1       8.606   9.846   5.696  0.00  0.00    +0.024 C 
ATOM     13  C   UNL     1       7.950   8.321   3.812  0.00  0.00    -0.023 C 
ATOM     14  C   UNL     1       7.691   9.408   4.562  0.00  0.00    -0.073 C 
ATOM     22  C   UNL     1       6.436  10.206   4.336  0.00  0.00    +0.039 C 
ENDROOT
BRANCH   7  11
ATOM     11  C   UNL     1       9.034   6.847   6.489  0.00  0.00    -0.013 C 
ATOM     18  C   UNL     1       9.499   7.311   7.866  0.00  0.00    +0.007 C 
ATOM     19  C   UNL     1       9.212   5.339   6.338  0.00  0.00    +0.007 C 
ENDBRANCH   7  11
BRANCH   8  12
ATOM     12  C   UNL     1      10.124   7.612   2.860  0.00  0.00    +0.092 C 
BRANCH  12   3
ATOM      3  N   UNL     1      11.093   6.519   2.814  0.00  0.00    -0.299 NA
ATOM      4  N   UNL     1      12.387   4.279   1.523  0.00  0.00    -0.298 NA
ATOM     16  C   UNL     1      10.415   5.225   2.671  0.00  0.00    +0.100 C 
ATOM     17  C   UNL     1      12.052   6.719   1.720  0.00  0.00    +0.100 C 
ATOM     20  C   UNL     1      11.431   4.078   2.618  0.00  0.00    +0.100 C 
ATOM     21  C   UNL     1      13.067   5.572   1.668  0.00  0.00    +0.100 C 
BRANCH   4  24
ATOM     24  C   UNL     1      13.357   3.186   1.474  0.00  0.00    +0.112 C 
BRANCH  24  25
ATOM     25  C   UNL     1      14.773   3.728   1.374  0.00  0.00    +0.171 C 
BRANCH  25   2
ATOM      2  O   UNL     1      15.563   3.135   2.396  0.00  0.00    -0.394 OA
ATOM     30  H   UNL     1      15.040   3.170   3.216  0.00  0.00    +0.209 HD
ENDBRANCH  25   2
ENDBRANCH  24  25
ENDBRANCH   4  24
ENDBRANCH  12   3
ENDBRANCH   8  12
BRANCH  10  15
ATOM     15  C   UNL     1       8.901  11.350   5.679  0.00  0.00    +0.105 C 
BRANCH  15  23
ATOM      1  O   UNL     1       9.068  11.305   8.114  0.00  0.00    -0.425 OA
ATOM      5  N   UNL     1      10.601  12.593   7.115  0.00  0.00    -0.112 NA
ATOM      6  N   UNL     1      10.810  12.658   8.480  0.00  0.00    -0.112 NA
ATOM     23  C   UNL     1       9.574  11.792   6.948  0.00  0.00    +0.218 A 
ATOM     26  C   UNL     1       9.893  11.892   9.023  0.00  0.00    +0.217 A 
BRANCH  26  27
ATOM     27  C   UNL     1       9.645  11.588  10.437  0.00  0.00    +0.097 C 
BRANCH  27  28
ATOM     28  C   UNL     1      10.787  12.055  11.365  0.00  0.00    +0.006 C 
ATOM     29  C   UNL     1      10.406  12.007  12.837  0.00  0.00    +0.004 C 
ENDBRANCH  27  28
ENDBRANCH  26  27
ENDBRANCH  15  23
ENDBRANCH  10  15
TORSDOF 10
ENDMDL
