MODEL 1
REMARK VINA RESULT:      -7.6      0.000      0.000
REMARK  Name = 45783659
REMARK  5 active torsions:
REMARK  status: ('A' for Active; 'I' for Inactive)
REMARK    1  A    between atoms: N_3  and  C_13
REMARK    2  A    between atoms: N_7  and  C_26
REMARK    3  A    between atoms: C_9  and  C_14
REMARK    4  A    between atoms: C_13  and  C_15
REMARK    5  A    between atoms: C_18  and  C_19
REMARK                            x       y       z     vdW  Elec       q    Type
REMARK                         _______ _______ _______ _____ _____    ______ ____
ROOT
ATOM      2  O   UNL     1      13.925   6.702  19.966  0.00  0.00    -0.336 OA
ATOM      4  N   UNL     1      15.741   7.197  18.752  0.00  0.00    -0.190 NA
ATOM      5  N   UNL     1      15.027   6.354  20.755  0.00  0.00    -0.056 NA
ATOM     14  C   UNL     1      14.433   7.190  18.804  0.00  0.00    +0.245 A 
ATOM     18  C   UNL     1      16.061   6.675  19.972  0.00  0.00    +0.204 A 
ENDROOT
BRANCH  18  19
ATOM      6  N   UNL     1      19.523   5.322  20.079  0.00  0.00    -0.237 NA
ATOM     19  C   UNL     1      17.424   6.485  20.376  0.00  0.00    +0.041 A 
ATOM     23  C   UNL     1      17.975   7.230  21.414  0.00  0.00    +0.017 A 
ATOM     24  C   UNL     1      18.233   5.553  19.746  0.00  0.00    +0.124 A 
ATOM     25  C   UNL     1      19.299   7.022  21.784  0.00  0.00    +0.047 A 
ATOM     26  C   UNL     1      20.024   6.065  21.091  0.00  0.00    +0.139 A 
BRANCH  26   7
ATOM      7  N   UNL     1      21.344   5.855  21.457  0.00  0.00    -0.290 N 
ATOM      8  N   UNL     1      23.132   5.628  22.754  0.00  0.00    -0.244 NA
ATOM     27  C   UNL     1      22.390   5.608  20.612  0.00  0.00    +0.114 A 
ATOM     28  C   UNL     1      21.839   5.858  22.731  0.00  0.00    +0.205 A 
ATOM     29  C   UNL     1      23.482   5.472  21.436  0.00  0.00    +0.130 A 
ENDBRANCH  26   7
ENDBRANCH  18  19
BRANCH  14   9
ATOM      3  N   UNL     1      12.632   8.804  18.216  0.00  0.00    -0.287 NA
ATOM      9  C   UNL     1      13.428   7.645  17.766  0.00  0.00    +0.146 C 
ATOM     10  C   UNL     1      14.094   8.111  16.458  0.00  0.00    +0.030 C 
ATOM     11  C   UNL     1      13.566   9.519  16.223  0.00  0.00    +0.017 C 
ATOM     12  C   UNL     1      12.271   9.551  17.010  0.00  0.00    +0.085 C 
BRANCH   3  13
ATOM     13  C   UNL     1      11.463   8.429  18.999  0.00  0.00    +0.123 C 
BRANCH  13  15
ATOM      1  F   UNL     1      10.321   7.241  21.304  0.00  0.00    -0.205 F 
ATOM     15  C   UNL     1      11.453   9.096  20.349  0.00  0.00    +0.002 A 
ATOM     16  C   UNL     1      10.873   8.455  21.443  0.00  0.00    +0.128 A 
ATOM     17  C   UNL     1      12.025  10.359  20.504  0.00  0.00    +0.008 A 
ATOM     20  C   UNL     1      10.865   9.075  22.691  0.00  0.00    +0.038 A 
ATOM     21  C   UNL     1      12.017  10.980  21.752  0.00  0.00    +0.000 A 
ATOM     22  C   UNL     1      11.437  10.338  22.846  0.00  0.00    +0.003 A 
ENDBRANCH  13  15
ENDBRANCH   3  13
ENDBRANCH  14   9
TORSDOF 5
ENDMDL
MODEL 2
REMARK VINA RESULT:      -7.5      3.634     10.626
REMARK  Name = 45783659
REMARK  5 active torsions:
REMARK  status: ('A' for Active; 'I' for Inactive)
REMARK    1  A    between atoms: N_3  and  C_13
REMARK    2  A    between atoms: N_7  and  C_26
REMARK    3  A    between atoms: C_9  and  C_14
REMARK    4  A    between atoms: C_13  and  C_15
REMARK    5  A    between atoms: C_18  and  C_19
REMARK                            x       y       z     vdW  Elec       q    Type
REMARK                         _______ _______ _______ _____ _____    ______ ____
ROOT
ATOM      2  O   UNL     1      21.706   6.332  21.394  0.00  0.00    -0.336 OA
ATOM      4  N   UNL     1      19.792   6.273  22.557  0.00  0.00    -0.190 NA
ATOM      5  N   UNL     1      20.678   6.515  20.461  0.00  0.00    -0.056 NA
ATOM     14  C   UNL     1      21.099   6.197  22.602  0.00  0.00    +0.245 A 
ATOM     18  C   UNL     1      19.580   6.469  21.222  0.00  0.00    +0.204 A 
ENDROOT
BRANCH  18  19
ATOM      6  N   UNL     1      16.049   7.574  20.860  0.00  0.00    -0.237 NA
ATOM     19  C   UNL     1      18.259   6.611  20.683  0.00  0.00    +0.041 A 
ATOM     23  C   UNL     1      17.890   5.960  19.510  0.00  0.00    +0.017 A 
ATOM     24  C   UNL     1      17.311   7.400  21.313  0.00  0.00    +0.124 A 
ATOM     25  C   UNL     1      16.601   6.116  19.012  0.00  0.00    +0.047 A 
ATOM     26  C   UNL     1      15.726   6.927  19.719  0.00  0.00    +0.139 A 
BRANCH  26   7
ATOM      7  N   UNL     1      14.441   7.085  19.226  0.00  0.00    -0.290 N 
ATOM      8  N   UNL     1      12.221   7.075  19.163  0.00  0.00    -0.244 NA
ATOM     27  C   UNL     1      14.100   7.526  17.978  0.00  0.00    +0.114 A 
ATOM     28  C   UNL     1      13.280   6.826  19.900  0.00  0.00    +0.205 A 
ATOM     29  C   UNL     1      12.725   7.511  17.963  0.00  0.00    +0.130 A 
ENDBRANCH  26   7
ENDBRANCH  18  19
BRANCH  14   9
ATOM      3  N   UNL     1      23.054   4.976  23.538  0.00  0.00    -0.287 NA
ATOM      9  C   UNL     1      22.008   5.986  23.795  0.00  0.00    +0.146 C 
ATOM     10  C   UNL     1      22.779   7.259  24.187  0.00  0.00    +0.030 C 
ATOM     11  C   UNL     1      24.246   6.852  24.183  0.00  0.00    +0.017 C 
ATOM     12  C   UNL     1      24.200   5.349  24.369  0.00  0.00    +0.085 C 
BRANCH   3  13
ATOM     13  C   UNL     1      22.612   3.612  23.794  0.00  0.00    +0.123 C 
BRANCH  13  15
ATOM      1  F   UNL     1      22.445   3.401  20.974  0.00  0.00    -0.205 F 
ATOM     15  C   UNL     1      23.401   2.608  22.996  0.00  0.00    +0.002 A 
ATOM     16  C   UNL     1      23.270   2.557  21.609  0.00  0.00    +0.128 A 
ATOM     17  C   UNL     1      24.264   1.726  23.648  0.00  0.00    +0.008 A 
ATOM     20  C   UNL     1      24.002   1.626  20.873  0.00  0.00    +0.038 A 
ATOM     21  C   UNL     1      24.996   0.794  22.913  0.00  0.00    +0.000 A 
ATOM     22  C   UNL     1      24.864   0.744  21.525  0.00  0.00    +0.003 A 
ENDBRANCH  13  15
ENDBRANCH   3  13
ENDBRANCH  14   9
TORSDOF 5
ENDMDL
MODEL 3
REMARK VINA RESULT:      -7.3     26.295     29.799
REMARK  Name = 45783659
REMARK  5 active torsions:
REMARK  status: ('A' for Active; 'I' for Inactive)
REMARK    1  A    between atoms: N_3  and  C_13
REMARK    2  A    between atoms: N_7  and  C_26
REMARK    3  A    between atoms: C_9  and  C_14
REMARK    4  A    between atoms: C_13  and  C_15
REMARK    5  A    between atoms: C_18  and  C_19
REMARK                            x       y       z     vdW  Elec       q    Type
REMARK                         _______ _______ _______ _____ _____    ______ ____
ROOT
ATOM      2  O   UNL     1      -5.059 -11.556  17.031  0.00  0.00    -0.336 OA
ATOM      4  N   UNL     1      -5.612 -10.104  15.417  0.00  0.00    -0.190 NA
ATOM      5  N   UNL     1      -6.353 -11.114  17.332  0.00  0.00    -0.056 NA
ATOM     14  C   UNL     1      -4.697 -10.913  15.889  0.00  0.00    +0.245 A 
ATOM     18  C   UNL     1      -6.610 -10.261  16.335  0.00  0.00    +0.204 A 
ENDROOT
BRANCH  18  19
ATOM      6  N   UNL     1      -9.719  -8.849  14.865  0.00  0.00    -0.237 NA
ATOM     19  C   UNL     1      -7.850  -9.549  16.230  0.00  0.00    +0.041 A 
ATOM     23  C   UNL     1      -8.388  -8.880  17.324  0.00  0.00    +0.017 A 
ATOM     24  C   UNL     1      -8.548  -9.503  15.034  0.00  0.00    +0.124 A 
ATOM     25  C   UNL     1      -9.592  -8.196  17.190  0.00  0.00    +0.047 A 
ATOM     26  C   UNL     1     -10.212  -8.211  15.950  0.00  0.00    +0.139 A 
BRANCH  26   7
ATOM      7  N   UNL     1     -11.412  -7.531  15.812  0.00  0.00    -0.290 N 
ATOM      8  N   UNL     1     -13.582  -7.088  15.972  0.00  0.00    -0.244 NA
ATOM     27  C   UNL     1     -11.591  -6.318  15.211  0.00  0.00    +0.114 A 
ATOM     28  C   UNL     1     -12.635  -7.955  16.253  0.00  0.00    +0.205 A 
ATOM     29  C   UNL     1     -12.938  -6.065  15.322  0.00  0.00    +0.130 A 
ENDBRANCH  26   7
ENDBRANCH  18  19
BRANCH  14   9
ATOM      3  N   UNL     1      -3.025 -10.499  14.094  0.00  0.00    -0.287 NA
ATOM      9  C   UNL     1      -3.318 -11.225  15.346  0.00  0.00    +0.146 C 
ATOM     10  C   UNL     1      -2.192 -10.811  16.312  0.00  0.00    +0.030 C 
ATOM     11  C   UNL     1      -1.283  -9.903  15.496  0.00  0.00    +0.017 C 
ATOM     12  C   UNL     1      -1.575 -10.299  14.063  0.00  0.00    +0.085 C 
BRANCH   3  13
ATOM     13  C   UNL     1      -3.508 -11.188  12.905  0.00  0.00    +0.123 C 
BRANCH  13  15
ATOM      1  F   UNL     1      -1.998 -10.088  10.775  0.00  0.00    -0.205 F 
ATOM     15  C   UNL     1      -4.085 -10.228  11.897  0.00  0.00    +0.002 A 
ATOM     16  C   UNL     1      -3.284  -9.723  10.873  0.00  0.00    +0.128 A 
ATOM     17  C   UNL     1      -5.423  -9.844  11.990  0.00  0.00    +0.008 A 
ATOM     20  C   UNL     1      -3.821  -8.835   9.942  0.00  0.00    +0.038 A 
ATOM     21  C   UNL     1      -5.960  -8.955  11.060  0.00  0.00    +0.000 A 
ATOM     22  C   UNL     1      -5.159  -8.451  10.035  0.00  0.00    +0.003 A 
ENDBRANCH  13  15
ENDBRANCH   3  13
ENDBRANCH  14   9
TORSDOF 5
ENDMDL
MODEL 4
REMARK VINA RESULT:      -7.3      3.818     10.524
REMARK  Name = 45783659
REMARK  5 active torsions:
REMARK  status: ('A' for Active; 'I' for Inactive)
REMARK    1  A    between atoms: N_3  and  C_13
REMARK    2  A    between atoms: N_7  and  C_26
REMARK    3  A    between atoms: C_9  and  C_14
REMARK    4  A    between atoms: C_13  and  C_15
REMARK    5  A    between atoms: C_18  and  C_19
REMARK                            x       y       z     vdW  Elec       q    Type
REMARK                         _______ _______ _______ _____ _____    ______ ____
ROOT
ATOM      2  O   UNL     1      21.496   4.998  20.552  0.00  0.00    -0.336 OA
ATOM      4  N   UNL     1      20.462   6.960  20.874  0.00  0.00    -0.190 NA
ATOM      5  N   UNL     1      20.162   4.803  20.173  0.00  0.00    -0.056 NA
ATOM     14  C   UNL     1      21.587   6.295  20.952  0.00  0.00    +0.245 A 
ATOM     18  C   UNL     1      19.617   6.003  20.391  0.00  0.00    +0.204 A 
ENDROOT
BRANCH  18  19
ATOM      6  N   UNL     1      16.285   5.966  18.742  0.00  0.00    -0.237 NA
ATOM     19  C   UNL     1      18.232   6.279  20.140  0.00  0.00    +0.041 A 
ATOM     23  C   UNL     1      17.498   7.095  20.993  0.00  0.00    +0.017 A 
ATOM     24  C   UNL     1      17.585   5.743  19.038  0.00  0.00    +0.124 A 
ATOM     25  C   UNL     1      16.157   7.346  20.722  0.00  0.00    +0.047 A 
ATOM     26  C   UNL     1      15.603   6.763  19.593  0.00  0.00    +0.139 A 
BRANCH  26   7
ATOM      7  N   UNL     1      14.267   7.010  19.320  0.00  0.00    -0.290 N 
ATOM      8  N   UNL     1      12.068   7.115  19.614  0.00  0.00    -0.244 NA
ATOM     27  C   UNL     1      13.759   7.529  18.162  0.00  0.00    +0.114 A 
ATOM     28  C   UNL     1      13.214   6.777  20.161  0.00  0.00    +0.205 A 
ATOM     29  C   UNL     1      12.401   7.585  18.368  0.00  0.00    +0.130 A 
ENDBRANCH  26   7
ENDBRANCH  18  19
BRANCH  14   9
ATOM      3  N   UNL     1      23.948   5.674  21.437  0.00  0.00    -0.287 NA
ATOM      9  C   UNL     1      22.951   6.763  21.416  0.00  0.00    +0.146 C 
ATOM     10  C   UNL     1      23.558   7.833  20.490  0.00  0.00    +0.030 C 
ATOM     11  C   UNL     1      24.921   7.285  20.089  0.00  0.00    +0.017 C 
ATOM     12  C   UNL     1      25.248   6.300  21.194  0.00  0.00    +0.085 C 
BRANCH   3  13
ATOM     13  C   UNL     1      23.932   4.905  22.674  0.00  0.00    +0.123 C 
BRANCH  13  15
ATOM      1  F   UNL     1      24.212   3.006  24.757  0.00  0.00    -0.205 F 
ATOM     15  C   UNL     1      24.148   3.436  22.423  0.00  0.00    +0.002 A 
ATOM     16  C   UNL     1      24.279   2.555  23.497  0.00  0.00    +0.128 A 
ATOM     17  C   UNL     1      24.219   2.957  21.115  0.00  0.00    +0.008 A 
ATOM     20  C   UNL     1      24.479   1.195  23.262  0.00  0.00    +0.038 A 
ATOM     21  C   UNL     1      24.419   1.597  20.880  0.00  0.00    +0.000 A 
ATOM     22  C   UNL     1      24.550   0.716  21.953  0.00  0.00    +0.003 A 
ENDBRANCH  13  15
ENDBRANCH   3  13
ENDBRANCH  14   9
TORSDOF 5
ENDMDL
MODEL 5
REMARK VINA RESULT:      -7.2     27.083     30.157
REMARK  Name = 45783659
REMARK  5 active torsions:
REMARK  status: ('A' for Active; 'I' for Inactive)
REMARK    1  A    between atoms: N_3  and  C_13
REMARK    2  A    between atoms: N_7  and  C_26
REMARK    3  A    between atoms: C_9  and  C_14
REMARK    4  A    between atoms: C_13  and  C_15
REMARK    5  A    between atoms: C_18  and  C_19
REMARK                            x       y       z     vdW  Elec       q    Type
REMARK                         _______ _______ _______ _____ _____    ______ ____
ROOT
ATOM      2  O   UNL     1      -4.962  -9.849  16.145  0.00  0.00    -0.336 OA
ATOM      4  N   UNL     1      -5.101 -11.937  16.945  0.00  0.00    -0.190 NA
ATOM      5  N   UNL     1      -6.144  -9.901  16.894  0.00  0.00    -0.056 NA
ATOM     14  C   UNL     1      -4.410 -11.089  16.227  0.00  0.00    +0.245 A 
ATOM     18  C   UNL     1      -6.157 -11.163  17.334  0.00  0.00    +0.204 A 
ENDROOT
BRANCH  18  19
ATOM      6  N   UNL     1      -8.909 -11.285  19.831  0.00  0.00    -0.237 NA
ATOM     19  C   UNL     1      -7.208 -11.683  18.160  0.00  0.00    +0.041 A 
ATOM     23  C   UNL     1      -7.552 -13.030  18.119  0.00  0.00    +0.017 A 
ATOM     24  C   UNL     1      -7.910 -10.859  19.025  0.00  0.00    +0.124 A 
ATOM     25  C   UNL     1      -8.574 -13.504  18.934  0.00  0.00    +0.047 A 
ATOM     26  C   UNL     1      -9.216 -12.599  19.765  0.00  0.00    +0.139 A 
BRANCH  26   7
ATOM      7  N   UNL     1     -10.235 -13.068  20.577  0.00  0.00    -0.290 N 
ATOM      8  N   UNL     1     -12.213 -13.173  21.582  0.00  0.00    -0.244 NA
ATOM     27  C   UNL     1     -10.199 -14.188  21.359  0.00  0.00    +0.114 A 
ATOM     28  C   UNL     1     -11.464 -12.492  20.745  0.00  0.00    +0.205 A 
ATOM     29  C   UNL     1     -11.430 -14.232  21.969  0.00  0.00    +0.130 A 
ENDBRANCH  26   7
ENDBRANCH  18  19
BRANCH  14   9
ATOM      3  N   UNL     1      -3.041 -10.538  14.224  0.00  0.00    -0.287 NA
ATOM      9  C   UNL     1      -3.103 -11.295  15.490  0.00  0.00    +0.146 C 
ATOM     10  C   UNL     1      -1.883 -10.811  16.296  0.00  0.00    +0.030 C 
ATOM     11  C   UNL     1      -1.163  -9.833  15.379  0.00  0.00    +0.017 C 
ATOM     12  C   UNL     1      -1.628 -10.235  13.993  0.00  0.00    +0.085 C 
BRANCH   3  13
ATOM     13  C   UNL     1      -3.638 -11.248  13.101  0.00  0.00    +0.123 C 
BRANCH  13  15
ATOM      1  F   UNL     1      -5.980  -9.653  13.150  0.00  0.00    -0.205 F 
ATOM     15  C   UNL     1      -4.019 -10.311  11.984  0.00  0.00    +0.002 A 
ATOM     16  C   UNL     1      -5.188  -9.555  12.073  0.00  0.00    +0.128 A 
ATOM     17  C   UNL     1      -3.201 -10.201  10.860  0.00  0.00    +0.008 A 
ATOM     20  C   UNL     1      -5.538  -8.689  11.038  0.00  0.00    +0.038 A 
ATOM     21  C   UNL     1      -3.551  -9.335   9.824  0.00  0.00    +0.000 A 
ATOM     22  C   UNL     1      -4.720  -8.579   9.913  0.00  0.00    +0.003 A 
ENDBRANCH  13  15
ENDBRANCH   3  13
ENDBRANCH  14   9
TORSDOF 5
ENDMDL
MODEL 6
REMARK VINA RESULT:      -7.1     16.894     20.887
REMARK  Name = 45783659
REMARK  5 active torsions:
REMARK  status: ('A' for Active; 'I' for Inactive)
REMARK    1  A    between atoms: N_3  and  C_13
REMARK    2  A    between atoms: N_7  and  C_26
REMARK    3  A    between atoms: C_9  and  C_14
REMARK    4  A    between atoms: C_13  and  C_15
REMARK    5  A    between atoms: C_18  and  C_19
REMARK                            x       y       z     vdW  Elec       q    Type
REMARK                         _______ _______ _______ _____ _____    ______ ____
ROOT
ATOM      2  O   UNL     1      10.311   6.881  -1.428  0.00  0.00    -0.336 OA
ATOM      4  N   UNL     1      10.422   5.144  -0.018  0.00  0.00    -0.190 NA
ATOM      5  N   UNL     1      10.052   7.398  -0.153  0.00  0.00    -0.056 NA
ATOM     14  C   UNL     1      10.518   5.548  -1.260  0.00  0.00    +0.245 A 
ATOM     18  C   UNL     1      10.136   6.314   0.625  0.00  0.00    +0.204 A 
ENDROOT
BRANCH  18  19
ATOM      6  N   UNL     1       8.959   7.481   3.953  0.00  0.00    -0.237 NA
ATOM     19  C   UNL     1       9.936   6.365   2.044  0.00  0.00    +0.041 A 
ATOM     23  C   UNL     1      10.494   5.404   2.881  0.00  0.00    +0.017 A 
ATOM     24  C   UNL     1       9.184   7.373   2.624  0.00  0.00    +0.124 A 
ATOM     25  C   UNL     1      10.285   5.481   4.254  0.00  0.00    +0.047 A 
ATOM     26  C   UNL     1       9.517   6.530   4.735  0.00  0.00    +0.139 A 
BRANCH  26   7
ATOM      7  N   UNL     1       9.305   6.610   6.102  0.00  0.00    -0.290 N 
ATOM      8  N   UNL     1       8.589   7.390   8.054  0.00  0.00    -0.244 NA
ATOM     27  C   UNL     1       9.748   5.725   7.044  0.00  0.00    +0.114 A 
ATOM     28  C   UNL     1       8.615   7.593   6.756  0.00  0.00    +0.205 A 
ATOM     29  C   UNL     1       9.294   6.227   8.241  0.00  0.00    +0.130 A 
ENDBRANCH  26   7
ENDBRANCH  18  19
BRANCH  14   9
ATOM      3  N   UNL     1      11.674   3.573  -2.236  0.00  0.00    -0.287 NA
ATOM      9  C   UNL     1      10.823   4.749  -2.509  0.00  0.00    +0.146 C 
ATOM     10  C   UNL     1       9.557   4.172  -3.169  0.00  0.00    +0.030 C 
ATOM     11  C   UNL     1       9.814   2.675  -3.281  0.00  0.00    +0.017 C 
ATOM     12  C   UNL     1      11.325   2.569  -3.242  0.00  0.00    +0.085 C 
BRANCH   3  13
ATOM     13  C   UNL     1      13.097   3.881  -2.240  0.00  0.00    +0.123 C 
BRANCH  13  15
ATOM      1  F   UNL     1      15.777   4.594  -1.660  0.00  0.00    -0.205 F 
ATOM     15  C   UNL     1      13.701   3.762  -0.865  0.00  0.00    +0.002 A 
ATOM     16  C   UNL     1      15.028   4.130  -0.649  0.00  0.00    +0.128 A 
ATOM     17  C   UNL     1      12.929   3.280   0.193  0.00  0.00    +0.008 A 
ATOM     20  C   UNL     1      15.584   4.018   0.625  0.00  0.00    +0.038 A 
ATOM     21  C   UNL     1      13.485   3.168   1.467  0.00  0.00    +0.000 A 
ATOM     22  C   UNL     1      14.813   3.537   1.683  0.00  0.00    +0.003 A 
ENDBRANCH  13  15
ENDBRANCH   3  13
ENDBRANCH  14   9
TORSDOF 5
ENDMDL
MODEL 7
REMARK VINA RESULT:      -6.8     26.625     29.979
REMARK  Name = 45783659
REMARK  5 active torsions:
REMARK  status: ('A' for Active; 'I' for Inactive)
REMARK    1  A    between atoms: N_3  and  C_13
REMARK    2  A    between atoms: N_7  and  C_26
REMARK    3  A    between atoms: C_9  and  C_14
REMARK    4  A    between atoms: C_13  and  C_15
REMARK    5  A    between atoms: C_18  and  C_19
REMARK                            x       y       z     vdW  Elec       q    Type
REMARK                         _______ _______ _______ _____ _____    ______ ____
ROOT
ATOM      2  O   UNL     1      -4.003 -10.968  17.939  0.00  0.00    -0.336 OA
ATOM      4  N   UNL     1      -5.490 -10.808  16.271  0.00  0.00    -0.190 NA
ATOM      5  N   UNL     1      -5.239 -10.708  18.543  0.00  0.00    -0.056 NA
ATOM     14  C   UNL     1      -4.239 -11.011  16.601  0.00  0.00    +0.245 A 
ATOM     18  C   UNL     1      -6.065 -10.627  17.496  0.00  0.00    +0.204 A 
ENDROOT
BRANCH  18  19
ATOM      6  N   UNL     1      -9.609 -11.018  18.551  0.00  0.00    -0.237 NA
ATOM     19  C   UNL     1      -7.468 -10.365  17.637  0.00  0.00    +0.041 A 
ATOM     23  C   UNL     1      -8.055  -9.259  17.031  0.00  0.00    +0.017 A 
ATOM     24  C   UNL     1      -8.281 -11.205  18.380  0.00  0.00    +0.124 A 
ATOM     25  C   UNL     1      -9.418  -9.032  17.185  0.00  0.00    +0.047 A 
ATOM     26  C   UNL     1     -10.145  -9.933  17.948  0.00  0.00    +0.139 A 
BRANCH  26   7
ATOM      7  N   UNL     1     -11.503  -9.710  18.104  0.00  0.00    -0.290 N 
ATOM      8  N   UNL     1     -13.499  -9.620  19.075  0.00  0.00    -0.244 NA
ATOM     27  C   UNL     1     -12.362  -9.237  17.152  0.00  0.00    +0.114 A 
ATOM     28  C   UNL     1     -12.232  -9.926  19.241  0.00  0.00    +0.205 A 
ATOM     29  C   UNL     1     -13.586  -9.190  17.774  0.00  0.00    +0.130 A 
ENDBRANCH  26   7
ENDBRANCH  18  19
BRANCH  14   9
ATOM      3  N   UNL     1      -3.117 -10.561  14.427  0.00  0.00    -0.287 NA
ATOM      9  C   UNL     1      -3.043 -11.283  15.713  0.00  0.00    +0.146 C 
ATOM     10  C   UNL     1      -1.717 -10.823  16.345  0.00  0.00    +0.030 C 
ATOM     11  C   UNL     1      -1.087  -9.894  15.316  0.00  0.00    +0.017 C 
ATOM     12  C   UNL     1      -1.735 -10.314  14.012  0.00  0.00    +0.085 C 
BRANCH   3  13
ATOM     13  C   UNL     1      -3.874 -11.277  13.409  0.00  0.00    +0.123 C 
BRANCH  13  15
ATOM      1  F   UNL     1      -2.635 -10.820  10.903  0.00  0.00    -0.205 F 
ATOM     15  C   UNL     1      -4.439 -10.344  12.371  0.00  0.00    +0.002 A 
ATOM     16  C   UNL     1      -3.776 -10.164  11.156  0.00  0.00    +0.128 A 
ATOM     17  C   UNL     1      -5.627  -9.658  12.625  0.00  0.00    +0.008 A 
ATOM     20  C   UNL     1      -4.302  -9.299  10.197  0.00  0.00    +0.038 A 
ATOM     21  C   UNL     1      -6.152  -8.793  11.666  0.00  0.00    +0.000 A 
ATOM     22  C   UNL     1      -5.489  -8.613  10.452  0.00  0.00    +0.003 A 
ENDBRANCH  13  15
ENDBRANCH   3  13
ENDBRANCH  14   9
TORSDOF 5
ENDMDL
MODEL 8
REMARK VINA RESULT:      -6.8     29.673     31.627
REMARK  Name = 45783659
REMARK  5 active torsions:
REMARK  status: ('A' for Active; 'I' for Inactive)
REMARK    1  A    between atoms: N_3  and  C_13
REMARK    2  A    between atoms: N_7  and  C_26
REMARK    3  A    between atoms: C_9  and  C_14
REMARK    4  A    between atoms: C_13  and  C_15
REMARK    5  A    between atoms: C_18  and  C_19
REMARK                            x       y       z     vdW  Elec       q    Type
REMARK                         _______ _______ _______ _____ _____    ______ ____
ROOT
ATOM      2  O   UNL     1     -14.283  -5.222  13.769  0.00  0.00    -0.336 OA
ATOM      4  N   UNL     1     -12.050  -5.113  13.612  0.00  0.00    -0.190 NA
ATOM      5  N   UNL     1     -13.783  -6.201  14.635  0.00  0.00    -0.056 NA
ATOM     14  C   UNL     1     -13.197  -4.628  13.206  0.00  0.00    +0.245 A 
ATOM     18  C   UNL     1     -12.461  -6.076  14.488  0.00  0.00    +0.204 A 
ENDROOT
BRANCH  18  19
ATOM      6  N   UNL     1     -10.082  -8.838  15.222  0.00  0.00    -0.237 NA
ATOM     19  C   UNL     1     -11.523  -6.897  15.198  0.00  0.00    +0.041 A 
ATOM     23  C   UNL     1     -11.146  -6.591  16.501  0.00  0.00    +0.017 A 
ATOM     24  C   UNL     1     -10.968  -8.021  14.609  0.00  0.00    +0.124 A 
ATOM     25  C   UNL     1     -10.236  -7.407  17.165  0.00  0.00    +0.047 A 
ATOM     26  C   UNL     1      -9.738  -8.509  16.487  0.00  0.00    +0.139 A 
BRANCH  26   7
ATOM      7  N   UNL     1      -8.831  -9.325  17.144  0.00  0.00    -0.290 N 
ATOM      8  N   UNL     1      -8.050 -10.863  18.543  0.00  0.00    -0.244 NA
ATOM     27  C   UNL     1      -7.479  -9.357  16.948  0.00  0.00    +0.114 A 
ATOM     28  C   UNL     1      -9.127 -10.245  18.111  0.00  0.00    +0.205 A 
ATOM     29  C   UNL     1      -7.020 -10.313  17.822  0.00  0.00    +0.130 A 
ENDBRANCH  26   7
ENDBRANCH  18  19
BRANCH  14   9
ATOM      3  N   UNL     1     -13.258  -3.936  10.817  0.00  0.00    -0.287 NA
ATOM      9  C   UNL     1     -13.473  -3.516  12.216  0.00  0.00    +0.146 C 
ATOM     10  C   UNL     1     -14.934  -3.031  12.260  0.00  0.00    +0.030 C 
ATOM     11  C   UNL     1     -15.438  -3.158  10.829  0.00  0.00    +0.017 C 
ATOM     12  C   UNL     1     -14.169  -3.133  10.000  0.00  0.00    +0.085 C 
BRANCH   3  13
ATOM     13  C   UNL     1     -11.874  -3.804  10.384  0.00  0.00    +0.123 C 
BRANCH  13  15
ATOM      1  F   UNL     1      -9.515  -3.879   8.818  0.00  0.00    -0.205 F 
ATOM     15  C   UNL     1     -11.378  -5.053   9.704  0.00  0.00    +0.002 A 
ATOM     16  C   UNL     1     -10.207  -5.020   8.946  0.00  0.00    +0.128 A 
ATOM     17  C   UNL     1     -12.092  -6.245   9.832  0.00  0.00    +0.008 A 
ATOM     20  C   UNL     1      -9.751  -6.177   8.317  0.00  0.00    +0.038 A 
ATOM     21  C   UNL     1     -11.635  -7.402   9.203  0.00  0.00    +0.000 A 
ATOM     22  C   UNL     1     -10.465  -7.369   8.445  0.00  0.00    +0.003 A 
ENDBRANCH  13  15
ENDBRANCH   3  13
ENDBRANCH  14   9
TORSDOF 5
ENDMDL
MODEL 9
REMARK VINA RESULT:      -6.8     27.338     30.012
REMARK  Name = 45783659
REMARK  5 active torsions:
REMARK  status: ('A' for Active; 'I' for Inactive)
REMARK    1  A    between atoms: N_3  and  C_13
REMARK    2  A    between atoms: N_7  and  C_26
REMARK    3  A    between atoms: C_9  and  C_14
REMARK    4  A    between atoms: C_13  and  C_15
REMARK    5  A    between atoms: C_18  and  C_19
REMARK                            x       y       z     vdW  Elec       q    Type
REMARK                         _______ _______ _______ _____ _____    ______ ____
ROOT
ATOM      2  O   UNL     1      -7.160 -10.690  20.079  0.00  0.00    -0.336 OA
ATOM      4  N   UNL     1      -7.680 -11.445  18.035  0.00  0.00    -0.190 NA
ATOM      5  N   UNL     1      -6.059 -10.399  19.265  0.00  0.00    -0.056 NA
ATOM     14  C   UNL     1      -8.070 -11.305  19.278  0.00  0.00    +0.245 A 
ATOM     18  C   UNL     1      -6.441 -10.874  18.076  0.00  0.00    +0.204 A 
ENDROOT
BRANCH  18  19
ATOM      6  N   UNL     1      -5.419 -10.417  14.530  0.00  0.00    -0.237 NA
ATOM     19  C   UNL     1      -5.609 -10.796  16.910  0.00  0.00    +0.041 A 
ATOM     23  C   UNL     1      -4.238 -11.016  16.992  0.00  0.00    +0.017 A 
ATOM     24  C   UNL     1      -6.146 -10.502  15.667  0.00  0.00    +0.124 A 
ATOM     25  C   UNL     1      -3.458 -10.936  15.844  0.00  0.00    +0.047 A 
ATOM     26  C   UNL     1      -4.091 -10.636  14.648  0.00  0.00    +0.139 A 
BRANCH  26   7
ATOM      7  N   UNL     1      -3.317 -10.556  13.502  0.00  0.00    -0.290 N 
ATOM      8  N   UNL     1      -2.777 -10.609  11.348  0.00  0.00    -0.244 NA
ATOM     27  C   UNL     1      -1.984 -10.263  13.443  0.00  0.00    +0.114 A 
ATOM     28  C   UNL     1      -3.749 -10.756  12.220  0.00  0.00    +0.205 A 
ATOM     29  C   UNL     1      -1.673 -10.302  12.104  0.00  0.00    +0.130 A 
ENDBRANCH  26   7
ENDBRANCH  18  19
BRANCH  14   9
ATOM      3  N   UNL     1     -10.554 -11.329  19.142  0.00  0.00    -0.287 NA
ATOM      9  C   UNL     1      -9.370 -11.726  19.930  0.00  0.00    +0.146 C 
ATOM     10  C   UNL     1      -9.492 -13.254  20.079  0.00  0.00    +0.030 C 
ATOM     11  C   UNL     1     -10.805 -13.615  19.398  0.00  0.00    +0.017 C 
ATOM     12  C   UNL     1     -11.592 -12.320  19.429  0.00  0.00    +0.085 C 
BRANCH   3  13
ATOM     13  C   UNL     1     -11.001  -9.971  19.423  0.00  0.00    +0.123 C 
BRANCH  13  15
ATOM      1  F   UNL     1      -9.132  -8.539  17.848  0.00  0.00    -0.205 F 
ATOM     15  C   UNL     1     -11.379  -9.234  18.165  0.00  0.00    +0.002 A 
ATOM     16  C   UNL     1     -10.408  -8.547  17.437  0.00  0.00    +0.128 A 
ATOM     17  C   UNL     1     -12.704  -9.238  17.728  0.00  0.00    +0.008 A 
ATOM     20  C   UNL     1     -10.761  -7.866  16.273  0.00  0.00    +0.038 A 
ATOM     21  C   UNL     1     -13.057  -8.557  16.565  0.00  0.00    +0.000 A 
ATOM     22  C   UNL     1     -12.086  -7.870  15.837  0.00  0.00    +0.003 A 
ENDBRANCH  13  15
ENDBRANCH   3  13
ENDBRANCH  14   9
TORSDOF 5
ENDMDL
MODEL 10
REMARK VINA RESULT:      -6.8     15.353     19.014
REMARK  Name = 45783659
REMARK  5 active torsions:
REMARK  status: ('A' for Active; 'I' for Inactive)
REMARK    1  A    between atoms: N_3  and  C_13
REMARK    2  A    between atoms: N_7  and  C_26
REMARK    3  A    between atoms: C_9  and  C_14
REMARK    4  A    between atoms: C_13  and  C_15
REMARK    5  A    between atoms: C_18  and  C_19
REMARK                            x       y       z     vdW  Elec       q    Type
REMARK                         _______ _______ _______ _____ _____    ______ ____
ROOT
ATOM      2  O   UNL     1      10.053   4.605   5.596  0.00  0.00    -0.336 OA
ATOM      4  N   UNL     1      11.076   5.972   4.145  0.00  0.00    -0.190 NA
ATOM      5  N   UNL     1      10.236   3.862   4.424  0.00  0.00    -0.056 NA
ATOM     14  C   UNL     1      10.575   5.836   5.347  0.00  0.00    +0.245 A 
ATOM     18  C   UNL     1      10.845   4.735   3.616  0.00  0.00    +0.204 A 
ENDROOT
BRANCH  18  19
ATOM      6  N   UNL     1      10.622   4.158  -0.051  0.00  0.00    -0.237 NA
ATOM     19  C   UNL     1      11.234   4.405   2.275  0.00  0.00    +0.041 A 
ATOM     23  C   UNL     1      12.537   4.018   1.981  0.00  0.00    +0.017 A 
ATOM     24  C   UNL     1      10.322   4.459   1.233  0.00  0.00    +0.124 A 
ATOM     25  C   UNL     1      12.883   3.702   0.672  0.00  0.00    +0.047 A 
ATOM     26  C   UNL     1      11.897   3.787  -0.299  0.00  0.00    +0.139 A 
BRANCH  26   7
ATOM      7  N   UNL     1      12.238   3.474  -1.605  0.00  0.00    -0.290 N 
ATOM      8  N   UNL     1      13.245   3.603  -3.580  0.00  0.00    -0.244 NA
ATOM     27  C   UNL     1      11.736   2.443  -2.348  0.00  0.00    +0.114 A 
ATOM     28  C   UNL     1      13.139   4.142  -2.386  0.00  0.00    +0.205 A 
ATOM     29  C   UNL     1      12.373   2.543  -3.563  0.00  0.00    +0.130 A 
ENDBRANCH  26   7
ENDBRANCH  18  19
BRANCH  14   9
ATOM      3  N   UNL     1       9.391   7.802   6.308  0.00  0.00    -0.287 NA
ATOM      9  C   UNL     1      10.500   6.842   6.476  0.00  0.00    +0.146 C 
ATOM     10  C   UNL     1      10.243   6.182   7.844  0.00  0.00    +0.030 C 
ATOM     11  C   UNL     1       9.006   6.878   8.395  0.00  0.00    +0.017 C 
ATOM     12  C   UNL     1       8.982   8.201   7.655  0.00  0.00    +0.085 C 
BRANCH   3  13
ATOM     13  C   UNL     1       9.744   8.948   5.481  0.00  0.00    +0.123 C 
BRANCH  13  15
ATOM      1  F   UNL     1       8.117   7.677   3.541  0.00  0.00    -0.205 F 
ATOM     15  C   UNL     1       8.528   9.598   4.874  0.00  0.00    +0.002 A 
ATOM     16  C   UNL     1       7.771   8.915   3.922  0.00  0.00    +0.128 A 
ATOM     17  C   UNL     1       8.160  10.885   5.265  0.00  0.00    +0.008 A 
ATOM     20  C   UNL     1       6.647   9.519   3.362  0.00  0.00    +0.038 A 
ATOM     21  C   UNL     1       7.036  11.490   4.704  0.00  0.00    +0.000 A 
ATOM     22  C   UNL     1       6.279  10.807   3.753  0.00  0.00    +0.003 A 
ENDBRANCH  13  15
ENDBRANCH   3  13
ENDBRANCH  14   9
TORSDOF 5
ENDMDL
