MODEL 1
REMARK VINA RESULT:      -7.5      0.000      0.000
REMARK  Name = 75536859
REMARK  4 active torsions:
REMARK  status: ('A' for Active; 'I' for Inactive)
REMARK    1  A    between atoms: O_5  and  C_11
REMARK    2  A    between atoms: O_5  and  C_17
REMARK    3  A    between atoms: C_16  and  C_18
REMARK    4  A    between atoms: C_22  and  C_24
REMARK                            x       y       z     vdW  Elec       q    Type
REMARK                         _______ _______ _______ _____ _____    ______ ____
ROOT
ATOM      4  O   UNL     1      12.992   7.551  21.928  0.00  0.00    -0.375 OA
ATOM      6  O   UNL     1      11.499   7.799  17.343  0.00  0.00    -0.268 OA
ATOM      7  N   UNL     1      13.316   7.604  18.811  0.00  0.00    -0.290 N 
ATOM     11  C   UNL     1      15.054   7.866  20.663  0.00  0.00    +0.218 C 
ATOM     12  C   UNL     1      14.673   8.019  19.187  0.00  0.00    +0.155 C 
ATOM     13  C   UNL     1      12.612   6.659  19.679  0.00  0.00    +0.136 C 
ATOM     14  C   UNL     1      14.028   8.477  21.615  0.00  0.00    +0.206 C 
ATOM     15  C   UNL     1      12.028   7.365  20.896  0.00  0.00    +0.179 C 
ATOM     16  C   UNL     1      12.646   8.096  17.679  0.00  0.00    +0.267 C 
ENDROOT
BRANCH  16  18
ATOM      9  N   UNL     1      13.290  10.346  17.149  0.00  0.00    -0.247 NA
ATOM     10  N   UNL     1      14.696   9.476  14.883  0.00  0.00    -0.259 NA
ATOM     18  C   UNL     1      13.355   9.045  16.805  0.00  0.00    +0.144 A 
ATOM     20  C   UNL     1      14.045   8.618  15.692  0.00  0.00    +0.143 A 
ATOM     25  C   UNL     1      13.941  11.206  16.340  0.00  0.00    +0.131 A 
ATOM     26  C   UNL     1      14.631  10.778  15.227  0.00  0.00    +0.130 A 
ENDBRANCH  16  18
BRANCH  11   5
ATOM      5  O   UNL     1      16.305   8.533  20.836  0.00  0.00    -0.469 OA
BRANCH   5  17
ATOM      8  N   UNL     1      17.414   6.657  20.048  0.00  0.00    -0.221 NA
ATOM     17  C   UNL     1      17.421   7.744  20.851  0.00  0.00    +0.215 A 
ATOM     19  C   UNL     1      18.481   8.096  21.671  0.00  0.00    +0.068 A 
ATOM     21  C   UNL     1      19.606   7.278  21.669  0.00  0.00    +0.019 A 
ATOM     22  C   UNL     1      19.636   6.149  20.856  0.00  0.00    +0.073 A 
ATOM     23  C   UNL     1      18.524   5.885  20.071  0.00  0.00    +0.127 A 
BRANCH  22  24
ATOM      1  F   UNL     1      21.386   5.050  22.059  0.00  0.00    -0.166 F 
ATOM      2  F   UNL     1      20.558   4.001  20.351  0.00  0.00    -0.166 F 
ATOM      3  F   UNL     1      21.832   5.736  20.046  0.00  0.00    -0.166 F 
ATOM     24  C   UNL     1      20.822   5.254  20.831  0.00  0.00    +0.419 C 
ENDBRANCH  22  24
ENDBRANCH   5  17
ENDBRANCH  11   5
TORSDOF 4
ENDMDL
MODEL 2
REMARK VINA RESULT:      -6.8      2.794      4.407
REMARK  Name = 75536859
REMARK  4 active torsions:
REMARK  status: ('A' for Active; 'I' for Inactive)
REMARK    1  A    between atoms: O_5  and  C_11
REMARK    2  A    between atoms: O_5  and  C_17
REMARK    3  A    between atoms: C_16  and  C_18
REMARK    4  A    between atoms: C_22  and  C_24
REMARK                            x       y       z     vdW  Elec       q    Type
REMARK                         _______ _______ _______ _____ _____    ______ ____
ROOT
ATOM      4  O   UNL     1      11.680   6.205  20.544  0.00  0.00    -0.375 OA
ATOM      6  O   UNL     1      11.058  10.066  23.376  0.00  0.00    -0.268 OA
ATOM      7  N   UNL     1      11.751   9.248  21.291  0.00  0.00    -0.290 N 
ATOM     11  C   UNL     1      12.832   7.993  19.349  0.00  0.00    +0.218 C 
ATOM     12  C   UNL     1      12.741   9.258  20.208  0.00  0.00    +0.155 C 
ATOM     13  C   UNL     1      10.625   8.317  21.196  0.00  0.00    +0.136 C 
ATOM     14  C   UNL     1      12.958   6.714  20.173  0.00  0.00    +0.206 C 
ATOM     15  C   UNL     1      11.044   6.910  21.605  0.00  0.00    +0.179 C 
ATOM     16  C   UNL     1      11.847  10.063  22.431  0.00  0.00    +0.267 C 
ENDROOT
BRANCH  16  18
ATOM      9  N   UNL     1      14.152  10.491  22.944  0.00  0.00    -0.247 NA
ATOM     10  N   UNL     1      13.861  13.202  22.287  0.00  0.00    -0.259 NA
ATOM     18  C   UNL     1      12.978  11.001  22.525  0.00  0.00    +0.144 A 
ATOM     20  C   UNL     1      12.835  12.333  22.203  0.00  0.00    +0.143 A 
ATOM     25  C   UNL     1      15.180  11.359  23.029  0.00  0.00    +0.131 A 
ATOM     26  C   UNL     1      15.036  12.691  22.706  0.00  0.00    +0.130 A 
ENDBRANCH  16  18
BRANCH  11   5
ATOM      5  O   UNL     1      13.993   8.135  18.529  0.00  0.00    -0.469 OA
BRANCH   5  17
ATOM      8  N   UNL     1      15.623   6.490  18.641  0.00  0.00    -0.221 NA
ATOM     17  C   UNL     1      15.174   7.694  19.060  0.00  0.00    +0.215 A 
ATOM     19  C   UNL     1      15.834   8.491  19.982  0.00  0.00    +0.068 A 
ATOM     21  C   UNL     1      17.032   8.021  20.508  0.00  0.00    +0.019 A 
ATOM     22  C   UNL     1      17.527   6.786  20.101  0.00  0.00    +0.073 A 
ATOM     23  C   UNL     1      16.791   6.066  19.174  0.00  0.00    +0.127 A 
BRANCH  22  24
ATOM      1  F   UNL     1      19.904   6.978  20.276  0.00  0.00    -0.166 F 
ATOM      2  F   UNL     1      18.850   6.218  22.012  0.00  0.00    -0.166 F 
ATOM      3  F   UNL     1      19.061   4.975  20.240  0.00  0.00    -0.166 F 
ATOM     24  C   UNL     1      18.805   6.255  20.645  0.00  0.00    +0.419 C 
ENDBRANCH  22  24
ENDBRANCH   5  17
ENDBRANCH  11   5
TORSDOF 4
ENDMDL
MODEL 3
REMARK VINA RESULT:      -6.2     27.761     30.561
REMARK  Name = 75536859
REMARK  4 active torsions:
REMARK  status: ('A' for Active; 'I' for Inactive)
REMARK    1  A    between atoms: O_5  and  C_11
REMARK    2  A    between atoms: O_5  and  C_17
REMARK    3  A    between atoms: C_16  and  C_18
REMARK    4  A    between atoms: C_22  and  C_24
REMARK                            x       y       z     vdW  Elec       q    Type
REMARK                         _______ _______ _______ _____ _____    ______ ____
ROOT
ATOM      4  O   UNL     1      -8.663 -11.063  18.917  0.00  0.00    -0.375 OA
ATOM      6  O   UNL     1      -3.894 -11.806  19.014  0.00  0.00    -0.268 OA
ATOM      7  N   UNL     1      -5.676 -10.598  18.089  0.00  0.00    -0.290 N 
ATOM     11  C   UNL     1      -7.843  -9.819  16.986  0.00  0.00    +0.218 C 
ATOM     12  C   UNL     1      -6.331 -10.047  16.896  0.00  0.00    +0.155 C 
ATOM     13  C   UNL     1      -6.341 -10.440  19.383  0.00  0.00    +0.136 C 
ATOM     14  C   UNL     1      -8.606 -11.040  17.494  0.00  0.00    +0.206 C 
ATOM     15  C   UNL     1      -7.455 -11.465  19.555  0.00  0.00    +0.179 C 
ATOM     16  C   UNL     1      -4.461 -11.302  18.045  0.00  0.00    +0.267 C 
ENDROOT
BRANCH  16  18
ATOM      9  N   UNL     1      -4.221 -12.470  15.963  0.00  0.00    -0.247 NA
ATOM     10  N   UNL     1      -2.154 -10.750  15.164  0.00  0.00    -0.259 NA
ATOM     18  C   UNL     1      -3.792 -11.459  16.744  0.00  0.00    +0.144 A 
ATOM     20  C   UNL     1      -2.777 -10.615  16.351  0.00  0.00    +0.143 A 
ATOM     25  C   UNL     1      -3.599 -12.606  14.774  0.00  0.00    +0.131 A 
ATOM     26  C   UNL     1      -2.584 -11.761  14.383  0.00  0.00    +0.130 A 
ENDBRANCH  16  18
BRANCH  11   5
ATOM      5  O   UNL     1      -8.291  -9.506  15.666  0.00  0.00    -0.469 OA
BRANCH   5  17
ATOM      8  N   UNL     1     -10.265  -9.047  14.541  0.00  0.00    -0.221 NA
ATOM     17  C   UNL     1      -9.434  -8.762  15.568  0.00  0.00    +0.215 A 
ATOM     19  C   UNL     1      -9.675  -7.776  16.512  0.00  0.00    +0.068 A 
ATOM     21  C   UNL     1     -10.844  -7.033  16.392  0.00  0.00    +0.019 A 
ATOM     22  C   UNL     1     -11.724  -7.295  15.347  0.00  0.00    +0.073 A 
ATOM     23  C   UNL     1     -11.392  -8.304  14.456  0.00  0.00    +0.127 A 
BRANCH  22  24
ATOM      1  F   UNL     1     -13.833  -7.029  14.251  0.00  0.00    -0.166 F 
ATOM      2  F   UNL     1     -13.727  -6.439  16.335  0.00  0.00    -0.166 F 
ATOM      3  F   UNL     1     -12.761  -5.224  14.813  0.00  0.00    -0.166 F 
ATOM     24  C   UNL     1     -12.982  -6.519  15.191  0.00  0.00    +0.419 C 
ENDBRANCH  22  24
ENDBRANCH   5  17
ENDBRANCH  11   5
TORSDOF 4
ENDMDL
MODEL 4
REMARK VINA RESULT:      -6.1     31.705     33.596
REMARK  Name = 75536859
REMARK  4 active torsions:
REMARK  status: ('A' for Active; 'I' for Inactive)
REMARK    1  A    between atoms: O_5  and  C_11
REMARK    2  A    between atoms: O_5  and  C_17
REMARK    3  A    between atoms: C_16  and  C_18
REMARK    4  A    between atoms: C_22  and  C_24
REMARK                            x       y       z     vdW  Elec       q    Type
REMARK                         _______ _______ _______ _____ _____    ______ ____
ROOT
ATOM      4  O   UNL     1     -16.949   6.331  33.394  0.00  0.00    -0.375 OA
ATOM      6  O   UNL     1     -14.429  10.340  34.336  0.00  0.00    -0.268 OA
ATOM      7  N   UNL     1     -14.379   8.112  33.612  0.00  0.00    -0.290 N 
ATOM     11  C   UNL     1     -14.626   5.588  33.319  0.00  0.00    +0.218 C 
ATOM     12  C   UNL     1     -13.744   6.790  33.670  0.00  0.00    +0.155 C 
ATOM     13  C   UNL     1     -15.581   8.271  32.792  0.00  0.00    +0.136 C 
ATOM     14  C   UNL     1     -15.952   5.575  34.076  0.00  0.00    +0.206 C 
ATOM     15  C   UNL     1     -16.812   7.743  33.518  0.00  0.00    +0.179 C 
ATOM     16  C   UNL     1     -13.911   9.224  34.331  0.00  0.00    +0.267 C 
ENDROOT
BRANCH  16  18
ATOM      9  N   UNL     1     -11.554   9.553  34.643  0.00  0.00    -0.247 NA
ATOM     10  N   UNL     1     -11.644   8.289  37.145  0.00  0.00    -0.259 NA
ATOM     18  C   UNL     1     -12.701   9.064  35.154  0.00  0.00    +0.144 A 
ATOM     20  C   UNL     1     -12.745   8.443  36.383  0.00  0.00    +0.143 A 
ATOM     25  C   UNL     1     -10.453   9.400  35.404  0.00  0.00    +0.131 A 
ATOM     26  C   UNL     1     -10.497   8.779  36.633  0.00  0.00    +0.130 A 
ENDBRANCH  16  18
BRANCH  11   5
ATOM      5  O   UNL     1     -13.883   4.417  33.663  0.00  0.00    -0.469 OA
BRANCH   5  17
ATOM      8  N   UNL     1     -14.629   2.246  33.345  0.00  0.00    -0.221 NA
ATOM     17  C   UNL     1     -14.022   3.340  32.832  0.00  0.00    +0.215 A 
ATOM     19  C   UNL     1     -13.544   3.426  31.535  0.00  0.00    +0.068 A 
ATOM     21  C   UNL     1     -13.697   2.317  30.710  0.00  0.00    +0.019 A 
ATOM     22  C   UNL     1     -14.316   1.172  31.201  0.00  0.00    +0.073 A 
ATOM     23  C   UNL     1     -14.760   1.187  32.513  0.00  0.00    +0.127 A 
BRANCH  22  24
ATOM      1  F   UNL     1     -13.358  -0.773  30.193  0.00  0.00    -0.166 F 
ATOM      2  F   UNL     1     -15.431  -0.909  30.816  0.00  0.00    -0.166 F 
ATOM      3  F   UNL     1     -14.896   0.280  29.075  0.00  0.00    -0.166 F 
ATOM     24  C   UNL     1     -14.495  -0.030  30.344  0.00  0.00    +0.419 C 
ENDBRANCH  22  24
ENDBRANCH   5  17
ENDBRANCH  11   5
TORSDOF 4
ENDMDL
MODEL 5
REMARK VINA RESULT:      -6.0      4.530      9.063
REMARK  Name = 75536859
REMARK  4 active torsions:
REMARK  status: ('A' for Active; 'I' for Inactive)
REMARK    1  A    between atoms: O_5  and  C_11
REMARK    2  A    between atoms: O_5  and  C_17
REMARK    3  A    between atoms: C_16  and  C_18
REMARK    4  A    between atoms: C_22  and  C_24
REMARK                            x       y       z     vdW  Elec       q    Type
REMARK                         _______ _______ _______ _____ _____    ______ ____
ROOT
ATOM      4  O   UNL     1      20.046   9.575  21.443  0.00  0.00    -0.375 OA
ATOM      6  O   UNL     1      24.093   6.952  21.656  0.00  0.00    -0.268 OA
ATOM      7  N   UNL     1      21.796   6.987  21.193  0.00  0.00    -0.290 N 
ATOM     11  C   UNL     1      19.260   7.276  21.222  0.00  0.00    +0.218 C 
ATOM     12  C   UNL     1      20.479   6.356  21.341  0.00  0.00    +0.155 C 
ATOM     13  C   UNL     1      21.880   8.265  20.485  0.00  0.00    +0.136 C 
ATOM     14  C   UNL     1      19.356   8.518  22.104  0.00  0.00    +0.206 C 
ATOM     15  C   UNL     1      21.460   9.419  21.387  0.00  0.00    +0.179 C 
ATOM     16  C   UNL     1      22.975   6.443  21.729  0.00  0.00    +0.267 C 
ENDROOT
BRANCH  16  18
ATOM      9  N   UNL     1      23.123   4.048  21.710  0.00  0.00    -0.247 NA
ATOM     10  N   UNL     1      22.505   3.925  24.444  0.00  0.00    -0.259 NA
ATOM     18  C   UNL     1      22.891   5.157  22.440  0.00  0.00    +0.144 A 
ATOM     20  C   UNL     1      22.587   5.096  23.782  0.00  0.00    +0.143 A 
ATOM     25  C   UNL     1      23.041   2.875  22.371  0.00  0.00    +0.131 A 
ATOM     26  C   UNL     1      22.737   2.816  23.714  0.00  0.00    +0.130 A 
ENDBRANCH  16  18
BRANCH  11   5
ATOM      5  O   UNL     1      18.124   6.507  21.623  0.00  0.00    -0.469 OA
BRANCH   5  17
ATOM      8  N   UNL     1      15.944   7.296  21.613  0.00  0.00    -0.221 NA
ATOM     17  C   UNL     1      16.964   6.726  20.933  0.00  0.00    +0.215 A 
ATOM     19  C   UNL     1      16.898   6.360  19.599  0.00  0.00    +0.068 A 
ATOM     21  C   UNL     1      15.707   6.592  18.918  0.00  0.00    +0.019 A 
ATOM     22  C   UNL     1      14.635   7.176  19.584  0.00  0.00    +0.073 A 
ATOM     23  C   UNL     1      14.803   7.507  20.919  0.00  0.00    +0.127 A 
BRANCH  22  24
ATOM      1  F   UNL     1      12.417   6.453  19.059  0.00  0.00    -0.166 F 
ATOM      2  F   UNL     1      12.727   8.588  19.287  0.00  0.00    -0.166 F 
ATOM      3  F   UNL     1      13.497   7.560  17.532  0.00  0.00    -0.166 F 
ATOM     24  C   UNL     1      13.349   7.438  18.885  0.00  0.00    +0.419 C 
ENDBRANCH  22  24
ENDBRANCH   5  17
ENDBRANCH  11   5
TORSDOF 4
ENDMDL
MODEL 6
REMARK VINA RESULT:      -6.0     13.254     16.543
REMARK  Name = 75536859
REMARK  4 active torsions:
REMARK  status: ('A' for Active; 'I' for Inactive)
REMARK    1  A    between atoms: O_5  and  C_11
REMARK    2  A    between atoms: O_5  and  C_17
REMARK    3  A    between atoms: C_16  and  C_18
REMARK    4  A    between atoms: C_22  and  C_24
REMARK                            x       y       z     vdW  Elec       q    Type
REMARK                         _______ _______ _______ _____ _____    ______ ____
ROOT
ATOM      4  O   UNL     1       9.334  10.275   3.036  0.00  0.00    -0.375 OA
ATOM      6  O   UNL     1       9.740   6.552  -0.010  0.00  0.00    -0.268 OA
ATOM      7  N   UNL     1       9.768   7.281   2.217  0.00  0.00    -0.290 N 
ATOM     11  C   UNL     1      10.187   8.469   4.437  0.00  0.00    +0.218 C 
ATOM     12  C   UNL     1      10.408   7.250   3.537  0.00  0.00    +0.155 C 
ATOM     13  C   UNL     1       8.617   8.164   2.022  0.00  0.00    +0.136 C 
ATOM     14  C   UNL     1      10.477   9.794   3.737  0.00  0.00    +0.206 C 
ATOM     15  C   UNL     1       9.063   9.605   1.809  0.00  0.00    +0.179 C 
ATOM     16  C   UNL     1      10.227   6.533   1.120  0.00  0.00    +0.267 C 
ENDROOT
BRANCH  16  18
ATOM      9  N   UNL     1      11.116   4.384   1.714  0.00  0.00    -0.247 NA
ATOM     10  N   UNL     1      13.738   5.280   1.282  0.00  0.00    -0.259 NA
ATOM     18  C   UNL     1      11.383   5.643   1.316  0.00  0.00    +0.144 A 
ATOM     20  C   UNL     1      12.671   6.083   1.104  0.00  0.00    +0.143 A 
ATOM     25  C   UNL     1      12.182   3.579   1.893  0.00  0.00    +0.131 A 
ATOM     26  C   UNL     1      13.470   4.020   1.680  0.00  0.00    +0.130 A 
ENDBRANCH  16  18
BRANCH  11   5
ATOM      5  O   UNL     1      11.072   8.327   5.549  0.00  0.00    -0.469 OA
BRANCH   5  17
ATOM      8  N   UNL     1       9.377   7.534   6.917  0.00  0.00    -0.221 NA
ATOM     17  C   UNL     1      10.674   7.475   6.542  0.00  0.00    +0.215 A 
ATOM     19  C   UNL     1      11.604   6.612   7.099  0.00  0.00    +0.068 A 
ATOM     21  C   UNL     1      11.175   5.755   8.107  0.00  0.00    +0.019 A 
ATOM     22  C   UNL     1       9.848   5.787   8.521  0.00  0.00    +0.073 A 
ATOM     23  C   UNL     1       8.996   6.687   7.899  0.00  0.00    +0.127 A 
BRANCH  22  24
ATOM      1  F   UNL     1       8.252   5.353  10.248  0.00  0.00    -0.166 F 
ATOM      2  F   UNL     1       9.006   3.639   9.153  0.00  0.00    -0.166 F 
ATOM      3  F   UNL     1      10.290   4.670  10.572  0.00  0.00    -0.166 F 
ATOM     24  C   UNL     1       9.358   4.885   9.596  0.00  0.00    +0.419 C 
ENDBRANCH  22  24
ENDBRANCH   5  17
ENDBRANCH  11   5
TORSDOF 4
ENDMDL
MODEL 7
REMARK VINA RESULT:      -6.0     30.548     33.290
REMARK  Name = 75536859
REMARK  4 active torsions:
REMARK  status: ('A' for Active; 'I' for Inactive)
REMARK    1  A    between atoms: O_5  and  C_11
REMARK    2  A    between atoms: O_5  and  C_17
REMARK    3  A    between atoms: C_16  and  C_18
REMARK    4  A    between atoms: C_22  and  C_24
REMARK                            x       y       z     vdW  Elec       q    Type
REMARK                         _______ _______ _______ _____ _____    ______ ____
ROOT
ATOM      4  O   UNL     1     -19.026   5.208  27.530  0.00  0.00    -0.375 OA
ATOM      6  O   UNL     1     -16.618   3.683  31.428  0.00  0.00    -0.268 OA
ATOM      7  N   UNL     1     -16.548   4.149  29.132  0.00  0.00    -0.290 N 
ATOM     11  C   UNL     1     -16.950   4.311  26.616  0.00  0.00    +0.218 C 
ATOM     12  C   UNL     1     -16.137   3.742  27.783  0.00  0.00    +0.155 C 
ATOM     13  C   UNL     1     -17.322   5.383  29.281  0.00  0.00    +0.136 C 
ATOM     14  C   UNL     1     -18.456   4.133  26.789  0.00  0.00    +0.206 C 
ATOM     15  C   UNL     1     -18.788   5.154  28.933  0.00  0.00    +0.179 C 
ATOM     16  C   UNL     1     -16.267   3.396  30.283  0.00  0.00    +0.267 C 
ENDROOT
BRANCH  16  18
ATOM      9  N   UNL     1     -14.162   2.247  30.356  0.00  0.00    -0.247 NA
ATOM     10  N   UNL     1     -15.386  -0.173  29.640  0.00  0.00    -0.259 NA
ATOM     18  C   UNL     1     -15.488   2.157  30.134  0.00  0.00    +0.144 A 
ATOM     20  C   UNL     1     -16.089   0.968  29.783  0.00  0.00    +0.143 A 
ATOM     25  C   UNL     1     -13.457   1.106  30.214  0.00  0.00    +0.131 A 
ATOM     26  C   UNL     1     -14.059  -0.082  29.863  0.00  0.00    +0.130 A 
ENDBRANCH  16  18
BRANCH  11   5
ATOM      5  O   UNL     1     -16.530   3.612  25.443  0.00  0.00    -0.469 OA
BRANCH   5  17
ATOM      8  N   UNL     1     -14.598   3.970  24.213  0.00  0.00    -0.221 NA
ATOM     17  C   UNL     1     -15.864   4.346  24.500  0.00  0.00    +0.215 A 
ATOM     19  C   UNL     1     -16.512   5.413  23.899  0.00  0.00    +0.068 A 
ATOM     21  C   UNL     1     -15.814   6.144  22.944  0.00  0.00    +0.019 A 
ATOM     22  C   UNL     1     -14.508   5.789  22.622  0.00  0.00    +0.073 A 
ATOM     23  C   UNL     1     -13.950   4.703  23.279  0.00  0.00    +0.127 A 
BRANCH  22  24
ATOM      1  F   UNL     1     -12.493   6.036  21.359  0.00  0.00    -0.166 F 
ATOM      2  F   UNL     1     -14.342   6.607  20.381  0.00  0.00    -0.166 F 
ATOM      3  F   UNL     1     -13.523   7.850  21.966  0.00  0.00    -0.166 F 
ATOM     24  C   UNL     1     -13.735   6.549  21.605  0.00  0.00    +0.419 C 
ENDBRANCH  22  24
ENDBRANCH   5  17
ENDBRANCH  11   5
TORSDOF 4
ENDMDL
MODEL 8
REMARK VINA RESULT:      -5.9     15.009     17.848
REMARK  Name = 75536859
REMARK  4 active torsions:
REMARK  status: ('A' for Active; 'I' for Inactive)
REMARK    1  A    between atoms: O_5  and  C_11
REMARK    2  A    between atoms: O_5  and  C_17
REMARK    3  A    between atoms: C_16  and  C_18
REMARK    4  A    between atoms: C_22  and  C_24
REMARK                            x       y       z     vdW  Elec       q    Type
REMARK                         _______ _______ _______ _____ _____    ______ ____
ROOT
ATOM      4  O   UNL     1       8.290   5.825   5.437  0.00  0.00    -0.375 OA
ATOM      6  O   UNL     1      11.221   9.626   5.960  0.00  0.00    -0.268 OA
ATOM      7  N   UNL     1      10.753   7.652   4.787  0.00  0.00    -0.290 N 
ATOM     11  C   UNL     1      10.218   5.267   4.050  0.00  0.00    +0.218 C 
ATOM     12  C   UNL     1      11.240   6.398   4.201  0.00  0.00    +0.155 C 
ATOM     13  C   UNL     1       9.318   7.934   4.733  0.00  0.00    +0.136 C 
ATOM     14  C   UNL     1       9.438   4.987   5.332  0.00  0.00    +0.206 C 
ATOM     15  C   UNL     1       8.569   7.169   5.817  0.00  0.00    +0.179 C 
ATOM     16  C   UNL     1      11.590   8.579   5.429  0.00  0.00    +0.267 C 
ENDROOT
BRANCH  16  18
ATOM      9  N   UNL     1      13.777   8.756   4.456  0.00  0.00    -0.247 NA
ATOM     10  N   UNL     1      14.910   7.328   6.587  0.00  0.00    -0.259 NA
ATOM     18  C   UNL     1      13.034   8.297   5.482  0.00  0.00    +0.144 A 
ATOM     20  C   UNL     1      13.591   7.596   6.529  0.00  0.00    +0.143 A 
ATOM     25  C   UNL     1      15.097   8.490   4.514  0.00  0.00    +0.131 A 
ATOM     26  C   UNL     1      15.653   7.789   5.561  0.00  0.00    +0.130 A 
ENDBRANCH  16  18
BRANCH  11   5
ATOM      5  O   UNL     1      10.951   4.096   3.685  0.00  0.00    -0.469 OA
BRANCH   5  17
ATOM      8  N   UNL     1      12.464   3.366   2.089  0.00  0.00    -0.221 NA
ATOM     17  C   UNL     1      11.289   3.972   2.366  0.00  0.00    +0.215 A 
ATOM     19  C   UNL     1      10.423   4.465   1.403  0.00  0.00    +0.068 A 
ATOM     21  C   UNL     1      10.789   4.328   0.068  0.00  0.00    +0.019 A 
ATOM     22  C   UNL     1      11.992   3.710  -0.257  0.00  0.00    +0.073 A 
ATOM     23  C   UNL     1      12.786   3.250   0.781  0.00  0.00    +0.127 A 
BRANCH  22  24
ATOM      1  F   UNL     1      11.647   4.254  -2.561  0.00  0.00    -0.166 F 
ATOM      2  F   UNL     1      13.696   3.949  -1.919  0.00  0.00    -0.166 F 
ATOM      3  F   UNL     1      12.351   2.250  -2.099  0.00  0.00    -0.166 F 
ATOM     24  C   UNL     1      12.411   3.548  -1.674  0.00  0.00    +0.419 C 
ENDBRANCH  22  24
ENDBRANCH   5  17
ENDBRANCH  11   5
TORSDOF 4
ENDMDL
MODEL 9
REMARK VINA RESULT:      -5.9     14.802     18.178
REMARK  Name = 75536859
REMARK  4 active torsions:
REMARK  status: ('A' for Active; 'I' for Inactive)
REMARK    1  A    between atoms: O_5  and  C_11
REMARK    2  A    between atoms: O_5  and  C_17
REMARK    3  A    between atoms: C_16  and  C_18
REMARK    4  A    between atoms: C_22  and  C_24
REMARK                            x       y       z     vdW  Elec       q    Type
REMARK                         _______ _______ _______ _____ _____    ______ ____
ROOT
ATOM      4  O   UNL     1      13.102   8.394   2.484  0.00  0.00    -0.375 OA
ATOM      6  O   UNL     1      12.967   8.578   7.307  0.00  0.00    -0.268 OA
ATOM      7  N   UNL     1      12.703   7.267   5.382  0.00  0.00    -0.290 N 
ATOM     11  C   UNL     1      12.062   6.280   3.117  0.00  0.00    +0.218 C 
ATOM     12  C   UNL     1      11.918   6.272   4.642  0.00  0.00    +0.155 C 
ATOM     13  C   UNL     1      13.886   7.840   4.737  0.00  0.00    +0.136 C 
ATOM     14  C   UNL     1      11.878   7.665   2.503  0.00  0.00    +0.206 C 
ATOM     15  C   UNL     1      13.496   8.927   3.744  0.00  0.00    +0.179 C 
ATOM     16  C   UNL     1      12.356   7.725   6.664  0.00  0.00    +0.267 C 
ENDROOT
BRANCH  16  18
ATOM      9  N   UNL     1      11.331   5.956   7.921  0.00  0.00    -0.247 NA
ATOM     10  N   UNL     1       8.857   7.278   7.882  0.00  0.00    -0.259 NA
ATOM     18  C   UNL     1      11.168   7.148   7.313  0.00  0.00    +0.144 A 
ATOM     20  C   UNL     1       9.953   7.797   7.294  0.00  0.00    +0.143 A 
ATOM     25  C   UNL     1      10.235   5.437   8.510  0.00  0.00    +0.131 A 
ATOM     26  C   UNL     1       9.021   6.087   8.491  0.00  0.00    +0.130 A 
ENDBRANCH  16  18
BRANCH  11   5
ATOM      5  O   UNL     1      11.054   5.406   2.605  0.00  0.00    -0.469 OA
BRANCH   5  17
ATOM      8  N   UNL     1      10.560   5.005   0.376  0.00  0.00    -0.221 NA
ATOM     17  C   UNL     1      11.349   4.748   1.443  0.00  0.00    +0.215 A 
ATOM     19  C   UNL     1      12.421   3.871   1.422  0.00  0.00    +0.068 A 
ATOM     21  C   UNL     1      12.701   3.214   0.229  0.00  0.00    +0.019 A 
ATOM     22  C   UNL     1      11.912   3.452  -0.892  0.00  0.00    +0.073 A 
ATOM     23  C   UNL     1      10.862   4.348  -0.767  0.00  0.00    +0.127 A 
BRANCH  22  24
ATOM      1  F   UNL     1      12.272   1.405  -2.075  0.00  0.00    -0.166 F 
ATOM      2  F   UNL     1      11.229   2.983  -3.136  0.00  0.00    -0.166 F 
ATOM      3  F   UNL     1      13.362   3.160  -2.752  0.00  0.00    -0.166 F 
ATOM     24  C   UNL     1      12.185   2.765  -2.181  0.00  0.00    +0.419 C 
ENDBRANCH  22  24
ENDBRANCH   5  17
ENDBRANCH  11   5
TORSDOF 4
ENDMDL
MODEL 10
REMARK VINA RESULT:      -5.9     34.015     35.355
REMARK  Name = 75536859
REMARK  4 active torsions:
REMARK  status: ('A' for Active; 'I' for Inactive)
REMARK    1  A    between atoms: O_5  and  C_11
REMARK    2  A    between atoms: O_5  and  C_17
REMARK    3  A    between atoms: C_16  and  C_18
REMARK    4  A    between atoms: C_22  and  C_24
REMARK                            x       y       z     vdW  Elec       q    Type
REMARK                         _______ _______ _______ _____ _____    ______ ____
ROOT
ATOM      4  O   UNL     1      -6.412  -8.383  42.268  0.00  0.00    -0.375 OA
ATOM      6  O   UNL     1      -4.775 -11.584  39.045  0.00  0.00    -0.268 OA
ATOM      7  N   UNL     1      -6.039  -9.647  39.424  0.00  0.00    -0.290 N 
ATOM     11  C   UNL     1      -7.678  -7.871  40.247  0.00  0.00    +0.218 C 
ATOM     12  C   UNL     1      -7.268  -8.884  39.174  0.00  0.00    +0.155 C 
ATOM     13  C   UNL     1      -5.056  -9.095  40.357  0.00  0.00    +0.136 C 
ATOM     14  C   UNL     1      -7.696  -8.460  41.655  0.00  0.00    +0.206 C 
ATOM     15  C   UNL     1      -5.471  -9.345  41.801  0.00  0.00    +0.179 C 
ATOM     16  C   UNL     1      -5.776 -10.897  38.840  0.00  0.00    +0.267 C 
ENDROOT
BRANCH  16  18
ATOM      9  N   UNL     1      -6.650 -11.073  36.612  0.00  0.00    -0.247 NA
ATOM     10  N   UNL     1      -8.666 -12.823  37.474  0.00  0.00    -0.259 NA
ATOM     18  C   UNL     1      -6.764 -11.451  37.901  0.00  0.00    +0.144 A 
ATOM     20  C   UNL     1      -7.754 -12.311  38.324  0.00  0.00    +0.143 A 
ATOM     25  C   UNL     1      -7.562 -11.585  35.761  0.00  0.00    +0.131 A 
ATOM     26  C   UNL     1      -8.551 -12.444  36.185  0.00  0.00    +0.130 A 
ENDBRANCH  16  18
BRANCH  11   5
ATOM      5  O   UNL     1      -8.994  -7.427  39.912  0.00  0.00    -0.469 OA
BRANCH   5  17
ATOM      8  N   UNL     1     -10.425  -5.639  39.553  0.00  0.00    -0.221 NA
ATOM     17  C   UNL     1      -9.164  -6.078  39.762  0.00  0.00    +0.215 A 
ATOM     19  C   UNL     1      -8.056  -5.250  39.833  0.00  0.00    +0.068 A 
ATOM     21  C   UNL     1      -8.254  -3.882  39.677  0.00  0.00    +0.019 A 
ATOM     22  C   UNL     1      -9.537  -3.392  39.459  0.00  0.00    +0.073 A 
ATOM     23  C   UNL     1     -10.580  -4.304  39.406  0.00  0.00    +0.127 A 
BRANCH  22  24
ATOM      1  F   UNL     1      -8.802  -1.289  38.590  0.00  0.00    -0.166 F 
ATOM      2  F   UNL     1     -10.941  -1.646  38.623  0.00  0.00    -0.166 F 
ATOM      3  F   UNL     1      -9.875  -1.272  40.480  0.00  0.00    -0.166 F 
ATOM     24  C   UNL     1      -9.783  -1.936  39.289  0.00  0.00    +0.419 C 
ENDBRANCH  22  24
ENDBRANCH   5  17
ENDBRANCH  11   5
TORSDOF 4
ENDMDL
