MODEL 1
REMARK VINA RESULT:      -8.0      0.000      0.000
REMARK  Name = 11884093
REMARK  9 active torsions:
REMARK  status: ('A' for Active; 'I' for Inactive)
REMARK    1  A    between atoms: O_3  and  C_11
REMARK    2  A    between atoms: O_3  and  C_15
REMARK    3  A    between atoms: N_6  and  C_10
REMARK    4  A    between atoms: N_7  and  C_19
REMARK    5  A    between atoms: C_14  and  C_16
REMARK    6  A    between atoms: C_22  and  C_31
REMARK    7  A    between atoms: C_25  and  C_26
REMARK    8  A    between atoms: C_26  and  C_29
REMARK    9  A    between atoms: C_26  and  C_30
REMARK                            x       y       z     vdW  Elec       q    Type
REMARK                         _______ _______ _______ _____ _____    ______ ____
ROOT
ATOM      1  O   UNL     1     -17.393   4.683  25.419  0.00  0.00    -0.368 OA
ATOM      2  O   UNL     1     -16.482   2.331  23.676  0.00  0.00    -0.368 OA
ATOM      8  C   UNL     1     -16.064   2.768  24.986  0.00  0.00    +0.173 C 
ATOM      9  C   UNL     1     -16.088   4.283  24.971  0.00  0.00    +0.192 C 
ATOM     10  C   UNL     1     -17.108   2.400  26.013  0.00  0.00    +0.130 C 
ATOM     11  C   UNL     1     -15.875   4.599  23.510  0.00  0.00    +0.235 C 
ATOM     12  C   UNL     1     -18.116   3.527  25.867  0.00  0.00    +0.185 C 
ATOM     13  C   UNL     1     -16.631   3.480  22.829  0.00  0.00    +0.207 C 
ENDROOT
BRANCH  10   6
ATOM      4  O   UNL     1     -17.471   0.337  27.979  0.00  0.00    -0.270 OA
ATOM      6  N   UNL     1     -16.546   2.367  27.341  0.00  0.00    -0.304 N 
ATOM     14  C   UNL     1     -16.779   1.322  28.226  0.00  0.00    +0.244 C 
ATOM     32  H   UNL     1     -16.060   3.200  27.654  0.00  0.00    +0.149 HD
BRANCH  14  16
ATOM     16  C   UNL     1     -16.150   1.450  29.565  0.00  0.00    +0.037 A 
ATOM     17  C   UNL     1     -15.596   0.329  30.150  0.00  0.00    +0.013 A 
ATOM     18  C   UNL     1     -16.141   2.683  30.183  0.00  0.00    +0.013 A 
ATOM     20  C   UNL     1     -15.006   0.447  31.409  0.00  0.00    +0.004 A 
ATOM     21  C   UNL     1     -15.552   2.801  31.441  0.00  0.00    +0.004 A 
ATOM     22  C   UNL     1     -14.985   1.684  32.054  0.00  0.00    -0.050 A 
ATOM     31  C   UNL     1     -14.353   1.812  33.399  0.00  0.00    +0.044 C 
ENDBRANCH  14  16
ENDBRANCH  10   6
BRANCH  11   3
ATOM      3  O   UNL     1     -16.357   5.869  23.133  0.00  0.00    -0.442 OA
BRANCH   3  15
ATOM      5  O   UNL     1     -15.273   7.882  23.212  0.00  0.00    -0.226 OA
ATOM      7  N   UNL     1     -14.732   6.257  21.616  0.00  0.00    -0.251 N 
ATOM     15  C   UNL     1     -15.422   6.784  22.691  0.00  0.00    +0.405 C 
ATOM     33  H   UNL     1     -15.002   5.319  21.326  0.00  0.00    +0.158 HD
BRANCH   7  19
ATOM     19  C   UNL     1     -13.696   6.858  20.867  0.00  0.00    +0.036 A 
ATOM     23  C   UNL     1     -12.377   6.587  21.194  0.00  0.00    +0.024 A 
ATOM     24  C   UNL     1     -14.019   7.708  19.821  0.00  0.00    +0.024 A 
ATOM     25  C   UNL     1     -11.663   8.039  19.399  0.00  0.00    -0.045 A 
ATOM     27  C   UNL     1     -11.354   7.182  20.455  0.00  0.00    +0.006 A 
ATOM     28  C   UNL     1     -12.996   8.302  19.083  0.00  0.00    +0.006 A 
BRANCH  25  26
ATOM     26  C   UNL     1     -10.570   8.674  18.609  0.00  0.00    +0.013 C 
ATOM     29  C   UNL     1     -10.705   8.412  17.097  0.00  0.00    +0.012 C 
ATOM     30  C   UNL     1     -10.460  10.190  18.868  0.00  0.00    +0.012 C 
ENDBRANCH  25  26
ENDBRANCH   7  19
ENDBRANCH   3  15
ENDBRANCH  11   3
TORSDOF 6
ENDMDL
MODEL 2
REMARK VINA RESULT:      -7.5     26.897     30.418
REMARK  Name = 11884093
REMARK  9 active torsions:
REMARK  status: ('A' for Active; 'I' for Inactive)
REMARK    1  A    between atoms: O_3  and  C_11
REMARK    2  A    between atoms: O_3  and  C_15
REMARK    3  A    between atoms: N_6  and  C_10
REMARK    4  A    between atoms: N_7  and  C_19
REMARK    5  A    between atoms: C_14  and  C_16
REMARK    6  A    between atoms: C_22  and  C_31
REMARK    7  A    between atoms: C_25  and  C_26
REMARK    8  A    between atoms: C_26  and  C_29
REMARK    9  A    between atoms: C_26  and  C_30
REMARK                            x       y       z     vdW  Elec       q    Type
REMARK                         _______ _______ _______ _____ _____    ______ ____
ROOT
ATOM      1  O   UNL     1      12.376  10.194  20.901  0.00  0.00    -0.368 OA
ATOM      2  O   UNL     1      10.497   8.153  22.208  0.00  0.00    -0.368 OA
ATOM      8  C   UNL     1      11.557   8.965  22.756  0.00  0.00    +0.173 C 
ATOM      9  C   UNL     1      12.646   9.033  21.705  0.00  0.00    +0.192 C 
ATOM     10  C   UNL     1      11.095  10.397  22.892  0.00  0.00    +0.130 C 
ATOM     11  C   UNL     1      12.434   7.754  20.931  0.00  0.00    +0.235 C 
ATOM     12  C   UNL     1      11.296  10.936  21.487  0.00  0.00    +0.185 C 
ATOM     13  C   UNL     1      10.928   7.618  20.948  0.00  0.00    +0.207 C 
ENDROOT
BRANCH  10   6
ATOM      4  O   UNL     1      10.214  12.505  24.633  0.00  0.00    -0.270 OA
ATOM      6  N   UNL     1      11.899  11.116  23.850  0.00  0.00    -0.304 N 
ATOM     14  C   UNL     1      11.382  12.125  24.651  0.00  0.00    +0.244 C 
ATOM     32  H   UNL     1      12.896  10.935  23.840  0.00  0.00    +0.149 HD
BRANCH  14  16
ATOM     16  C   UNL     1      12.344  12.787  25.568  0.00  0.00    +0.037 A 
ATOM     17  C   UNL     1      13.545  12.161  25.837  0.00  0.00    +0.013 A 
ATOM     18  C   UNL     1      12.008  14.004  26.124  0.00  0.00    +0.013 A 
ATOM     20  C   UNL     1      14.450  12.782  26.699  0.00  0.00    +0.004 A 
ATOM     21  C   UNL     1      12.913  14.624  26.986  0.00  0.00    +0.004 A 
ATOM     22  C   UNL     1      14.133  14.013  27.274  0.00  0.00    -0.050 A 
ATOM     31  C   UNL     1      15.101  14.677  28.194  0.00  0.00    +0.044 C 
ENDBRANCH  14  16
ENDBRANCH  10   6
BRANCH  11   3
ATOM      3  O   UNL     1      12.947   7.799  19.619  0.00  0.00    -0.442 OA
BRANCH   3  15
ATOM      5  O   UNL     1      14.845   8.861  18.911  0.00  0.00    -0.226 OA
ATOM      7  N   UNL     1      14.935   6.844  20.095  0.00  0.00    -0.251 N 
ATOM     15  C   UNL     1      14.316   7.919  19.488  0.00  0.00    +0.405 C 
ATOM     33  H   UNL     1      14.320   6.157  20.527  0.00  0.00    +0.158 HD
BRANCH   7  19
ATOM     19  C   UNL     1      16.319   6.576  20.192  0.00  0.00    +0.036 A 
ATOM     23  C   UNL     1      16.952   5.894  19.166  0.00  0.00    +0.024 A 
ATOM     24  C   UNL     1      17.017   7.003  21.312  0.00  0.00    +0.024 A 
ATOM     25  C   UNL     1      19.034   6.052  20.382  0.00  0.00    -0.045 A 
ATOM     27  C   UNL     1      18.318   5.630  19.262  0.00  0.00    +0.006 A 
ATOM     28  C   UNL     1      18.382   6.738  21.407  0.00  0.00    +0.006 A 
BRANCH  25  26
ATOM     26  C   UNL     1      20.494   5.770  20.485  0.00  0.00    +0.013 C 
ATOM     29  C   UNL     1      21.173   6.577  21.608  0.00  0.00    +0.012 C 
ATOM     30  C   UNL     1      20.794   4.269  20.666  0.00  0.00    +0.012 C 
ENDBRANCH  25  26
ENDBRANCH   7  19
ENDBRANCH   3  15
ENDBRANCH  11   3
TORSDOF 6
ENDMDL
MODEL 3
REMARK VINA RESULT:      -7.4      2.032     10.338
REMARK  Name = 11884093
REMARK  9 active torsions:
REMARK  status: ('A' for Active; 'I' for Inactive)
REMARK    1  A    between atoms: O_3  and  C_11
REMARK    2  A    between atoms: O_3  and  C_15
REMARK    3  A    between atoms: N_6  and  C_10
REMARK    4  A    between atoms: N_7  and  C_19
REMARK    5  A    between atoms: C_14  and  C_16
REMARK    6  A    between atoms: C_22  and  C_31
REMARK    7  A    between atoms: C_25  and  C_26
REMARK    8  A    between atoms: C_26  and  C_29
REMARK    9  A    between atoms: C_26  and  C_30
REMARK                            x       y       z     vdW  Elec       q    Type
REMARK                         _______ _______ _______ _____ _____    ______ ____
ROOT
ATOM      1  O   UNL     1     -15.798   2.663  24.683  0.00  0.00    -0.368 OA
ATOM      2  O   UNL     1     -18.263   4.375  25.310  0.00  0.00    -0.368 OA
ATOM      8  C   UNL     1     -16.937   4.734  24.870  0.00  0.00    +0.173 C 
ATOM      9  C   UNL     1     -15.975   3.788  25.560  0.00  0.00    +0.192 C 
ATOM     10  C   UNL     1     -16.773   4.413  23.404  0.00  0.00    +0.130 C 
ATOM     11  C   UNL     1     -16.729   3.410  26.811  0.00  0.00    +0.235 C 
ATOM     12  C   UNL     1     -16.451   2.929  23.432  0.00  0.00    +0.185 C 
ATOM     13  C   UNL     1     -18.158   3.359  26.320  0.00  0.00    +0.207 C 
ENDROOT
BRANCH  10   6
ATOM      4  O   UNL     1     -16.393   4.991  20.616  0.00  0.00    -0.270 OA
ATOM      6  N   UNL     1     -15.694   5.172  22.820  0.00  0.00    -0.304 N 
ATOM     14  C   UNL     1     -15.594   5.400  21.454  0.00  0.00    +0.244 C 
ATOM     32  H   UNL     1     -14.937   5.443  23.438  0.00  0.00    +0.149 HD
BRANCH  14  16
ATOM     16  C   UNL     1     -14.411   6.178  21.008  0.00  0.00    +0.037 A 
ATOM     17  C   UNL     1     -13.176   5.879  21.548  0.00  0.00    +0.013 A 
ATOM     18  C   UNL     1     -14.582   7.175  20.071  0.00  0.00    +0.013 A 
ATOM     20  C   UNL     1     -12.063   6.611  21.130  0.00  0.00    +0.004 A 
ATOM     21  C   UNL     1     -13.470   7.907  19.653  0.00  0.00    +0.004 A 
ATOM     22  C   UNL     1     -12.211   7.625  20.184  0.00  0.00    -0.050 A 
ATOM     31  C   UNL     1     -11.022   8.406  19.736  0.00  0.00    +0.044 C 
ENDBRANCH  14  16
ENDBRANCH  10   6
BRANCH  11   3
ATOM      3  O   UNL     1     -16.317   2.181  27.367  0.00  0.00    -0.442 OA
BRANCH   3  15
ATOM      5  O   UNL     1     -15.789   1.187  29.359  0.00  0.00    -0.226 OA
ATOM      7  N   UNL     1     -15.628   3.503  29.061  0.00  0.00    -0.251 N 
ATOM     15  C   UNL     1     -15.894   2.202  28.681  0.00  0.00    +0.405 C 
ATOM     33  H   UNL     1     -15.776   4.217  28.350  0.00  0.00    +0.158 HD
BRANCH   7  19
ATOM     19  C   UNL     1     -15.175   3.969  30.316  0.00  0.00    +0.036 A 
ATOM     23  C   UNL     1     -14.035   3.414  30.875  0.00  0.00    +0.024 A 
ATOM     24  C   UNL     1     -15.881   4.971  30.964  0.00  0.00    +0.024 A 
ATOM     25  C   UNL     1     -14.288   4.882  32.778  0.00  0.00    -0.045 A 
ATOM     27  C   UNL     1     -13.589   3.874  32.114  0.00  0.00    +0.006 A 
ATOM     28  C   UNL     1     -15.435   5.429  32.202  0.00  0.00    +0.006 A 
BRANCH  25  26
ATOM     26  C   UNL     1     -13.811   5.373  34.102  0.00  0.00    +0.013 C 
ATOM     29  C   UNL     1     -13.803   6.910  34.193  0.00  0.00    +0.012 C 
ATOM     30  C   UNL     1     -14.621   4.785  35.275  0.00  0.00    +0.012 C 
ENDBRANCH  25  26
ENDBRANCH   7  19
ENDBRANCH   3  15
ENDBRANCH  11   3
TORSDOF 6
ENDMDL
MODEL 4
REMARK VINA RESULT:      -7.3     20.109     21.680
REMARK  Name = 11884093
REMARK  9 active torsions:
REMARK  status: ('A' for Active; 'I' for Inactive)
REMARK    1  A    between atoms: O_3  and  C_11
REMARK    2  A    between atoms: O_3  and  C_15
REMARK    3  A    between atoms: N_6  and  C_10
REMARK    4  A    between atoms: N_7  and  C_19
REMARK    5  A    between atoms: C_14  and  C_16
REMARK    6  A    between atoms: C_22  and  C_31
REMARK    7  A    between atoms: C_25  and  C_26
REMARK    8  A    between atoms: C_26  and  C_29
REMARK    9  A    between atoms: C_26  and  C_30
REMARK                            x       y       z     vdW  Elec       q    Type
REMARK                         _______ _______ _______ _____ _____    ______ ____
ROOT
ATOM      1  O   UNL     1      -3.839 -12.128  14.521  0.00  0.00    -0.368 OA
ATOM      2  O   UNL     1      -1.989 -10.852  16.607  0.00  0.00    -0.368 OA
ATOM      8  C   UNL     1      -3.331 -10.524  16.192  0.00  0.00    +0.173 C 
ATOM      9  C   UNL     1      -3.401 -10.771  14.698  0.00  0.00    +0.192 C 
ATOM     10  C   UNL     1      -4.310 -11.518  16.769  0.00  0.00    +0.130 C 
ATOM     11  C   UNL     1      -1.966 -10.585  14.269  0.00  0.00    +0.235 C 
ATOM     12  C   UNL     1      -4.205 -12.679  15.796  0.00  0.00    +0.185 C 
ATOM     13  C   UNL     1      -1.205 -11.157  15.444  0.00  0.00    +0.207 C 
ENDROOT
BRANCH  10   6
ATOM      4  O   UNL     1      -5.769 -10.671  19.095  0.00  0.00    -0.270 OA
ATOM      6  N   UNL     1      -5.647 -10.977  16.798  0.00  0.00    -0.304 N 
ATOM     14  C   UNL     1      -6.273 -10.594  17.977  0.00  0.00    +0.244 C 
ATOM     32  H   UNL     1      -6.167 -10.992  15.928  0.00  0.00    +0.149 HD
BRANCH  14  16
ATOM     16  C   UNL     1      -7.660 -10.081  17.842  0.00  0.00    +0.037 A 
ATOM     17  C   UNL     1      -8.656 -10.642  18.617  0.00  0.00    +0.013 A 
ATOM     18  C   UNL     1      -7.911  -9.063  16.945  0.00  0.00    +0.013 A 
ATOM     20  C   UNL     1      -9.960 -10.161  18.489  0.00  0.00    +0.004 A 
ATOM     21  C   UNL     1      -9.214  -8.583  16.818  0.00  0.00    +0.004 A 
ATOM     22  C   UNL     1     -10.238  -9.132  17.589  0.00  0.00    -0.050 A 
ATOM     31  C   UNL     1     -11.632  -8.617  17.453  0.00  0.00    +0.044 C 
ENDBRANCH  14  16
ENDBRANCH  10   6
BRANCH  11   3
ATOM      3  O   UNL     1      -1.650 -11.243  13.062  0.00  0.00    -0.442 OA
BRANCH   3  15
ATOM      5  O   UNL     1      -1.379  -9.630  11.462  0.00  0.00    -0.226 OA
ATOM      7  N   UNL     1      -3.099 -11.215  11.333  0.00  0.00    -0.251 N 
ATOM     15  C   UNL     1      -1.995 -10.598  11.892  0.00  0.00    +0.405 C 
ATOM     33  H   UNL     1      -3.473 -12.012  11.843  0.00  0.00    +0.158 HD
BRANCH   7  19
ATOM     19  C   UNL     1      -3.775 -10.875  10.139  0.00  0.00    +0.036 A 
ATOM     23  C   UNL     1      -4.110 -11.874   9.241  0.00  0.00    +0.024 A 
ATOM     24  C   UNL     1      -4.089  -9.547   9.891  0.00  0.00    +0.024 A 
ATOM     25  C   UNL     1      -5.100 -10.207   7.799  0.00  0.00    -0.045 A 
ATOM     27  C   UNL     1      -4.776 -11.538   8.062  0.00  0.00    +0.006 A 
ATOM     28  C   UNL     1      -4.755  -9.212   8.713  0.00  0.00    +0.006 A 
BRANCH  25  26
ATOM     26  C   UNL     1      -5.812  -9.848   6.539  0.00  0.00    +0.013 C 
ATOM     29  C   UNL     1      -5.881 -11.023   5.545  0.00  0.00    +0.012 C 
ATOM     30  C   UNL     1      -7.228  -9.299   6.798  0.00  0.00    +0.012 C 
ENDBRANCH  25  26
ENDBRANCH   7  19
ENDBRANCH   3  15
ENDBRANCH  11   3
TORSDOF 6
ENDMDL
MODEL 5
REMARK VINA RESULT:      -7.3     18.206     19.846
REMARK  Name = 11884093
REMARK  9 active torsions:
REMARK  status: ('A' for Active; 'I' for Inactive)
REMARK    1  A    between atoms: O_3  and  C_11
REMARK    2  A    between atoms: O_3  and  C_15
REMARK    3  A    between atoms: N_6  and  C_10
REMARK    4  A    between atoms: N_7  and  C_19
REMARK    5  A    between atoms: C_14  and  C_16
REMARK    6  A    between atoms: C_22  and  C_31
REMARK    7  A    between atoms: C_25  and  C_26
REMARK    8  A    between atoms: C_26  and  C_29
REMARK    9  A    between atoms: C_26  and  C_30
REMARK                            x       y       z     vdW  Elec       q    Type
REMARK                         _______ _______ _______ _____ _____    ______ ____
ROOT
ATOM      1  O   UNL     1      -6.762 -11.738  17.150  0.00  0.00    -0.368 OA
ATOM      2  O   UNL     1      -6.340 -10.915  20.074  0.00  0.00    -0.368 OA
ATOM      8  C   UNL     1      -6.946 -10.221  18.963  0.00  0.00    +0.173 C 
ATOM      9  C   UNL     1      -6.141 -10.579  17.730  0.00  0.00    +0.192 C 
ATOM     10  C   UNL     1      -8.315 -10.792  18.680  0.00  0.00    +0.130 C 
ATOM     11  C   UNL     1      -4.784 -10.901  18.308  0.00  0.00    +0.235 C 
ATOM     12  C   UNL     1      -7.988 -12.016  17.843  0.00  0.00    +0.185 C 
ATOM     13  C   UNL     1      -5.144 -11.566  19.617  0.00  0.00    +0.207 C 
ENDROOT
BRANCH  10   6
ATOM      4  O   UNL     1     -10.994  -9.975  19.320  0.00  0.00    -0.270 OA
ATOM      6  N   UNL     1      -9.129  -9.855  17.944  0.00  0.00    -0.304 N 
ATOM     14  C   UNL     1     -10.420  -9.521  18.333  0.00  0.00    +0.244 C 
ATOM     32  H   UNL     1      -8.765  -9.529  17.056  0.00  0.00    +0.149 HD
BRANCH  14  16
ATOM     16  C   UNL     1     -11.137  -8.562  17.454  0.00  0.00    +0.037 A 
ATOM     17  C   UNL     1     -10.478  -7.425  17.033  0.00  0.00    +0.013 A 
ATOM     18  C   UNL     1     -12.438  -8.837  17.088  0.00  0.00    +0.013 A 
ATOM     20  C   UNL     1     -11.151  -6.523  16.208  0.00  0.00    +0.004 A 
ATOM     21  C   UNL     1     -13.111  -7.935  16.265  0.00  0.00    +0.004 A 
ATOM     22  C   UNL     1     -12.468  -6.778  15.825  0.00  0.00    -0.050 A 
ATOM     31  C   UNL     1     -13.188  -5.814  14.943  0.00  0.00    +0.044 C 
ENDBRANCH  14  16
ENDBRANCH  10   6
BRANCH  11   3
ATOM      3  O   UNL     1      -4.007 -11.740  17.484  0.00  0.00    -0.442 OA
BRANCH   3  15
ATOM      5  O   UNL     1      -2.545 -10.443  16.295  0.00  0.00    -0.226 OA
ATOM      7  N   UNL     1      -4.282 -11.612  15.248  0.00  0.00    -0.251 N 
ATOM     15  C   UNL     1      -3.516 -11.189  16.317  0.00  0.00    +0.405 C 
ATOM     33  H   UNL     1      -5.056 -12.236  15.469  0.00  0.00    +0.158 HD
BRANCH   7  19
ATOM     19  C   UNL     1      -4.127 -11.285  13.882  0.00  0.00    +0.036 A 
ATOM     23  C   UNL     1      -3.129 -11.903  13.145  0.00  0.00    +0.024 A 
ATOM     24  C   UNL     1      -4.975 -10.352  13.306  0.00  0.00    +0.024 A 
ATOM     25  C   UNL     1      -3.822 -10.643  11.203  0.00  0.00    -0.045 A 
ATOM     27  C   UNL     1      -2.976 -11.580  11.797  0.00  0.00    +0.006 A 
ATOM     28  C   UNL     1      -4.821 -10.029  11.959  0.00  0.00    +0.006 A 
BRANCH  25  26
ATOM     26  C   UNL     1      -3.658 -10.297   9.762  0.00  0.00    +0.013 C 
ATOM     29  C   UNL     1      -4.433 -11.252   8.835  0.00  0.00    +0.012 C 
ATOM     30  C   UNL     1      -4.052  -8.839   9.457  0.00  0.00    +0.012 C 
ENDBRANCH  25  26
ENDBRANCH   7  19
ENDBRANCH   3  15
ENDBRANCH  11   3
TORSDOF 6
ENDMDL
MODEL 6
REMARK VINA RESULT:      -6.9     32.919     36.985
REMARK  Name = 11884093
REMARK  9 active torsions:
REMARK  status: ('A' for Active; 'I' for Inactive)
REMARK    1  A    between atoms: O_3  and  C_11
REMARK    2  A    between atoms: O_3  and  C_15
REMARK    3  A    between atoms: N_6  and  C_10
REMARK    4  A    between atoms: N_7  and  C_19
REMARK    5  A    between atoms: C_14  and  C_16
REMARK    6  A    between atoms: C_22  and  C_31
REMARK    7  A    between atoms: C_25  and  C_26
REMARK    8  A    between atoms: C_26  and  C_29
REMARK    9  A    between atoms: C_26  and  C_30
REMARK                            x       y       z     vdW  Elec       q    Type
REMARK                         _______ _______ _______ _____ _____    ______ ____
ROOT
ATOM      1  O   UNL     1      13.361   8.287   4.344  0.00  0.00    -0.368 OA
ATOM      2  O   UNL     1      12.733   8.247   7.345  0.00  0.00    -0.368 OA
ATOM      8  C   UNL     1      13.856   7.736   6.596  0.00  0.00    +0.173 C 
ATOM      9  C   UNL     1      13.306   7.205   5.288  0.00  0.00    +0.192 C 
ATOM     10  C   UNL     1      14.758   8.872   6.175  0.00  0.00    +0.130 C 
ATOM     11  C   UNL     1      11.885   6.850   5.651  0.00  0.00    +0.235 C 
ATOM     12  C   UNL     1      14.061   9.394   4.931  0.00  0.00    +0.185 C 
ATOM     13  C   UNL     1      11.524   7.943   6.633  0.00  0.00    +0.207 C 
ENDROOT
BRANCH  10   6
ATOM      4  O   UNL     1      17.200  10.373   6.366  0.00  0.00    -0.270 OA
ATOM      6  N   UNL     1      16.087   8.399   5.872  0.00  0.00    -0.304 N 
ATOM     14  C   UNL     1      17.212   9.203   5.995  0.00  0.00    +0.244 C 
ATOM     32  H   UNL     1      16.162   7.480   5.451  0.00  0.00    +0.149 HD
BRANCH  14  16
ATOM     16  C   UNL     1      18.505   8.576   5.619  0.00  0.00    +0.037 A 
ATOM     17  C   UNL     1      18.677   8.131   4.324  0.00  0.00    +0.013 A 
ATOM     18  C   UNL     1      19.492   8.456   6.576  0.00  0.00    +0.013 A 
ATOM     20  C   UNL     1      19.891   7.541   3.970  0.00  0.00    +0.004 A 
ATOM     21  C   UNL     1      20.705   7.866   6.222  0.00  0.00    +0.004 A 
ATOM     22  C   UNL     1      20.904   7.408   4.920  0.00  0.00    -0.050 A 
ATOM     31  C   UNL     1      22.203   6.778   4.542  0.00  0.00    +0.044 C 
ENDBRANCH  14  16
ENDBRANCH  10   6
BRANCH  11   3
ATOM      3  O   UNL     1      11.011   6.824   4.545  0.00  0.00    -0.442 OA
BRANCH   3  15
ATOM      5  O   UNL     1      10.721   4.593   4.131  0.00  0.00    -0.226 OA
ATOM      7  N   UNL     1      11.529   6.053   2.489  0.00  0.00    -0.251 N 
ATOM     15  C   UNL     1      11.058   5.703   3.740  0.00  0.00    +0.405 C 
ATOM     33  H   UNL     1      11.759   7.035   2.354  0.00  0.00    +0.158 HD
BRANCH   7  19
ATOM     19  C   UNL     1      11.732   5.214   1.369  0.00  0.00    +0.036 A 
ATOM     23  C   UNL     1      10.872   5.306   0.287  0.00  0.00    +0.024 A 
ATOM     24  C   UNL     1      12.787   4.316   1.377  0.00  0.00    +0.024 A 
ATOM     25  C   UNL     1      12.131   3.569  -0.825  0.00  0.00    -0.045 A 
ATOM     27  C   UNL     1      11.072   4.478  -0.817  0.00  0.00    +0.006 A 
ATOM     28  C   UNL     1      12.987   3.488   0.273  0.00  0.00    +0.006 A 
BRANCH  25  26
ATOM     26  C   UNL     1      12.345   2.684  -2.005  0.00  0.00    +0.013 C 
ATOM     29  C   UNL     1      11.036   2.044  -2.507  0.00  0.00    +0.012 C 
ATOM     30  C   UNL     1      13.050   3.410  -3.167  0.00  0.00    +0.012 C 
ENDBRANCH  25  26
ENDBRANCH   7  19
ENDBRANCH   3  15
ENDBRANCH  11   3
TORSDOF 6
ENDMDL
MODEL 7
REMARK VINA RESULT:      -6.8     33.019     36.610
REMARK  Name = 11884093
REMARK  9 active torsions:
REMARK  status: ('A' for Active; 'I' for Inactive)
REMARK    1  A    between atoms: O_3  and  C_11
REMARK    2  A    between atoms: O_3  and  C_15
REMARK    3  A    between atoms: N_6  and  C_10
REMARK    4  A    between atoms: N_7  and  C_19
REMARK    5  A    between atoms: C_14  and  C_16
REMARK    6  A    between atoms: C_22  and  C_31
REMARK    7  A    between atoms: C_25  and  C_26
REMARK    8  A    between atoms: C_26  and  C_29
REMARK    9  A    between atoms: C_26  and  C_30
REMARK                            x       y       z     vdW  Elec       q    Type
REMARK                         _______ _______ _______ _____ _____    ______ ____
ROOT
ATOM      1  O   UNL     1      20.772   5.605  21.960  0.00  0.00    -0.368 OA
ATOM      2  O   UNL     1      22.408   7.522  20.214  0.00  0.00    -0.368 OA
ATOM      8  C   UNL     1      22.809   6.437  21.076  0.00  0.00    +0.173 C 
ATOM      9  C   UNL     1      21.881   6.464  22.275  0.00  0.00    +0.192 C 
ATOM     10  C   UNL     1      22.510   5.113  20.416  0.00  0.00    +0.130 C 
ATOM     11  C   UNL     1      21.467   7.914  22.336  0.00  0.00    +0.235 C 
ATOM     12  C   UNL     1      21.035   4.923  20.725  0.00  0.00    +0.185 C 
ATOM     13  C   UNL     1      21.384   8.284  20.871  0.00  0.00    +0.207 C 
ENDROOT
BRANCH  10   6
ATOM      4  O   UNL     1      24.973   4.065  19.373  0.00  0.00    -0.270 OA
ATOM      6  N   UNL     1      23.306   4.053  20.986  0.00  0.00    -0.304 N 
ATOM     14  C   UNL     1      24.489   3.612  20.407  0.00  0.00    +0.244 C 
ATOM     32  H   UNL     1      22.910   3.555  21.775  0.00  0.00    +0.149 HD
BRANCH  14  16
ATOM     16  C   UNL     1      25.178   2.495  21.102  0.00  0.00    +0.037 A 
ATOM     17  C   UNL     1      26.479   2.676  21.525  0.00  0.00    +0.013 A 
ATOM     18  C   UNL     1      24.497   1.312  21.301  0.00  0.00    +0.013 A 
ATOM     20  C   UNL     1      27.127   1.627  22.177  0.00  0.00    +0.004 A 
ATOM     21  C   UNL     1      25.145   0.263  21.953  0.00  0.00    +0.004 A 
ATOM     22  C   UNL     1      26.460   0.420  22.390  0.00  0.00    -0.050 A 
ATOM     31  C   UNL     1      27.153  -0.702  23.088  0.00  0.00    +0.044 C 
ENDBRANCH  14  16
ENDBRANCH  10   6
BRANCH  11   3
ATOM      3  O   UNL     1      20.244   8.122  23.005  0.00  0.00    -0.442 OA
BRANCH   3  15
ATOM      5  O   UNL     1      18.961   9.699  21.956  0.00  0.00    -0.226 OA
ATOM      7  N   UNL     1      18.431   7.420  21.859  0.00  0.00    -0.251 N 
ATOM     15  C   UNL     1      19.172   8.525  22.234  0.00  0.00    +0.405 C 
ATOM     33  H   UNL     1      18.769   6.519  22.192  0.00  0.00    +0.158 HD
BRANCH   7  19
ATOM     19  C   UNL     1      17.258   7.385  21.071  0.00  0.00    +0.036 A 
ATOM     23  C   UNL     1      16.208   8.234  21.380  0.00  0.00    +0.024 A 
ATOM     24  C   UNL     1      17.182   6.502  20.006  0.00  0.00    +0.024 A 
ATOM     25  C   UNL     1      14.959   7.316  19.526  0.00  0.00    -0.045 A 
ATOM     27  C   UNL     1      15.050   8.199  20.602  0.00  0.00    +0.006 A 
ATOM     28  C   UNL     1      16.025   6.467  19.229  0.00  0.00    +0.006 A 
BRANCH  25  26
ATOM     26  C   UNL     1      13.722   7.278  18.695  0.00  0.00    +0.013 C 
ATOM     29  C   UNL     1      12.528   7.966  19.384  0.00  0.00    +0.012 C 
ATOM     30  C   UNL     1      13.934   7.881  17.293  0.00  0.00    +0.012 C 
ENDBRANCH  25  26
ENDBRANCH   7  19
ENDBRANCH   3  15
ENDBRANCH  11   3
TORSDOF 6
ENDMDL
MODEL 8
REMARK VINA RESULT:      -6.7     16.696     18.795
REMARK  Name = 11884093
REMARK  9 active torsions:
REMARK  status: ('A' for Active; 'I' for Inactive)
REMARK    1  A    between atoms: O_3  and  C_11
REMARK    2  A    between atoms: O_3  and  C_15
REMARK    3  A    between atoms: N_6  and  C_10
REMARK    4  A    between atoms: N_7  and  C_19
REMARK    5  A    between atoms: C_14  and  C_16
REMARK    6  A    between atoms: C_22  and  C_31
REMARK    7  A    between atoms: C_25  and  C_26
REMARK    8  A    between atoms: C_26  and  C_29
REMARK    9  A    between atoms: C_26  and  C_30
REMARK                            x       y       z     vdW  Elec       q    Type
REMARK                         _______ _______ _______ _____ _____    ______ ____
ROOT
ATOM      1  O   UNL     1     -10.080 -11.269  17.584  0.00  0.00    -0.368 OA
ATOM      2  O   UNL     1     -11.986 -10.904  19.958  0.00  0.00    -0.368 OA
ATOM      8  C   UNL     1     -11.541  -9.985  18.939  0.00  0.00    +0.173 C 
ATOM      9  C   UNL     1     -10.089 -10.312  18.655  0.00  0.00    +0.192 C 
ATOM     10  C   UNL     1     -12.241 -10.280  17.634  0.00  0.00    +0.130 C 
ATOM     11  C   UNL     1      -9.632 -10.924  19.957  0.00  0.00    +0.235 C 
ATOM     12  C   UNL     1     -11.414 -11.426  17.077  0.00  0.00    +0.185 C 
ATOM     13  C   UNL     1     -10.863 -11.680  20.404  0.00  0.00    +0.207 C 
ENDROOT
BRANCH  10   6
ATOM      4  O   UNL     1     -14.415  -8.485  17.081  0.00  0.00    -0.270 OA
ATOM      6  N   UNL     1     -12.212  -9.137  16.755  0.00  0.00    -0.304 N 
ATOM     14  C   UNL     1     -13.319  -8.324  16.550  0.00  0.00    +0.244 C 
ATOM     32  H   UNL     1     -11.377  -9.010  16.194  0.00  0.00    +0.149 HD
BRANCH  14  16
ATOM     16  C   UNL     1     -13.136  -7.202  15.594  0.00  0.00    +0.037 A 
ATOM     17  C   UNL     1     -14.226  -6.754  14.876  0.00  0.00    +0.013 A 
ATOM     18  C   UNL     1     -11.882  -6.644  15.453  0.00  0.00    +0.013 A 
ATOM     20  C   UNL     1     -14.054  -5.700  13.978  0.00  0.00    +0.004 A 
ATOM     21  C   UNL     1     -11.710  -5.591  14.554  0.00  0.00    +0.004 A 
ATOM     22  C   UNL     1     -12.796  -5.120  13.816  0.00  0.00    -0.050 A 
ATOM     31  C   UNL     1     -12.612  -3.993  12.856  0.00  0.00    +0.044 C 
ENDBRANCH  14  16
ENDBRANCH  10   6
BRANCH  11   3
ATOM      3  O   UNL     1      -8.512 -11.769  19.818  0.00  0.00    -0.442 OA
BRANCH   3  15
ATOM      5  O   UNL     1      -6.737 -10.350  20.084  0.00  0.00    -0.226 OA
ATOM      7  N   UNL     1      -6.977 -11.675  18.168  0.00  0.00    -0.251 N 
ATOM     15  C   UNL     1      -7.333 -11.180  19.408  0.00  0.00    +0.405 C 
ATOM     33  H   UNL     1      -7.606 -12.365  17.762  0.00  0.00    +0.158 HD
BRANCH   7  19
ATOM     19  C   UNL     1      -5.846 -11.340  17.389  0.00  0.00    +0.036 A 
ATOM     23  C   UNL     1      -6.025 -10.729  16.159  0.00  0.00    +0.024 A 
ATOM     24  C   UNL     1      -4.579 -11.630  17.872  0.00  0.00    +0.024 A 
ATOM     25  C   UNL     1      -3.627 -10.685  15.863  0.00  0.00    -0.045 A 
ATOM     27  C   UNL     1      -4.908 -10.400  15.391  0.00  0.00    +0.006 A 
ATOM     28  C   UNL     1      -3.464 -11.301  17.104  0.00  0.00    +0.006 A 
BRANCH  25  26
ATOM     26  C   UNL     1      -2.434 -10.333  15.042  0.00  0.00    +0.013 C 
ATOM     29  C   UNL     1      -1.110 -10.588  15.787  0.00  0.00    +0.012 C 
ATOM     30  C   UNL     1      -2.417 -11.061  13.684  0.00  0.00    +0.012 C 
ENDBRANCH  25  26
ENDBRANCH   7  19
ENDBRANCH   3  15
ENDBRANCH  11   3
TORSDOF 6
ENDMDL
MODEL 9
REMARK VINA RESULT:      -6.6     25.099     29.880
REMARK  Name = 11884093
REMARK  9 active torsions:
REMARK  status: ('A' for Active; 'I' for Inactive)
REMARK    1  A    between atoms: O_3  and  C_11
REMARK    2  A    between atoms: O_3  and  C_15
REMARK    3  A    between atoms: N_6  and  C_10
REMARK    4  A    between atoms: N_7  and  C_19
REMARK    5  A    between atoms: C_14  and  C_16
REMARK    6  A    between atoms: C_22  and  C_31
REMARK    7  A    between atoms: C_25  and  C_26
REMARK    8  A    between atoms: C_26  and  C_29
REMARK    9  A    between atoms: C_26  and  C_30
REMARK                            x       y       z     vdW  Elec       q    Type
REMARK                         _______ _______ _______ _____ _____    ______ ____
ROOT
ATOM      1  O   UNL     1       4.494  11.627   3.207  0.00  0.00    -0.368 OA
ATOM      2  O   UNL     1       4.796  10.370   0.426  0.00  0.00    -0.368 OA
ATOM      8  C   UNL     1       3.892  10.081   1.513  0.00  0.00    +0.173 C 
ATOM      9  C   UNL     1       4.677  10.262   2.797  0.00  0.00    +0.192 C 
ATOM     10  C   UNL     1       2.820  11.141   1.591  0.00  0.00    +0.130 C 
ATOM     11  C   UNL     1       6.094   9.995   2.353  0.00  0.00    +0.235 C 
ATOM     12  C   UNL     1       3.518  12.251   2.358  0.00  0.00    +0.185 C 
ATOM     13  C   UNL     1       6.110  10.587   0.962  0.00  0.00    +0.207 C 
ENDROOT
BRANCH  10   6
ATOM      4  O   UNL     1       0.155  10.879   0.552  0.00  0.00    -0.270 OA
ATOM      6  N   UNL     1       1.660  10.661   2.303  0.00  0.00    -0.304 N 
ATOM     14  C   UNL     1       0.407  10.569   1.713  0.00  0.00    +0.244 C 
ATOM     32  H   UNL     1       1.768  10.497   3.298  0.00  0.00    +0.149 HD
BRANCH  14  16
ATOM     16  C   UNL     1      -0.690  10.081   2.587  0.00  0.00    +0.037 A 
ATOM     17  C   UNL     1      -1.986  10.120   2.114  0.00  0.00    +0.013 A 
ATOM     18  C   UNL     1      -0.380   9.604   3.844  0.00  0.00    +0.013 A 
ATOM     20  C   UNL     1      -3.017   9.662   2.935  0.00  0.00    +0.004 A 
ATOM     21  C   UNL     1      -1.411   9.147   4.665  0.00  0.00    +0.004 A 
ATOM     22  C   UNL     1      -2.729   9.176   4.210  0.00  0.00    -0.050 A 
ATOM     31  C   UNL     1      -3.831   8.685   5.088  0.00  0.00    +0.044 C 
ENDBRANCH  14  16
ENDBRANCH  10   6
BRANCH  11   3
ATOM      3  O   UNL     1       7.066  10.583   3.190  0.00  0.00    -0.442 OA
BRANCH   3  15
ATOM      5  O   UNL     1       9.161   9.676   3.331  0.00  0.00    -0.226 OA
ATOM      7  N   UNL     1       7.438   9.021   4.775  0.00  0.00    -0.251 N 
ATOM     15  C   UNL     1       8.008   9.738   3.740  0.00  0.00    +0.405 C 
ATOM     33  H   UNL     1       6.457   9.214   4.967  0.00  0.00    +0.158 HD
BRANCH   7  19
ATOM     19  C   UNL     1       8.048   8.051   5.602  0.00  0.00    +0.036 A 
ATOM     23  C   UNL     1       8.251   6.772   5.111  0.00  0.00    +0.024 A 
ATOM     24  C   UNL     1       8.431   8.398   6.888  0.00  0.00    +0.024 A 
ATOM     25  C   UNL     1       9.244   6.149   7.224  0.00  0.00    -0.045 A 
ATOM     27  C   UNL     1       8.853   5.814   5.927  0.00  0.00    +0.006 A 
ATOM     28  C   UNL     1       9.032   7.441   7.704  0.00  0.00    +0.006 A 
BRANCH  25  26
ATOM     26  C   UNL     1       9.887   5.125   8.097  0.00  0.00    +0.013 C 
ATOM     29  C   UNL     1       9.340   5.151   9.536  0.00  0.00    +0.012 C 
ATOM     30  C   UNL     1       9.771   3.701   7.520  0.00  0.00    +0.012 C 
ENDBRANCH  25  26
ENDBRANCH   7  19
ENDBRANCH   3  15
ENDBRANCH  11   3
TORSDOF 6
ENDMDL
MODEL 10
REMARK VINA RESULT:      -6.5     18.945     21.810
REMARK  Name = 11884093
REMARK  9 active torsions:
REMARK  status: ('A' for Active; 'I' for Inactive)
REMARK    1  A    between atoms: O_3  and  C_11
REMARK    2  A    between atoms: O_3  and  C_15
REMARK    3  A    between atoms: N_6  and  C_10
REMARK    4  A    between atoms: N_7  and  C_19
REMARK    5  A    between atoms: C_14  and  C_16
REMARK    6  A    between atoms: C_22  and  C_31
REMARK    7  A    between atoms: C_25  and  C_26
REMARK    8  A    between atoms: C_26  and  C_29
REMARK    9  A    between atoms: C_26  and  C_30
REMARK                            x       y       z     vdW  Elec       q    Type
REMARK                         _______ _______ _______ _____ _____    ______ ____
ROOT
ATOM      1  O   UNL     1      -7.554  -6.954   8.280  0.00  0.00    -0.368 OA
ATOM      2  O   UNL     1      -8.952  -9.524   7.364  0.00  0.00    -0.368 OA
ATOM      8  C   UNL     1      -9.280  -8.575   8.399  0.00  0.00    +0.173 C 
ATOM      9  C   UNL     1      -7.970  -8.120   9.009  0.00  0.00    +0.192 C 
ATOM     10  C   UNL     1      -9.850  -7.318   7.787  0.00  0.00    +0.130 C 
ATOM     11  C   UNL     1      -7.062  -9.297   8.748  0.00  0.00    +0.235 C 
ATOM     12  C   UNL     1      -8.598  -6.562   7.376  0.00  0.00    +0.185 C 
ATOM     13  C   UNL     1      -7.538  -9.773   7.394  0.00  0.00    +0.207 C 
ENDROOT
BRANCH  10   6
ATOM      4  O   UNL     1     -12.701  -6.967   7.802  0.00  0.00    -0.270 OA
ATOM      6  N   UNL     1     -10.622  -6.570   8.750  0.00  0.00    -0.304 N 
ATOM     14  C   UNL     1     -12.004  -6.457   8.674  0.00  0.00    +0.244 C 
ATOM     32  H   UNL     1     -10.103  -6.028   9.431  0.00  0.00    +0.149 HD
BRANCH  14  16
ATOM     16  C   UNL     1     -12.648  -5.631   9.727  0.00  0.00    +0.037 A 
ATOM     17  C   UNL     1     -11.889  -4.688  10.391  0.00  0.00    +0.013 A 
ATOM     18  C   UNL     1     -13.983  -5.833  10.009  0.00  0.00    +0.013 A 
ATOM     20  C   UNL     1     -12.494  -3.913  11.381  0.00  0.00    +0.004 A 
ATOM     21  C   UNL     1     -14.587  -5.058  10.999  0.00  0.00    +0.004 A 
ATOM     22  C   UNL     1     -13.842  -4.099  11.685  0.00  0.00    -0.050 A 
ATOM     31  C   UNL     1     -14.489  -3.269  12.743  0.00  0.00    +0.044 C 
ENDBRANCH  14  16
ENDBRANCH  10   6
BRANCH  11   3
ATOM      3  O   UNL     1      -5.693  -8.961   8.740  0.00  0.00    -0.442 OA
BRANCH   3  15
ATOM      5  O   UNL     1      -4.913  -7.662  10.455  0.00  0.00    -0.226 OA
ATOM      7  N   UNL     1      -4.746  -9.997  10.506  0.00  0.00    -0.251 N 
ATOM     15  C   UNL     1      -5.090  -8.772   9.967  0.00  0.00    +0.405 C 
ATOM     33  H   UNL     1      -4.977 -10.815   9.946  0.00  0.00    +0.158 HD
BRANCH   7  19
ATOM     19  C   UNL     1      -4.110 -10.258  11.742  0.00  0.00    +0.036 A 
ATOM     23  C   UNL     1      -4.884 -10.469  12.871  0.00  0.00    +0.024 A 
ATOM     24  C   UNL     1      -2.726 -10.296  11.799  0.00  0.00    +0.024 A 
ATOM     25  C   UNL     1      -2.864 -10.767  14.164  0.00  0.00    -0.045 A 
ATOM     27  C   UNL     1      -4.257 -10.725  14.091  0.00  0.00    +0.006 A 
ATOM     28  C   UNL     1      -2.099 -10.552  13.018  0.00  0.00    +0.006 A 
BRANCH  25  26
ATOM     26  C   UNL     1      -2.194 -11.041  15.467  0.00  0.00    +0.013 C 
ATOM     29  C   UNL     1      -0.966 -10.140  15.699  0.00  0.00    +0.012 C 
ATOM     30  C   UNL     1      -3.159 -10.926  16.663  0.00  0.00    +0.012 C 
ENDBRANCH  25  26
ENDBRANCH   7  19
ENDBRANCH   3  15
ENDBRANCH  11   3
TORSDOF 6
ENDMDL
