MODEL 1
REMARK VINA RESULT:      -8.3      0.000      0.000
REMARK  Name = 7135490
REMARK  8 active torsions:
REMARK  status: ('A' for Active; 'I' for Inactive)
REMARK    1  A    between atoms: O_5  and  C_25
REMARK    2  A    between atoms: C_14  and  C_15
REMARK    3  A    between atoms: C_14  and  C_19
REMARK    4  A    between atoms: C_14  and  C_20
REMARK    5  A    between atoms: C_14  and  C_21
REMARK    6  A    between atoms: C_15  and  C_16
REMARK    7  A    between atoms: C_19  and  C_25
REMARK    8  A    between atoms: C_27  and  C_29
REMARK                            x       y       z     vdW  Elec       q    Type
REMARK                         _______ _______ _______ _____ _____    ______ ____
ROOT
ATOM      2  O   UNL     1      13.027   7.071  19.968  0.00  0.00    -0.276 OA
ATOM      3  O   UNL     1      16.686   6.178  18.784  0.00  0.00    -0.273 OA
ATOM      4  O   UNL     1      19.782   8.702  22.251  0.00  0.00    -0.270 OA
ATOM      7  N   UNL     1      15.079   8.018  20.514  0.00  0.00    -0.298 N 
ATOM      8  N   UNL     1      17.824   7.784  21.430  0.00  0.00    -0.283 N 
ATOM      9  N   UNL     1      18.728   5.624  19.621  0.00  0.00    -0.283 N 
ATOM     10  C   UNL     1      17.040   6.592  21.136  0.00  0.00    +0.180 C 
ATOM     11  C   UNL     1      15.530   6.834  21.252  0.00  0.00    +0.139 C 
ATOM     12  C   UNL     1      16.009   9.149  20.448  0.00  0.00    +0.127 C 
ATOM     13  C   UNL     1      17.108   9.059  21.496  0.00  0.00    +0.128 C 
ATOM     16  C   UNL     1      13.817   8.017  19.918  0.00  0.00    +0.216 C 
ATOM     17  C   UNL     1      17.461   6.151  19.743  0.00  0.00    +0.239 C 
ATOM     18  C   UNL     1      19.160   7.733  21.815  0.00  0.00    +0.249 C 
ATOM     22  C   UNL     1      19.902   6.452  21.672  0.00  0.00    +0.059 A 
ATOM     23  C   UNL     1      19.746   5.562  20.597  0.00  0.00    +0.046 A 
ATOM     24  C   UNL     1      20.943   6.240  22.595  0.00  0.00    +0.023 A 
ATOM     26  C   UNL     1      20.679   4.523  20.432  0.00  0.00    +0.024 A 
ATOM     27  C   UNL     1      21.831   5.175  22.443  0.00  0.00    -0.014 A 
ATOM     28  C   UNL     1      21.706   4.323  21.354  0.00  0.00    +0.010 A 
ATOM     35  H   UNL     1      18.917   5.136  18.750  0.00  0.00    +0.155 HD
ENDROOT
BRANCH  27  29
ATOM      1  F   UNL     1      22.189   2.733  23.785  0.00  0.00    -0.205 F 
ATOM     29  C   UNL     1      22.893   4.972  23.404  0.00  0.00    +0.017 A 
ATOM     30  C   UNL     1      23.031   3.742  24.047  0.00  0.00    +0.131 A 
ATOM     31  C   UNL     1      23.780   6.012  23.688  0.00  0.00    +0.011 A 
ATOM     32  C   UNL     1      24.058   3.551  24.974  0.00  0.00    +0.039 A 
ATOM     33  C   UNL     1      24.805   5.820  24.614  0.00  0.00    +0.001 A 
ATOM     34  C   UNL     1      24.944   4.590  25.257  0.00  0.00    +0.003 A 
ENDBRANCH  27  29
BRANCH  16  15
ATOM     15  C   UNL     1      13.429   9.276  19.181  0.00  0.00    +0.103 C 
BRANCH  15  14
ATOM     14  C   UNL     1      13.478   9.112  17.649  0.00  0.00    -0.017 C 
ATOM     20  C   UNL     1      13.906   7.661  17.347  0.00  0.00    +0.012 C 
ATOM     21  C   UNL     1      14.549  10.049  17.050  0.00  0.00    +0.012 C 
BRANCH  14  19
ATOM     19  C   UNL     1      12.127   9.426  16.962  0.00  0.00    +0.127 C 
BRANCH  19  25
ATOM      6  O   UNL     1      10.515   8.510  18.518  0.00  0.00    -0.251 OA
ATOM     25  C   UNL     1      10.980   8.536  17.385  0.00  0.00    +0.305 C 
BRANCH  25   5
ATOM      5  O   UNL     1      10.518   7.755  16.377  0.00  0.00    -0.481 OA
ATOM     36  H   UNL     1       9.699   8.118  15.979  0.00  0.00    +0.295 HD
ENDBRANCH  25   5
ENDBRANCH  19  25
ENDBRANCH  14  19
ENDBRANCH  15  14
ENDBRANCH  16  15
TORSDOF 6
ENDMDL
MODEL 2
REMARK VINA RESULT:      -7.4     15.948     20.082
REMARK  Name = 7135490
REMARK  8 active torsions:
REMARK  status: ('A' for Active; 'I' for Inactive)
REMARK    1  A    between atoms: O_5  and  C_25
REMARK    2  A    between atoms: C_14  and  C_15
REMARK    3  A    between atoms: C_14  and  C_19
REMARK    4  A    between atoms: C_14  and  C_20
REMARK    5  A    between atoms: C_14  and  C_21
REMARK    6  A    between atoms: C_15  and  C_16
REMARK    7  A    between atoms: C_19  and  C_25
REMARK    8  A    between atoms: C_27  and  C_29
REMARK                            x       y       z     vdW  Elec       q    Type
REMARK                         _______ _______ _______ _____ _____    ______ ____
ROOT
ATOM      2  O   UNL     1       9.061   7.667   5.408  0.00  0.00    -0.276 OA
ATOM      3  O   UNL     1      12.909   7.034   4.789  0.00  0.00    -0.273 OA
ATOM      4  O   UNL     1      12.988   3.552   0.809  0.00  0.00    -0.270 OA
ATOM      7  N   UNL     1      10.160   5.999   4.216  0.00  0.00    -0.298 N 
ATOM      8  N   UNL     1      12.080   5.152   2.212  0.00  0.00    -0.283 N 
ATOM      9  N   UNL     1      14.404   6.755   3.097  0.00  0.00    -0.283 N 
ATOM     10  C   UNL     1      11.996   6.551   2.608  0.00  0.00    +0.180 C 
ATOM     11  C   UNL     1      10.620   6.922   3.175  0.00  0.00    +0.139 C 
ATOM     12  C   UNL     1      10.547   4.594   4.071  0.00  0.00    +0.127 C 
ATOM     13  C   UNL     1      11.009   4.262   2.661  0.00  0.00    +0.128 C 
ATOM     16  C   UNL     1       9.393   6.486   5.277  0.00  0.00    +0.216 C 
ATOM     17  C   UNL     1      13.123   6.770   3.605  0.00  0.00    +0.239 C 
ATOM     18  C   UNL     1      13.020   4.681   1.301  0.00  0.00    +0.249 C 
ATOM     22  C   UNL     1      14.150   5.566   0.909  0.00  0.00    +0.059 A 
ATOM     23  C   UNL     1      14.822   6.429   1.789  0.00  0.00    +0.046 A 
ATOM     24  C   UNL     1      14.664   5.366  -0.386  0.00  0.00    +0.023 A 
ATOM     26  C   UNL     1      16.032   7.016   1.377  0.00  0.00    +0.024 A 
ATOM     27  C   UNL     1      15.840   5.995  -0.795  0.00  0.00    -0.014 A 
ATOM     28  C   UNL     1      16.531   6.810   0.091  0.00  0.00    +0.010 A 
ATOM     35  H   UNL     1      15.124   7.117   3.717  0.00  0.00    +0.155 HD
ENDROOT
BRANCH  27  29
ATOM      1  F   UNL     1      17.700   3.972  -1.380  0.00  0.00    -0.205 F 
ATOM     29  C   UNL     1      16.351   5.780  -2.131  0.00  0.00    +0.017 A 
ATOM     30  C   UNL     1      17.275   4.763  -2.375  0.00  0.00    +0.131 A 
ATOM     31  C   UNL     1      15.917   6.594  -3.179  0.00  0.00    +0.011 A 
ATOM     32  C   UNL     1      17.764   4.560  -3.666  0.00  0.00    +0.039 A 
ATOM     33  C   UNL     1      16.407   6.390  -4.469  0.00  0.00    +0.001 A 
ATOM     34  C   UNL     1      17.330   5.374  -4.713  0.00  0.00    +0.003 A 
ENDBRANCH  27  29
BRANCH  16  15
ATOM     15  C   UNL     1       8.956   5.469   6.303  0.00  0.00    +0.103 C 
BRANCH  15  14
ATOM     14  C   UNL     1       9.598   5.701   7.686  0.00  0.00    -0.017 C 
ATOM     20  C   UNL     1       8.892   6.911   8.333  0.00  0.00    +0.012 C 
ATOM     21  C   UNL     1      11.090   6.063   7.523  0.00  0.00    +0.012 C 
BRANCH  14  19
ATOM     19  C   UNL     1       9.502   4.465   8.613  0.00  0.00    +0.127 C 
BRANCH  19  25
ATOM      6  O   UNL     1      10.568   5.017  10.714  0.00  0.00    -0.251 OA
ATOM     25  C   UNL     1       9.540   4.779  10.091  0.00  0.00    +0.305 C 
BRANCH  25   5
ATOM      5  O   UNL     1       8.313   4.764  10.667  0.00  0.00    -0.481 OA
ATOM     36  H   UNL     1       7.800   3.967  10.416  0.00  0.00    +0.295 HD
ENDBRANCH  25   5
ENDBRANCH  19  25
ENDBRANCH  14  19
ENDBRANCH  15  14
ENDBRANCH  16  15
TORSDOF 6
ENDMDL
MODEL 3
REMARK VINA RESULT:      -7.4     28.973     31.345
REMARK  Name = 7135490
REMARK  8 active torsions:
REMARK  status: ('A' for Active; 'I' for Inactive)
REMARK    1  A    between atoms: O_5  and  C_25
REMARK    2  A    between atoms: C_14  and  C_15
REMARK    3  A    between atoms: C_14  and  C_19
REMARK    4  A    between atoms: C_14  and  C_20
REMARK    5  A    between atoms: C_14  and  C_21
REMARK    6  A    between atoms: C_15  and  C_16
REMARK    7  A    between atoms: C_19  and  C_25
REMARK    8  A    between atoms: C_27  and  C_29
REMARK                            x       y       z     vdW  Elec       q    Type
REMARK                         _______ _______ _______ _____ _____    ______ ____
ROOT
ATOM      2  O   UNL     1      -6.705 -10.214   5.593  0.00  0.00    -0.276 OA
ATOM      3  O   UNL     1      -4.271  -9.179   8.523  0.00  0.00    -0.273 OA
ATOM      4  O   UNL     1      -7.412  -9.031  12.777  0.00  0.00    -0.270 OA
ATOM      7  N   UNL     1      -7.148  -9.439   7.740  0.00  0.00    -0.298 N 
ATOM      8  N   UNL     1      -6.787  -9.578  10.617  0.00  0.00    -0.283 N 
ATOM      9  N   UNL     1      -3.830  -9.652  10.705  0.00  0.00    -0.283 N 
ATOM     10  C   UNL     1      -5.970 -10.396   9.731  0.00  0.00    +0.180 C 
ATOM     11  C   UNL     1      -6.647 -10.659   8.380  0.00  0.00    +0.139 C 
ATOM     12  C   UNL     1      -7.649  -8.386   8.627  0.00  0.00    +0.127 C 
ATOM     13  C   UNL     1      -7.943  -8.899  10.029  0.00  0.00    +0.128 C 
ATOM     16  C   UNL     1      -7.125  -9.333   6.348  0.00  0.00    +0.216 C 
ATOM     17  C   UNL     1      -4.644  -9.664   9.593  0.00  0.00    +0.239 C 
ATOM     18  C   UNL     1      -6.617  -9.560  11.998  0.00  0.00    +0.249 C 
ATOM     22  C   UNL     1      -5.399 -10.184  12.582  0.00  0.00    +0.059 A 
ATOM     23  C   UNL     1      -4.121 -10.117  12.006  0.00  0.00    +0.046 A 
ATOM     24  C   UNL     1      -5.543 -10.711  13.879  0.00  0.00    +0.023 A 
ATOM     26  C   UNL     1      -3.008 -10.512  12.769  0.00  0.00    +0.024 A 
ATOM     27  C   UNL     1      -4.433 -11.144  14.604  0.00  0.00    -0.014 A 
ATOM     28  C   UNL     1      -3.163 -11.033  14.053  0.00  0.00    +0.010 A 
ATOM     35  H   UNL     1      -2.870  -9.361  10.541  0.00  0.00    +0.155 HD
ENDROOT
BRANCH  27  29
ATOM      1  F   UNL     1      -4.234  -9.549  16.908  0.00  0.00    -0.205 F 
ATOM     29  C   UNL     1      -4.601 -11.687  15.934  0.00  0.00    +0.017 A 
ATOM     30  C   UNL     1      -4.493 -10.856  17.050  0.00  0.00    +0.131 A 
ATOM     31  C   UNL     1      -4.873 -13.046  16.100  0.00  0.00    +0.011 A 
ATOM     32  C   UNL     1      -4.657 -11.385  18.331  0.00  0.00    +0.039 A 
ATOM     33  C   UNL     1      -5.036 -13.573  17.381  0.00  0.00    +0.001 A 
ATOM     34  C   UNL     1      -4.928 -12.743  18.496  0.00  0.00    +0.003 A 
ENDBRANCH  27  29
BRANCH  16  15
ATOM     15  C   UNL     1      -7.663  -8.047   5.770  0.00  0.00    +0.103 C 
BRANCH  15  14
ATOM     14  C   UNL     1      -9.111  -8.180   5.259  0.00  0.00    -0.017 C 
ATOM     20  C   UNL     1      -9.998  -7.253   6.115  0.00  0.00    +0.012 C 
ATOM     21  C   UNL     1      -9.613  -9.626   5.461  0.00  0.00    +0.012 C 
BRANCH  14  19
ATOM     19  C   UNL     1      -9.257  -7.827   3.758  0.00  0.00    +0.127 C 
BRANCH  19  25
ATOM      6  O   UNL     1      -7.731  -9.335   2.638  0.00  0.00    -0.251 OA
ATOM     25  C   UNL     1      -8.062  -8.186   2.905  0.00  0.00    +0.305 C 
BRANCH  25   5
ATOM      5  O   UNL     1      -7.381  -7.099   2.465  0.00  0.00    -0.481 OA
ATOM     36  H   UNL     1      -7.779  -6.722   1.652  0.00  0.00    +0.295 HD
ENDBRANCH  25   5
ENDBRANCH  19  25
ENDBRANCH  14  19
ENDBRANCH  15  14
ENDBRANCH  16  15
TORSDOF 6
ENDMDL
MODEL 4
REMARK VINA RESULT:      -7.3     23.470     25.334
REMARK  Name = 7135490
REMARK  8 active torsions:
REMARK  status: ('A' for Active; 'I' for Inactive)
REMARK    1  A    between atoms: O_5  and  C_25
REMARK    2  A    between atoms: C_14  and  C_15
REMARK    3  A    between atoms: C_14  and  C_19
REMARK    4  A    between atoms: C_14  and  C_20
REMARK    5  A    between atoms: C_14  and  C_21
REMARK    6  A    between atoms: C_15  and  C_16
REMARK    7  A    between atoms: C_19  and  C_25
REMARK    8  A    between atoms: C_27  and  C_29
REMARK                            x       y       z     vdW  Elec       q    Type
REMARK                         _______ _______ _______ _____ _____    ______ ____
ROOT
ATOM      2  O   UNL     1      18.257  -5.077  -5.401  0.00  0.00    -0.276 OA
ATOM      3  O   UNL     1      18.360  -4.332  -1.526  0.00  0.00    -0.273 OA
ATOM      4  O   UNL     1      19.811  -8.950   0.606  0.00  0.00    -0.270 OA
ATOM      7  N   UNL     1      18.331  -6.513  -3.574  0.00  0.00    -0.298 N 
ATOM      8  N   UNL     1      19.519  -7.386  -1.073  0.00  0.00    -0.283 N 
ATOM      9  N   UNL     1      19.602  -4.781   0.328  0.00  0.00    -0.283 N 
ATOM     10  C   UNL     1      19.947  -6.142  -1.699  0.00  0.00    +0.180 C 
ATOM     11  C   UNL     1      19.698  -6.126  -3.212  0.00  0.00    +0.139 C 
ATOM     12  C   UNL     1      17.683  -7.518  -2.727  0.00  0.00    +0.127 C 
ATOM     13  C   UNL     1      18.679  -8.283  -1.868  0.00  0.00    +0.128 C 
ATOM     16  C   UNL     1      17.720  -5.923  -4.681  0.00  0.00    +0.216 C 
ATOM     17  C   UNL     1      19.208  -5.033  -0.969  0.00  0.00    +0.239 C 
ATOM     18  C   UNL     1      20.011  -7.822   0.153  0.00  0.00    +0.249 C 
ATOM     22  C   UNL     1      20.798  -6.878   0.990  0.00  0.00    +0.059 A 
ATOM     23  C   UNL     1      20.515  -5.509   1.120  0.00  0.00    +0.046 A 
ATOM     24  C   UNL     1      21.767  -7.463   1.827  0.00  0.00    +0.023 A 
ATOM     26  C   UNL     1      21.157  -4.773   2.132  0.00  0.00    +0.024 A 
ATOM     27  C   UNL     1      22.430  -6.707   2.793  0.00  0.00    -0.014 A 
ATOM     28  C   UNL     1      22.116  -5.364   2.955  0.00  0.00    +0.010 A 
ATOM     35  H   UNL     1      19.264  -3.908   0.726  0.00  0.00    +0.155 HD
ENDROOT
BRANCH  27  29
ATOM      1  F   UNL     1      21.739  -8.225   5.054  0.00  0.00    -0.205 F 
ATOM     29  C   UNL     1      23.426  -7.325   3.641  0.00  0.00    +0.017 A 
ATOM     30  C   UNL     1      23.036  -8.070   4.754  0.00  0.00    +0.131 A 
ATOM     31  C   UNL     1      24.782  -7.175   3.342  0.00  0.00    +0.011 A 
ATOM     32  C   UNL     1      24.001  -8.665   5.568  0.00  0.00    +0.039 A 
ATOM     33  C   UNL     1      25.745  -7.770   4.157  0.00  0.00    +0.001 A 
ATOM     34  C   UNL     1      25.355  -8.514   5.270  0.00  0.00    +0.003 A 
ENDBRANCH  27  29
BRANCH  16  15
ATOM     15  C   UNL     1      16.314  -6.380  -4.987  0.00  0.00    +0.103 C 
BRANCH  15  14
ATOM     14  C   UNL     1      15.268  -5.263  -4.800  0.00  0.00    -0.017 C 
ATOM     20  C   UNL     1      15.395  -4.297  -5.995  0.00  0.00    +0.012 C 
ATOM     21  C   UNL     1      15.573  -4.462  -3.517  0.00  0.00    +0.012 C 
BRANCH  14  19
ATOM     19  C   UNL     1      13.820  -5.802  -4.696  0.00  0.00    +0.127 C 
BRANCH  19  25
ATOM      6  O   UNL     1      14.009  -7.485  -2.968  0.00  0.00    -0.251 OA
ATOM     25  C   UNL     1      13.482  -6.458  -3.376  0.00  0.00    +0.305 C 
BRANCH  25   5
ATOM      5  O   UNL     1      12.524  -5.792  -2.685  0.00  0.00    -0.481 OA
ATOM     36  H   UNL     1      11.697  -5.698  -3.203  0.00  0.00    +0.295 HD
ENDBRANCH  25   5
ENDBRANCH  19  25
ENDBRANCH  14  19
ENDBRANCH  15  14
ENDBRANCH  16  15
TORSDOF 6
ENDMDL
MODEL 5
REMARK VINA RESULT:      -7.3     29.408     32.957
REMARK  Name = 7135490
REMARK  8 active torsions:
REMARK  status: ('A' for Active; 'I' for Inactive)
REMARK    1  A    between atoms: O_5  and  C_25
REMARK    2  A    between atoms: C_14  and  C_15
REMARK    3  A    between atoms: C_14  and  C_19
REMARK    4  A    between atoms: C_14  and  C_20
REMARK    5  A    between atoms: C_14  and  C_21
REMARK    6  A    between atoms: C_15  and  C_16
REMARK    7  A    between atoms: C_19  and  C_25
REMARK    8  A    between atoms: C_27  and  C_29
REMARK                            x       y       z     vdW  Elec       q    Type
REMARK                         _______ _______ _______ _____ _____    ______ ____
ROOT
ATOM      2  O   UNL     1     -14.471  10.038  18.731  0.00  0.00    -0.276 OA
ATOM      3  O   UNL     1     -16.015   6.471  19.421  0.00  0.00    -0.273 OA
ATOM      4  O   UNL     1     -12.940   4.484  23.238  0.00  0.00    -0.270 OA
ATOM      7  N   UNL     1     -13.616   8.202  19.873  0.00  0.00    -0.298 N 
ATOM      8  N   UNL     1     -13.853   6.125  21.887  0.00  0.00    -0.283 N 
ATOM      9  N   UNL     1     -16.511   5.062  21.137  0.00  0.00    -0.283 N 
ATOM     10  C   UNL     1     -14.997   6.963  21.553  0.00  0.00    +0.180 C 
ATOM     11  C   UNL     1     -14.584   8.319  20.968  0.00  0.00    +0.139 C 
ATOM     12  C   UNL     1     -12.646   7.107  19.964  0.00  0.00    +0.127 C 
ATOM     13  C   UNL     1     -12.547   6.535  21.369  0.00  0.00    +0.128 C 
ATOM     16  C   UNL     1     -13.659   9.114  18.816  0.00  0.00    +0.216 C 
ATOM     17  C   UNL     1     -15.849   6.143  20.597  0.00  0.00    +0.239 C 
ATOM     18  C   UNL     1     -13.927   5.077  22.800  0.00  0.00    +0.249 C 
ATOM     22  C   UNL     1     -15.263   4.616  23.261  0.00  0.00    +0.059 A 
ATOM     23  C   UNL     1     -16.398   4.530  22.439  0.00  0.00    +0.046 A 
ATOM     24  C   UNL     1     -15.309   4.072  24.558  0.00  0.00    +0.023 A 
ATOM     26  C   UNL     1     -17.529   3.838  22.909  0.00  0.00    +0.024 A 
ATOM     27  C   UNL     1     -16.457   3.432  25.027  0.00  0.00    -0.014 A 
ATOM     28  C   UNL     1     -17.563   3.304  24.197  0.00  0.00    +0.010 A 
ATOM     35  H   UNL     1     -17.240   4.660  20.553  0.00  0.00    +0.155 HD
ENDROOT
BRANCH  27  29
ATOM      1  F   UNL     1     -16.560   0.666  25.508  0.00  0.00    -0.205 F 
ATOM     29  C   UNL     1     -16.486   2.883  26.365  0.00  0.00    +0.017 A 
ATOM     30  C   UNL     1     -16.538   1.502  26.556  0.00  0.00    +0.131 A 
ATOM     31  C   UNL     1     -16.463   3.739  27.467  0.00  0.00    +0.011 A 
ATOM     32  C   UNL     1     -16.566   0.977  27.849  0.00  0.00    +0.039 A 
ATOM     33  C   UNL     1     -16.491   3.214  28.759  0.00  0.00    +0.001 A 
ATOM     34  C   UNL     1     -16.543   1.834  28.950  0.00  0.00    +0.003 A 
ENDBRANCH  27  29
BRANCH  16  15
ATOM     15  C   UNL     1     -12.624   8.925  17.733  0.00  0.00    +0.103 C 
BRANCH  15  14
ATOM     14  C   UNL     1     -11.522  10.002  17.764  0.00  0.00    -0.017 C 
ATOM     20  C   UNL     1     -11.219  10.319  19.243  0.00  0.00    +0.012 C 
ATOM     21  C   UNL     1     -12.031  11.300  17.103  0.00  0.00    +0.012 C 
BRANCH  14  19
ATOM     19  C   UNL     1     -10.229   9.566  17.033  0.00  0.00    +0.127 C 
BRANCH  19  25
ATOM      6  O   UNL     1     -10.850   9.030  14.756  0.00  0.00    -0.251 OA
ATOM     25  C   UNL     1     -10.450   8.651  15.850  0.00  0.00    +0.305 C 
BRANCH  25   5
ATOM      5  O   UNL     1     -10.165   7.353  16.124  0.00  0.00    -0.481 OA
ATOM     36  H   UNL     1      -9.468   7.268  16.808  0.00  0.00    +0.295 HD
ENDBRANCH  25   5
ENDBRANCH  19  25
ENDBRANCH  14  19
ENDBRANCH  15  14
ENDBRANCH  16  15
TORSDOF 6
ENDMDL
MODEL 6
REMARK VINA RESULT:      -7.2      1.622      2.017
REMARK  Name = 7135490
REMARK  8 active torsions:
REMARK  status: ('A' for Active; 'I' for Inactive)
REMARK    1  A    between atoms: O_5  and  C_25
REMARK    2  A    between atoms: C_14  and  C_15
REMARK    3  A    between atoms: C_14  and  C_19
REMARK    4  A    between atoms: C_14  and  C_20
REMARK    5  A    between atoms: C_14  and  C_21
REMARK    6  A    between atoms: C_15  and  C_16
REMARK    7  A    between atoms: C_19  and  C_25
REMARK    8  A    between atoms: C_27  and  C_29
REMARK                            x       y       z     vdW  Elec       q    Type
REMARK                         _______ _______ _______ _____ _____    ______ ____
ROOT
ATOM      2  O   UNL     1      12.846   7.425  20.845  0.00  0.00    -0.276 OA
ATOM      3  O   UNL     1      16.167   6.092  19.179  0.00  0.00    -0.273 OA
ATOM      4  O   UNL     1      19.933   9.191  21.226  0.00  0.00    -0.270 OA
ATOM      7  N   UNL     1      14.968   8.366  20.713  0.00  0.00    -0.298 N 
ATOM      8  N   UNL     1      17.844   8.210  21.071  0.00  0.00    -0.283 N 
ATOM      9  N   UNL     1      18.340   5.644  19.683  0.00  0.00    -0.283 N 
ATOM     10  C   UNL     1      17.015   7.024  21.238  0.00  0.00    +0.180 C 
ATOM     11  C   UNL     1      15.565   7.365  21.603  0.00  0.00    +0.139 C 
ATOM     12  C   UNL     1      15.863   9.400  20.188  0.00  0.00    +0.127 C 
ATOM     13  C   UNL     1      17.160   9.500  20.977  0.00  0.00    +0.128 C 
ATOM     16  C   UNL     1      13.607   8.292  20.409  0.00  0.00    +0.216 C 
ATOM     17  C   UNL     1      17.128   6.249  19.935  0.00  0.00    +0.239 C 
ATOM     18  C   UNL     1      19.232   8.180  21.172  0.00  0.00    +0.249 C 
ATOM     22  C   UNL     1      19.925   6.864  21.188  0.00  0.00    +0.059 A 
ATOM     23  C   UNL     1      19.542   5.758  20.414  0.00  0.00    +0.046 A 
ATOM     24  C   UNL     1      21.139   6.820  21.900  0.00  0.00    +0.023 A 
ATOM     26  C   UNL     1      20.417   4.662  20.312  0.00  0.00    +0.024 A 
ATOM     27  C   UNL     1      21.973   5.704  21.826  0.00  0.00    -0.014 A 
ATOM     28  C   UNL     1      21.618   4.630  21.022  0.00  0.00    +0.010 A 
ATOM     35  H   UNL     1      18.338   4.956  18.934  0.00  0.00    +0.155 HD
ENDROOT
BRANCH  27  29
ATOM      1  F   UNL     1      24.423   6.449  20.671  0.00  0.00    -0.205 F 
ATOM     29  C   UNL     1      23.215   5.676  22.568  0.00  0.00    +0.017 A 
ATOM     30  C   UNL     1      24.408   6.054  21.952  0.00  0.00    +0.131 A 
ATOM     31  C   UNL     1      23.216   5.269  23.903  0.00  0.00    +0.011 A 
ATOM     32  C   UNL     1      25.603   6.026  22.672  0.00  0.00    +0.039 A 
ATOM     33  C   UNL     1      24.412   5.241  24.621  0.00  0.00    +0.001 A 
ATOM     34  C   UNL     1      25.605   5.618  24.007  0.00  0.00    +0.003 A 
ENDBRANCH  27  29
BRANCH  16  15
ATOM     15  C   UNL     1      13.072   9.362  19.489  0.00  0.00    +0.103 C 
BRANCH  15  14
ATOM     14  C   UNL     1      12.391   8.785  18.231  0.00  0.00    -0.017 C 
ATOM     20  C   UNL     1      10.909   8.536  18.575  0.00  0.00    +0.012 C 
ATOM     21  C   UNL     1      13.022   7.425  17.866  0.00  0.00    +0.012 C 
BRANCH  14  19
ATOM     19  C   UNL     1      12.508   9.716  16.999  0.00  0.00    +0.127 C 
BRANCH  19  25
ATOM      6  O   UNL     1      14.841  10.035  16.439  0.00  0.00    -0.251 OA
ATOM     25  C   UNL     1      13.762   9.520  16.176  0.00  0.00    +0.305 C 
BRANCH  25   5
ATOM      5  O   UNL     1      13.569   8.714  15.103  0.00  0.00    -0.481 OA
ATOM     36  H   UNL     1      14.353   8.157  14.917  0.00  0.00    +0.295 HD
ENDBRANCH  25   5
ENDBRANCH  19  25
ENDBRANCH  14  19
ENDBRANCH  15  14
ENDBRANCH  16  15
TORSDOF 6
ENDMDL
MODEL 7
REMARK VINA RESULT:      -7.0     27.529     32.592
REMARK  Name = 7135490
REMARK  8 active torsions:
REMARK  status: ('A' for Active; 'I' for Inactive)
REMARK    1  A    between atoms: O_5  and  C_25
REMARK    2  A    between atoms: C_14  and  C_15
REMARK    3  A    between atoms: C_14  and  C_19
REMARK    4  A    between atoms: C_14  and  C_20
REMARK    5  A    between atoms: C_14  and  C_21
REMARK    6  A    between atoms: C_15  and  C_16
REMARK    7  A    between atoms: C_19  and  C_25
REMARK    8  A    between atoms: C_27  and  C_29
REMARK                            x       y       z     vdW  Elec       q    Type
REMARK                         _______ _______ _______ _____ _____    ______ ____
ROOT
ATOM      2  O   UNL     1      -1.743 -10.260  11.887  0.00  0.00    -0.276 OA
ATOM      3  O   UNL     1      -4.240 -11.867   9.285  0.00  0.00    -0.273 OA
ATOM      4  O   UNL     1      -8.171  -8.343   8.970  0.00  0.00    -0.270 OA
ATOM      7  N   UNL     1      -3.958  -9.757  11.389  0.00  0.00    -0.298 N 
ATOM      8  N   UNL     1      -6.054  -9.121   9.484  0.00  0.00    -0.283 N 
ATOM      9  N   UNL     1      -5.579 -11.296   7.536  0.00  0.00    -0.283 N 
ATOM     10  C   UNL     1      -4.732  -9.519   9.020  0.00  0.00    +0.180 C 
ATOM     11  C   UNL     1      -3.635  -9.241  10.055  0.00  0.00    +0.139 C 
ATOM     12  C   UNL     1      -5.370  -9.735  11.781  0.00  0.00    +0.127 C 
ATOM     13  C   UNL     1      -6.201  -8.808  10.906  0.00  0.00    +0.128 C 
ATOM     16  C   UNL     1      -2.934 -10.237  12.207  0.00  0.00    +0.216 C 
ATOM     17  C   UNL     1      -4.843 -10.992   8.661  0.00  0.00    +0.239 C 
ATOM     18  C   UNL     1      -7.111  -8.862   8.617  0.00  0.00    +0.249 C 
ATOM     22  C   UNL     1      -6.984  -9.254   7.188  0.00  0.00    +0.059 A 
ATOM     23  C   UNL     1      -6.360 -10.430   6.742  0.00  0.00    +0.046 A 
ATOM     24  C   UNL     1      -7.700  -8.463   6.270  0.00  0.00    +0.023 A 
ATOM     26  C   UNL     1      -6.528 -10.824   5.403  0.00  0.00    +0.024 A 
ATOM     27  C   UNL     1      -7.815  -8.844   4.933  0.00  0.00    -0.014 A 
ATOM     28  C   UNL     1      -7.240 -10.032   4.502  0.00  0.00    +0.010 A 
ATOM     35  H   UNL     1      -5.465 -12.243   7.182  0.00  0.00    +0.155 HD
ENDROOT
BRANCH  27  29
ATOM      1  F   UNL     1     -10.386  -7.869   5.509  0.00  0.00    -0.205 F 
ATOM     29  C   UNL     1      -8.552  -8.016   4.003  0.00  0.00    +0.017 A 
ATOM     30  C   UNL     1      -9.827  -7.555   4.332  0.00  0.00    +0.131 A 
ATOM     31  C   UNL     1      -7.983  -7.678   2.774  0.00  0.00    +0.011 A 
ATOM     32  C   UNL     1     -10.533  -6.756   3.432  0.00  0.00    +0.039 A 
ATOM     33  C   UNL     1      -8.690  -6.880   1.875  0.00  0.00    +0.001 A 
ATOM     34  C   UNL     1      -9.965  -6.419   2.203  0.00  0.00    +0.003 A 
ENDBRANCH  27  29
BRANCH  16  15
ATOM     15  C   UNL     1      -3.352 -10.747  13.566  0.00  0.00    +0.103 C 
BRANCH  15  14
ATOM     14  C   UNL     1      -2.764 -12.134  13.891  0.00  0.00    -0.017 C 
ATOM     20  C   UNL     1      -2.598 -12.896  12.561  0.00  0.00    +0.012 C 
ATOM     21  C   UNL     1      -3.751 -12.934  14.768  0.00  0.00    +0.012 C 
BRANCH  14  19
ATOM     19  C   UNL     1      -1.411 -12.058  14.639  0.00  0.00    +0.127 C 
BRANCH  19  25
ATOM      6  O   UNL     1      -0.840  -9.786  15.246  0.00  0.00    -0.251 OA
ATOM     25  C   UNL     1      -1.274 -10.882  15.579  0.00  0.00    +0.305 C 
BRANCH  25   5
ATOM      5  O   UNL     1      -1.676 -11.166  16.843  0.00  0.00    -0.481 OA
ATOM     36  H   UNL     1      -2.042 -12.072  16.916  0.00  0.00    +0.295 HD
ENDBRANCH  25   5
ENDBRANCH  19  25
ENDBRANCH  14  19
ENDBRANCH  15  14
ENDBRANCH  16  15
TORSDOF 6
ENDMDL
MODEL 8
REMARK VINA RESULT:      -6.8     27.564     32.374
REMARK  Name = 7135490
REMARK  8 active torsions:
REMARK  status: ('A' for Active; 'I' for Inactive)
REMARK    1  A    between atoms: O_5  and  C_25
REMARK    2  A    between atoms: C_14  and  C_15
REMARK    3  A    between atoms: C_14  and  C_19
REMARK    4  A    between atoms: C_14  and  C_20
REMARK    5  A    between atoms: C_14  and  C_21
REMARK    6  A    between atoms: C_15  and  C_16
REMARK    7  A    between atoms: C_19  and  C_25
REMARK    8  A    between atoms: C_27  and  C_29
REMARK                            x       y       z     vdW  Elec       q    Type
REMARK                         _______ _______ _______ _____ _____    ______ ____
ROOT
ATOM      2  O   UNL     1      -7.166  12.235  34.524  0.00  0.00    -0.276 OA
ATOM      3  O   UNL     1     -10.705  10.873  35.619  0.00  0.00    -0.273 OA
ATOM      4  O   UNL     1     -12.958   9.414  31.061  0.00  0.00    -0.270 OA
ATOM      7  N   UNL     1      -9.077  11.785  33.279  0.00  0.00    -0.298 N 
ATOM      8  N   UNL     1     -11.231  10.010  32.480  0.00  0.00    -0.283 N 
ATOM      9  N   UNL     1     -12.170   9.193  35.164  0.00  0.00    -0.283 N 
ATOM     10  C   UNL     1     -10.341   9.645  33.574  0.00  0.00    +0.180 C 
ATOM     11  C   UNL     1      -8.975  10.336  33.480  0.00  0.00    +0.139 C 
ATOM     12  C   UNL     1     -10.206  12.262  32.477  0.00  0.00    +0.127 C 
ATOM     13  C   UNL     1     -10.843  11.154  31.653  0.00  0.00    +0.128 C 
ATOM     16  C   UNL     1      -8.120  12.627  33.847  0.00  0.00    +0.216 C 
ATOM     17  C   UNL     1     -11.089   9.988  34.852  0.00  0.00    +0.239 C 
ATOM     18  C   UNL     1     -12.314   9.227  32.094  0.00  0.00    +0.249 C 
ATOM     22  C   UNL     1     -12.750   8.114  32.981  0.00  0.00    +0.059 A 
ATOM     23  C   UNL     1     -12.763   8.178  34.383  0.00  0.00    +0.046 A 
ATOM     24  C   UNL     1     -13.348   7.016  32.335  0.00  0.00    +0.023 A 
ATOM     26  C   UNL     1     -13.436   7.175  35.104  0.00  0.00    +0.024 A 
ATOM     27  C   UNL     1     -13.969   6.005  33.069  0.00  0.00    -0.014 A 
ATOM     28  C   UNL     1     -14.024   6.091  34.453  0.00  0.00    +0.010 A 
ATOM     35  H   UNL     1     -12.522   9.286  36.114  0.00  0.00    +0.155 HD
ENDROOT
BRANCH  27  29
ATOM      1  F   UNL     1     -12.451   3.856  32.084  0.00  0.00    -0.205 F 
ATOM     29  C   UNL     1     -14.575   4.881  32.388  0.00  0.00    +0.017 A 
ATOM     30  C   UNL     1     -13.781   3.836  31.915  0.00  0.00    +0.131 A 
ATOM     31  C   UNL     1     -15.958   4.844  32.205  0.00  0.00    +0.011 A 
ATOM     32  C   UNL     1     -14.370   2.754  31.259  0.00  0.00    +0.039 A 
ATOM     33  C   UNL     1     -16.546   3.763  31.549  0.00  0.00    +0.001 A 
ATOM     34  C   UNL     1     -15.753   2.718  31.075  0.00  0.00    +0.003 A 
ENDBRANCH  27  29
BRANCH  16  15
ATOM     15  C   UNL     1      -8.296  14.104  33.589  0.00  0.00    +0.103 C 
BRANCH  15  14
ATOM     14  C   UNL     1      -7.384  14.626  32.460  0.00  0.00    -0.017 C 
ATOM     20  C   UNL     1      -6.252  15.445  33.114  0.00  0.00    +0.012 C 
ATOM     21  C   UNL     1      -8.176  15.578  31.538  0.00  0.00    +0.012 C 
BRANCH  14  19
ATOM     19  C   UNL     1      -6.792  13.493  31.587  0.00  0.00    +0.127 C 
BRANCH  19  25
ATOM      6  O   UNL     1      -5.561  14.624  29.836  0.00  0.00    -0.251 OA
ATOM     25  C   UNL     1      -5.555  13.877  30.807  0.00  0.00    +0.305 C 
BRANCH  25   5
ATOM      5  O   UNL     1      -4.426  13.302  31.291  0.00  0.00    -0.481 OA
ATOM     36  H   UNL     1      -3.861  12.945  30.574  0.00  0.00    +0.295 HD
ENDBRANCH  25   5
ENDBRANCH  19  25
ENDBRANCH  14  19
ENDBRANCH  15  14
ENDBRANCH  16  15
TORSDOF 6
ENDMDL
MODEL 9
REMARK VINA RESULT:      -6.8     28.566     31.652
REMARK  Name = 7135490
REMARK  8 active torsions:
REMARK  status: ('A' for Active; 'I' for Inactive)
REMARK    1  A    between atoms: O_5  and  C_25
REMARK    2  A    between atoms: C_14  and  C_15
REMARK    3  A    between atoms: C_14  and  C_19
REMARK    4  A    between atoms: C_14  and  C_20
REMARK    5  A    between atoms: C_14  and  C_21
REMARK    6  A    between atoms: C_15  and  C_16
REMARK    7  A    between atoms: C_19  and  C_25
REMARK    8  A    between atoms: C_27  and  C_29
REMARK                            x       y       z     vdW  Elec       q    Type
REMARK                         _______ _______ _______ _____ _____    ______ ____
ROOT
ATOM      2  O   UNL     1      -2.257 -11.087  16.189  0.00  0.00    -0.276 OA
ATOM      3  O   UNL     1      -4.052 -13.545  13.675  0.00  0.00    -0.273 OA
ATOM      4  O   UNL     1      -5.787 -10.361   9.824  0.00  0.00    -0.270 OA
ATOM      7  N   UNL     1      -3.723 -10.668  14.433  0.00  0.00    -0.298 N 
ATOM      8  N   UNL     1      -4.522 -10.977  11.659  0.00  0.00    -0.283 N 
ATOM      9  N   UNL     1      -4.301 -13.920  11.445  0.00  0.00    -0.283 N 
ATOM     10  C   UNL     1      -3.408 -11.748  12.197  0.00  0.00    +0.180 C 
ATOM     11  C   UNL     1      -2.755 -11.074  13.410  0.00  0.00    +0.139 C 
ATOM     12  C   UNL     1      -5.038 -10.228  13.960  0.00  0.00    +0.127 C 
ATOM     13  C   UNL     1      -5.036  -9.880  12.479  0.00  0.00    +0.128 C 
ATOM     16  C   UNL     1      -3.361 -10.718  15.781  0.00  0.00    +0.216 C 
ATOM     17  C   UNL     1      -3.972 -13.123  12.520  0.00  0.00    +0.239 C 
ATOM     18  C   UNL     1      -4.984 -11.129  10.356  0.00  0.00    +0.249 C 
ATOM     22  C   UNL     1      -4.515 -12.292   9.556  0.00  0.00    +0.059 A 
ATOM     23  C   UNL     1      -4.311 -13.580  10.075  0.00  0.00    +0.046 A 
ATOM     24  C   UNL     1      -4.456 -12.093   8.164  0.00  0.00    +0.023 A 
ATOM     26  C   UNL     1      -4.123 -14.652   9.185  0.00  0.00    +0.024 A 
ATOM     27  C   UNL     1      -4.220 -13.161   7.297  0.00  0.00    -0.014 A 
ATOM     28  C   UNL     1      -4.067 -14.443   7.807  0.00  0.00    +0.010 A 
ATOM     35  H   UNL     1      -4.463 -14.901  11.661  0.00  0.00    +0.155 HD
ENDROOT
BRANCH  27  29
ATOM      1  F   UNL     1      -1.830 -13.412   5.842  0.00  0.00    -0.205 F 
ATOM     29  C   UNL     1      -4.159 -12.936   5.869  0.00  0.00    +0.017 A 
ATOM     30  C   UNL     1      -2.949 -13.072   5.188  0.00  0.00    +0.131 A 
ATOM     31  C   UNL     1      -5.316 -12.583   5.172  0.00  0.00    +0.011 A 
ATOM     32  C   UNL     1      -2.896 -12.855   3.810  0.00  0.00    +0.039 A 
ATOM     33  C   UNL     1      -5.261 -12.366   3.795  0.00  0.00    +0.001 A 
ATOM     34  C   UNL     1      -4.052 -12.501   3.114  0.00  0.00    +0.003 A 
ENDBRANCH  27  29
BRANCH  16  15
ATOM     15  C   UNL     1      -4.415 -10.279  16.769  0.00  0.00    +0.103 C 
BRANCH  15  14
ATOM     14  C   UNL     1      -4.911 -11.431  17.666  0.00  0.00    -0.017 C 
ATOM     20  C   UNL     1      -3.845 -11.668  18.755  0.00  0.00    +0.012 C 
ATOM     21  C   UNL     1      -5.033 -12.729  16.840  0.00  0.00    +0.012 C 
BRANCH  14  19
ATOM     19  C   UNL     1      -6.287 -11.143  18.315  0.00  0.00    +0.127 C 
BRANCH  19  25
ATOM      6  O   UNL     1      -7.634 -10.842  16.327  0.00  0.00    -0.251 OA
ATOM     25  C   UNL     1      -7.270 -10.424  17.419  0.00  0.00    +0.305 C 
BRANCH  25   5
ATOM      5  O   UNL     1      -7.708  -9.254  17.947  0.00  0.00    -0.481 OA
ATOM     36  H   UNL     1      -8.046  -8.644  17.258  0.00  0.00    +0.295 HD
ENDBRANCH  25   5
ENDBRANCH  19  25
ENDBRANCH  14  19
ENDBRANCH  15  14
ENDBRANCH  16  15
TORSDOF 6
ENDMDL
MODEL 10
REMARK VINA RESULT:      -6.7     32.144     33.930
REMARK  Name = 7135490
REMARK  8 active torsions:
REMARK  status: ('A' for Active; 'I' for Inactive)
REMARK    1  A    between atoms: O_5  and  C_25
REMARK    2  A    between atoms: C_14  and  C_15
REMARK    3  A    between atoms: C_14  and  C_19
REMARK    4  A    between atoms: C_14  and  C_20
REMARK    5  A    between atoms: C_14  and  C_21
REMARK    6  A    between atoms: C_15  and  C_16
REMARK    7  A    between atoms: C_19  and  C_25
REMARK    8  A    between atoms: C_27  and  C_29
REMARK                            x       y       z     vdW  Elec       q    Type
REMARK                         _______ _______ _______ _____ _____    ______ ____
ROOT
ATOM      2  O   UNL     1      -8.569 -11.168  40.634  0.00  0.00    -0.276 OA
ATOM      3  O   UNL     1      -6.880  -8.024  38.947  0.00  0.00    -0.273 OA
ATOM      4  O   UNL     1      -5.101  -5.197  43.048  0.00  0.00    -0.270 OA
ATOM      7  N   UNL     1      -7.900  -9.131  41.533  0.00  0.00    -0.298 N 
ATOM      8  N   UNL     1      -5.900  -7.068  41.947  0.00  0.00    -0.283 N 
ATOM      9  N   UNL     1      -5.050  -6.685  39.138  0.00  0.00    -0.283 N 
ATOM     10  C   UNL     1      -5.650  -8.163  41.019  0.00  0.00    +0.180 C 
ATOM     11  C   UNL     1      -6.474  -9.414  41.346  0.00  0.00    +0.139 C 
ATOM     12  C   UNL     1      -8.243  -7.839  42.134  0.00  0.00    +0.127 C 
ATOM     13  C   UNL     1      -7.058  -7.190  42.833  0.00  0.00    +0.128 C 
ATOM     16  C   UNL     1      -8.847 -10.078  41.140  0.00  0.00    +0.216 C 
ATOM     17  C   UNL     1      -5.944  -7.610  39.633  0.00  0.00    +0.239 C 
ATOM     18  C   UNL     1      -5.002  -6.023  42.139  0.00  0.00    +0.249 C 
ATOM     22  C   UNL     1      -3.871  -5.860  41.186  0.00  0.00    +0.059 A 
ATOM     23  C   UNL     1      -3.963  -6.078  39.803  0.00  0.00    +0.046 A 
ATOM     24  C   UNL     1      -2.704  -5.279  41.716  0.00  0.00    +0.023 A 
ATOM     26  C   UNL     1      -2.914  -5.644  38.973  0.00  0.00    +0.024 A 
ATOM     27  C   UNL     1      -1.651  -4.898  40.883  0.00  0.00    -0.014 A 
ATOM     28  C   UNL     1      -1.762  -5.069  39.510  0.00  0.00    +0.010 A 
ATOM     35  H   UNL     1      -5.128  -6.492  38.143  0.00  0.00    +0.155 HD
ENDROOT
BRANCH  27  29
ATOM      1  F   UNL     1      -1.610  -2.272  41.879  0.00  0.00    -0.205 F 
ATOM     29  C   UNL     1      -0.457  -4.306  41.446  0.00  0.00    +0.017 A 
ATOM     30  C   UNL     1      -0.484  -2.997  41.929  0.00  0.00    +0.131 A 
ATOM     31  C   UNL     1       0.723  -5.048  41.507  0.00  0.00    +0.011 A 
ATOM     32  C   UNL     1       0.670  -2.431  42.472  0.00  0.00    +0.039 A 
ATOM     33  C   UNL     1       1.876  -4.481  42.049  0.00  0.00    +0.001 A 
ATOM     34  C   UNL     1       1.850  -3.173  42.531  0.00  0.00    +0.003 A 
ENDBRANCH  27  29
BRANCH  16  15
ATOM     15  C   UNL     1     -10.293  -9.709  41.371  0.00  0.00    +0.103 C 
BRANCH  15  14
ATOM     14  C   UNL     1     -11.075  -9.504  40.059  0.00  0.00    -0.017 C 
ATOM     20  C   UNL     1     -12.369  -8.738  40.400  0.00  0.00    +0.012 C 
ATOM     21  C   UNL     1     -11.483 -10.871  39.468  0.00  0.00    +0.012 C 
BRANCH  14  19
ATOM     19  C   UNL     1     -10.265  -8.739  38.984  0.00  0.00    +0.127 C 
BRANCH  19  25
ATOM      6  O   UNL     1     -10.764  -9.792  36.862  0.00  0.00    -0.251 OA
ATOM     25  C   UNL     1      -9.948  -9.541  37.742  0.00  0.00    +0.305 C 
BRANCH  25   5
ATOM      5  O   UNL     1      -8.661  -9.964  37.699  0.00  0.00    -0.481 OA
ATOM     36  H   UNL     1      -8.165  -9.556  36.959  0.00  0.00    +0.295 HD
ENDBRANCH  25   5
ENDBRANCH  19  25
ENDBRANCH  14  19
ENDBRANCH  15  14
ENDBRANCH  16  15
TORSDOF 6
ENDMDL
