MODEL 1
REMARK VINA RESULT:      -8.2      0.000      0.000
REMARK  Name = 75536049
REMARK  5 active torsions:
REMARK  status: ('A' for Active; 'I' for Inactive)
REMARK    1  A    between atoms: S_1  and  N_7
REMARK    2  A    between atoms: S_1  and  C_17
REMARK    3  A    between atoms: S_2  and  N_8
REMARK    4  A    between atoms: S_2  and  C_19
REMARK    5  A    between atoms: C_10  and  C_14
REMARK                            x       y       z     vdW  Elec       q    Type
REMARK                         _______ _______ _______ _____ _____    ______ ____
ROOT
ATOM      8  N   UNL     1      13.520   7.675  19.296  0.00  0.00    -0.195 N 
ATOM      9  N   UNL     1      13.564   7.483  21.510  0.00  0.00    -0.230 NA
ATOM     14  C   UNL     1      12.842   7.843  20.472  0.00  0.00    +0.136 A 
ATOM     15  C   UNL     1      14.761   7.173  19.596  0.00  0.00    +0.092 A 
ATOM     16  C   UNL     1      14.763   7.062  20.984  0.00  0.00    +0.091 A 
ATOM     18  C   UNL     1      15.848   6.817  18.796  0.00  0.00    +0.030 A 
ATOM     20  C   UNL     1      15.910   6.569  21.629  0.00  0.00    +0.030 A 
ATOM     23  C   UNL     1      16.980   6.328  19.456  0.00  0.00    +0.002 A 
ATOM     24  C   UNL     1      17.013   6.206  20.847  0.00  0.00    +0.002 A 
ENDROOT
BRANCH  14  10
ATOM      7  N   UNL     1      10.941  10.016  22.246  0.00  0.00    -0.176 NA
ATOM     10  C   UNL     1      11.425   8.386  20.527  0.00  0.00    +0.074 C 
ATOM     11  C   UNL     1      10.617   7.749  21.660  0.00  0.00    +0.029 C 
ATOM     12  C   UNL     1      11.268   9.891  20.795  0.00  0.00    +0.120 C 
ATOM     13  C   UNL     1      10.879   8.663  22.849  0.00  0.00    +0.110 C 
BRANCH   7   1
ATOM      1  S   UNL     1      11.645  11.271  23.140  0.00  0.00    +0.061 S 
ATOM      3  O   UNL     1      13.073  11.039  23.263  0.00  0.00    -0.153 OA
ATOM      4  O   UNL     1      10.841  11.535  24.319  0.00  0.00    -0.153 OA
BRANCH   1  17
ATOM     17  C   UNL     1      11.421  12.626  22.027  0.00  0.00    +0.105 A 
ATOM     21  C   UNL     1      12.344  12.845  21.003  0.00  0.00    +0.028 A 
ATOM     22  C   UNL     1      10.326  13.477  22.173  0.00  0.00    +0.028 A 
ATOM     27  C   UNL     1      12.170  13.916  20.126  0.00  0.00    +0.002 A 
ATOM     28  C   UNL     1      10.152  14.548  21.297  0.00  0.00    +0.002 A 
ATOM     29  C   UNL     1      11.075  14.767  20.273  0.00  0.00    +0.000 A 
ENDBRANCH   1  17
ENDBRANCH   7   1
ENDBRANCH  14  10
BRANCH   8   2
ATOM      2  S   UNL     1      12.946   8.016  17.774  0.00  0.00    +0.086 S 
ATOM      5  O   UNL     1      11.464   8.129  17.746  0.00  0.00    -0.148 OA
ATOM      6  O   UNL     1      13.550   7.080  16.798  0.00  0.00    -0.148 OA
BRANCH   2  19
ATOM     19  C   UNL     1      13.468   9.656  17.241  0.00  0.00    +0.111 A 
ATOM     25  C   UNL     1      13.568   9.948  15.881  0.00  0.00    +0.029 A 
ATOM     26  C   UNL     1      13.777  10.632  18.189  0.00  0.00    +0.029 A 
ATOM     30  C   UNL     1      13.977  11.216  15.468  0.00  0.00    +0.002 A 
ATOM     31  C   UNL     1      14.186  11.900  17.776  0.00  0.00    +0.002 A 
ATOM     32  C   UNL     1      14.285  12.192  16.415  0.00  0.00    +0.000 A 
ENDBRANCH   2  19
ENDBRANCH   8   2
TORSDOF 5
ENDMDL
MODEL 2
REMARK VINA RESULT:      -7.8      2.419      3.400
REMARK  Name = 75536049
REMARK  5 active torsions:
REMARK  status: ('A' for Active; 'I' for Inactive)
REMARK    1  A    between atoms: S_1  and  N_7
REMARK    2  A    between atoms: S_1  and  C_17
REMARK    3  A    between atoms: S_2  and  N_8
REMARK    4  A    between atoms: S_2  and  C_19
REMARK    5  A    between atoms: C_10  and  C_14
REMARK                            x       y       z     vdW  Elec       q    Type
REMARK                         _______ _______ _______ _____ _____    ______ ____
ROOT
ATOM      8  N   UNL     1      13.280   8.298  20.492  0.00  0.00    -0.195 N 
ATOM      9  N   UNL     1      14.470   9.501  21.932  0.00  0.00    -0.230 NA
ATOM     14  C   UNL     1      13.282   9.320  21.401  0.00  0.00    +0.136 A 
ATOM     15  C   UNL     1      14.552   7.786  20.435  0.00  0.00    +0.092 A 
ATOM     16  C   UNL     1      15.275   8.554  21.343  0.00  0.00    +0.091 A 
ATOM     18  C   UNL     1      15.113   6.748  19.690  0.00  0.00    +0.030 A 
ATOM     20  C   UNL     1      16.642   8.286  21.531  0.00  0.00    +0.030 A 
ATOM     23  C   UNL     1      16.474   6.496  19.890  0.00  0.00    +0.002 A 
ATOM     24  C   UNL     1      17.227   7.249  20.794  0.00  0.00    +0.002 A 
ENDROOT
BRANCH  14  10
ATOM      7  N   UNL     1      12.265  12.532  21.761  0.00  0.00    -0.176 NA
ATOM     10  C   UNL     1      12.036  10.125  21.725  0.00  0.00    +0.074 C 
ATOM     11  C   UNL     1      12.055  10.643  23.165  0.00  0.00    +0.029 C 
ATOM     12  C   UNL     1      11.801  11.403  20.903  0.00  0.00    +0.120 C 
ATOM     13  C   UNL     1      12.747  11.993  23.056  0.00  0.00    +0.110 C 
BRANCH   7   1
ATOM      1  S   UNL     1      13.119  13.809  21.046  0.00  0.00    +0.061 S 
ATOM      3  O   UNL     1      13.472  14.786  22.060  0.00  0.00    -0.153 OA
ATOM      4  O   UNL     1      12.440  14.225  19.832  0.00  0.00    -0.153 OA
BRANCH   1  17
ATOM     17  C   UNL     1      14.604  12.978  20.570  0.00  0.00    +0.105 A 
ATOM     21  C   UNL     1      14.637  12.230  19.392  0.00  0.00    +0.028 A 
ATOM     22  C   UNL     1      15.741  13.066  21.373  0.00  0.00    +0.028 A 
ATOM     27  C   UNL     1      15.808  11.571  19.018  0.00  0.00    +0.002 A 
ATOM     28  C   UNL     1      16.912  12.406  20.999  0.00  0.00    +0.002 A 
ATOM     29  C   UNL     1      16.945  11.658  19.821  0.00  0.00    +0.000 A 
ENDBRANCH   1  17
ENDBRANCH   7   1
ENDBRANCH  14  10
BRANCH   8   2
ATOM      2  S   UNL     1      11.973   7.767  19.613  0.00  0.00    +0.086 S 
ATOM      5  O   UNL     1      10.685   8.245  20.180  0.00  0.00    -0.148 OA
ATOM      6  O   UNL     1      12.089   6.307  19.390  0.00  0.00    -0.148 OA
BRANCH   2  19
ATOM     19  C   UNL     1      11.965   8.497  17.966  0.00  0.00    +0.111 A 
ATOM     25  C   UNL     1      13.105   9.136  17.481  0.00  0.00    +0.029 A 
ATOM     26  C   UNL     1      10.817   8.425  17.177  0.00  0.00    +0.029 A 
ATOM     30  C   UNL     1      13.099   9.704  16.207  0.00  0.00    +0.002 A 
ATOM     31  C   UNL     1      10.809   8.993  15.903  0.00  0.00    +0.002 A 
ATOM     32  C   UNL     1      11.950   9.633  15.418  0.00  0.00    +0.000 A 
ENDBRANCH   2  19
ENDBRANCH   8   2
TORSDOF 5
ENDMDL
MODEL 3
REMARK VINA RESULT:      -7.3      2.296      5.097
REMARK  Name = 75536049
REMARK  5 active torsions:
REMARK  status: ('A' for Active; 'I' for Inactive)
REMARK    1  A    between atoms: S_1  and  N_7
REMARK    2  A    between atoms: S_1  and  C_17
REMARK    3  A    between atoms: S_2  and  N_8
REMARK    4  A    between atoms: S_2  and  C_19
REMARK    5  A    between atoms: C_10  and  C_14
REMARK                            x       y       z     vdW  Elec       q    Type
REMARK                         _______ _______ _______ _____ _____    ______ ____
ROOT
ATOM      8  N   UNL     1      14.876   9.051  19.829  0.00  0.00    -0.195 N 
ATOM      9  N   UNL     1      14.744  11.208  19.309  0.00  0.00    -0.230 NA
ATOM     14  C   UNL     1      14.974  10.342  20.270  0.00  0.00    +0.136 A 
ATOM     15  C   UNL     1      14.561   9.088  18.494  0.00  0.00    +0.092 A 
ATOM     16  C   UNL     1      14.485  10.444  18.193  0.00  0.00    +0.091 A 
ATOM     18  C   UNL     1      14.344   8.080  17.553  0.00  0.00    +0.030 A 
ATOM     20  C   UNL     1      14.174  10.839  16.881  0.00  0.00    +0.030 A 
ATOM     23  C   UNL     1      14.037   8.491  16.252  0.00  0.00    +0.002 A 
ATOM     24  C   UNL     1      13.952   9.845  15.920  0.00  0.00    +0.002 A 
ENDROOT
BRANCH  14  10
ATOM      7  N   UNL     1      13.535  11.628  23.055  0.00  0.00    -0.176 NA
ATOM     10  C   UNL     1      15.310  10.689  21.710  0.00  0.00    +0.074 C 
ATOM     11  C   UNL     1      15.516  12.193  21.897  0.00  0.00    +0.029 C 
ATOM     12  C   UNL     1      14.251  10.350  22.771  0.00  0.00    +0.120 C 
ATOM     13  C   UNL     1      14.124  12.710  22.230  0.00  0.00    +0.110 C 
BRANCH   7   1
ATOM      1  S   UNL     1      11.854  11.596  23.270  0.00  0.00    +0.061 S 
ATOM      3  O   UNL     1      11.255  12.732  22.591  0.00  0.00    -0.153 OA
ATOM      4  O   UNL     1      11.549  11.331  24.664  0.00  0.00    -0.153 OA
BRANCH   1  17
ATOM     17  C   UNL     1      11.438  10.147  22.346  0.00  0.00    +0.105 A 
ATOM     21  C   UNL     1      11.582  10.141  20.958  0.00  0.00    +0.028 A 
ATOM     22  C   UNL     1      10.963   9.013  23.004  0.00  0.00    +0.028 A 
ATOM     27  C   UNL     1      11.251   8.999  20.229  0.00  0.00    +0.002 A 
ATOM     28  C   UNL     1      10.632   7.871  22.275  0.00  0.00    +0.002 A 
ATOM     29  C   UNL     1      10.775   7.864  20.887  0.00  0.00    +0.000 A 
ENDBRANCH   1  17
ENDBRANCH   7   1
ENDBRANCH  14  10
BRANCH   8   2
ATOM      2  S   UNL     1      15.097   7.681  20.744  0.00  0.00    +0.086 S 
ATOM      5  O   UNL     1      14.325   6.525  20.217  0.00  0.00    -0.148 OA
ATOM      6  O   UNL     1      14.895   8.006  22.175  0.00  0.00    -0.148 OA
BRANCH   2  19
ATOM     19  C   UNL     1      16.797   7.096  20.628  0.00  0.00    +0.111 A 
ATOM     25  C   UNL     1      17.142   6.140  19.674  0.00  0.00    +0.029 A 
ATOM     26  C   UNL     1      17.768   7.598  21.495  0.00  0.00    +0.029 A 
ATOM     30  C   UNL     1      18.457   5.684  19.586  0.00  0.00    +0.002 A 
ATOM     31  C   UNL     1      19.083   7.143  21.408  0.00  0.00    +0.002 A 
ATOM     32  C   UNL     1      19.428   6.186  20.453  0.00  0.00    +0.000 A 
ENDBRANCH   2  19
ENDBRANCH   8   2
TORSDOF 5
ENDMDL
MODEL 4
REMARK VINA RESULT:      -7.2     14.193     18.520
REMARK  Name = 75536049
REMARK  5 active torsions:
REMARK  status: ('A' for Active; 'I' for Inactive)
REMARK    1  A    between atoms: S_1  and  N_7
REMARK    2  A    between atoms: S_1  and  C_17
REMARK    3  A    between atoms: S_2  and  N_8
REMARK    4  A    between atoms: S_2  and  C_19
REMARK    5  A    between atoms: C_10  and  C_14
REMARK                            x       y       z     vdW  Elec       q    Type
REMARK                         _______ _______ _______ _____ _____    ______ ____
ROOT
ATOM      8  N   UNL     1      10.934   7.487   5.097  0.00  0.00    -0.195 N 
ATOM      9  N   UNL     1      12.712   7.266   3.782  0.00  0.00    -0.230 NA
ATOM     14  C   UNL     1      11.472   6.886   3.993  0.00  0.00    +0.136 A 
ATOM     15  C   UNL     1      11.892   8.310   5.633  0.00  0.00    +0.092 A 
ATOM     16  C   UNL     1      12.991   8.155   4.795  0.00  0.00    +0.091 A 
ATOM     18  C   UNL     1      11.889   9.152   6.747  0.00  0.00    +0.030 A 
ATOM     20  C   UNL     1      14.168   8.874   5.067  0.00  0.00    +0.030 A 
ATOM     23  C   UNL     1      13.068   9.859   7.002  0.00  0.00    +0.002 A 
ATOM     24  C   UNL     1      14.188   9.724   6.179  0.00  0.00    +0.002 A 
ENDROOT
BRANCH  14  10
ATOM      7  N   UNL     1      11.914   4.757   1.394  0.00  0.00    -0.176 NA
ATOM     10  C   UNL     1      10.693   5.900   3.139  0.00  0.00    +0.074 C 
ATOM     11  C   UNL     1      10.347   6.485   1.769  0.00  0.00    +0.029 C 
ATOM     12  C   UNL     1      11.398   4.581   2.783  0.00  0.00    +0.120 C 
ATOM     13  C   UNL     1      11.537   6.104   0.901  0.00  0.00    +0.110 C 
BRANCH   7   1
ATOM      1  S   UNL     1      13.448   4.151   1.005  0.00  0.00    +0.061 S 
ATOM      3  O   UNL     1      13.655   2.882   1.679  0.00  0.00    -0.153 OA
ATOM      4  O   UNL     1      14.431   5.212   1.124  0.00  0.00    -0.153 OA
BRANCH   1  17
ATOM     17  C   UNL     1      13.235   3.810  -0.716  0.00  0.00    +0.105 A 
ATOM     21  C   UNL     1      12.332   2.828  -1.125  0.00  0.00    +0.028 A 
ATOM     22  C   UNL     1      13.971   4.519  -1.665  0.00  0.00    +0.028 A 
ATOM     27  C   UNL     1      12.166   2.556  -2.482  0.00  0.00    +0.002 A 
ATOM     28  C   UNL     1      13.804   4.248  -3.023  0.00  0.00    +0.002 A 
ATOM     29  C   UNL     1      12.902   3.265  -3.431  0.00  0.00    +0.000 A 
ENDBRANCH   1  17
ENDBRANCH   7   1
ENDBRANCH  14  10
BRANCH   8   2
ATOM      2  S   UNL     1       9.396   7.263   5.686  0.00  0.00    +0.086 S 
ATOM      5  O   UNL     1       8.519   6.561   4.713  0.00  0.00    -0.148 OA
ATOM      6  O   UNL     1       8.883   8.545   6.225  0.00  0.00    -0.148 OA
BRANCH   2  19
ATOM     19  C   UNL     1       9.402   6.132   7.088  0.00  0.00    +0.111 A 
ATOM     25  C   UNL     1       9.799   4.806   6.914  0.00  0.00    +0.029 A 
ATOM     26  C   UNL     1       9.005   6.580   8.348  0.00  0.00    +0.029 A 
ATOM     30  C   UNL     1       9.800   3.929   7.998  0.00  0.00    +0.002 A 
ATOM     31  C   UNL     1       9.005   5.704   9.433  0.00  0.00    +0.002 A 
ATOM     32  C   UNL     1       9.403   4.378   9.258  0.00  0.00    +0.000 A 
ENDBRANCH   2  19
ENDBRANCH   8   2
TORSDOF 5
ENDMDL
MODEL 5
REMARK VINA RESULT:      -7.2     13.873     17.959
REMARK  Name = 75536049
REMARK  5 active torsions:
REMARK  status: ('A' for Active; 'I' for Inactive)
REMARK    1  A    between atoms: S_1  and  N_7
REMARK    2  A    between atoms: S_1  and  C_17
REMARK    3  A    between atoms: S_2  and  N_8
REMARK    4  A    between atoms: S_2  and  C_19
REMARK    5  A    between atoms: C_10  and  C_14
REMARK                            x       y       z     vdW  Elec       q    Type
REMARK                         _______ _______ _______ _____ _____    ______ ____
ROOT
ATOM      8  N   UNL     1       9.887   7.238   6.067  0.00  0.00    -0.195 N 
ATOM      9  N   UNL     1      10.205   5.216   5.204  0.00  0.00    -0.230 NA
ATOM     14  C   UNL     1      10.174   6.504   4.949  0.00  0.00    +0.136 A 
ATOM     15  C   UNL     1       9.723   6.364   7.111  0.00  0.00    +0.092 A 
ATOM     16  C   UNL     1       9.927   5.108   6.547  0.00  0.00    +0.091 A 
ATOM     18  C   UNL     1       9.423   6.559   8.461  0.00  0.00    +0.030 A 
ATOM     20  C   UNL     1       9.829   3.967   7.361  0.00  0.00    +0.030 A 
ATOM     23  C   UNL     1       9.331   5.412   9.256  0.00  0.00    +0.002 A 
ATOM     24  C   UNL     1       9.529   4.138   8.718  0.00  0.00    +0.002 A 
ENDROOT
BRANCH  14  10
ATOM      7  N   UNL     1      11.412   5.749   1.887  0.00  0.00    -0.176 NA
ATOM     10  C   UNL     1      10.419   7.144   3.594  0.00  0.00    +0.074 C 
ATOM     11  C   UNL     1      11.892   7.504   3.395  0.00  0.00    +0.029 C 
ATOM     12  C   UNL     1      10.102   6.290   2.356  0.00  0.00    +0.120 C 
ATOM     13  C   UNL     1      12.490   6.251   2.772  0.00  0.00    +0.110 C 
BRANCH   7   1
ATOM      1  S   UNL     1      11.490   4.146   1.342  0.00  0.00    +0.061 S 
ATOM      3  O   UNL     1      10.587   3.970   0.218  0.00  0.00    -0.153 OA
ATOM      4  O   UNL     1      11.431   3.245   2.478  0.00  0.00    -0.153 OA
BRANCH   1  17
ATOM     17  C   UNL     1      13.140   4.101   0.708  0.00  0.00    +0.105 A 
ATOM     21  C   UNL     1      13.399   4.539  -0.591  0.00  0.00    +0.028 A 
ATOM     22  C   UNL     1      14.180   3.625   1.505  0.00  0.00    +0.028 A 
ATOM     27  C   UNL     1      14.700   4.500  -1.092  0.00  0.00    +0.002 A 
ATOM     28  C   UNL     1      15.481   3.586   1.004  0.00  0.00    +0.002 A 
ATOM     29  C   UNL     1      15.741   4.023  -0.295  0.00  0.00    +0.000 A 
ENDBRANCH   1  17
ENDBRANCH   7   1
ENDBRANCH  14  10
BRANCH   8   2
ATOM      2  S   UNL     1       9.760   8.893   6.150  0.00  0.00    +0.086 S 
ATOM      5  O   UNL     1      11.071   9.567   5.959  0.00  0.00    -0.148 OA
ATOM      6  O   UNL     1       9.001   9.270   7.365  0.00  0.00    -0.148 OA
BRANCH   2  19
ATOM     19  C   UNL     1       8.791   9.535   4.772  0.00  0.00    +0.111 A 
ATOM     25  C   UNL     1       7.515   9.032   4.523  0.00  0.00    +0.029 A 
ATOM     26  C   UNL     1       9.320  10.532   3.953  0.00  0.00    +0.029 A 
ATOM     30  C   UNL     1       6.766   9.526   3.455  0.00  0.00    +0.002 A 
ATOM     31  C   UNL     1       8.573  11.026   2.884  0.00  0.00    +0.002 A 
ATOM     32  C   UNL     1       7.295  10.523   2.635  0.00  0.00    +0.000 A 
ENDBRANCH   2  19
ENDBRANCH   8   2
TORSDOF 5
ENDMDL
MODEL 6
REMARK VINA RESULT:      -7.2      2.135      4.720
REMARK  Name = 75536049
REMARK  5 active torsions:
REMARK  status: ('A' for Active; 'I' for Inactive)
REMARK    1  A    between atoms: S_1  and  N_7
REMARK    2  A    between atoms: S_1  and  C_17
REMARK    3  A    between atoms: S_2  and  N_8
REMARK    4  A    between atoms: S_2  and  C_19
REMARK    5  A    between atoms: C_10  and  C_14
REMARK                            x       y       z     vdW  Elec       q    Type
REMARK                         _______ _______ _______ _____ _____    ______ ____
ROOT
ATOM      8  N   UNL     1      14.385   9.164  18.404  0.00  0.00    -0.195 N 
ATOM      9  N   UNL     1      15.477  10.991  19.041  0.00  0.00    -0.230 NA
ATOM     14  C   UNL     1      15.101   9.782  19.391  0.00  0.00    +0.136 A 
ATOM     15  C   UNL     1      14.293  10.033  17.347  0.00  0.00    +0.092 A 
ATOM     16  C   UNL     1      14.983  11.165  17.768  0.00  0.00    +0.091 A 
ATOM     18  C   UNL     1      13.685   9.926  16.095  0.00  0.00    +0.030 A 
ATOM     20  C   UNL     1      15.081  12.269  16.903  0.00  0.00    +0.030 A 
ATOM     23  C   UNL     1      13.793  11.034  15.248  0.00  0.00    +0.002 A 
ATOM     24  C   UNL     1      14.478  12.185  15.642  0.00  0.00    +0.002 A 
ENDROOT
BRANCH  14  10
ATOM      7  N   UNL     1      15.341  10.515  22.691  0.00  0.00    -0.176 NA
ATOM     10  C   UNL     1      15.403   9.114  20.722  0.00  0.00    +0.074 C 
ATOM     11  C   UNL     1      16.820   9.427  21.204  0.00  0.00    +0.029 C 
ATOM     12  C   UNL     1      14.532   9.527  21.919  0.00  0.00    +0.120 C 
ATOM     13  C   UNL     1      16.652  10.698  22.024  0.00  0.00    +0.110 C 
BRANCH   7   1
ATOM      1  S   UNL     1      14.568  11.874  23.347  0.00  0.00    +0.061 S 
ATOM      3  O   UNL     1      15.552  12.733  23.981  0.00  0.00    -0.153 OA
ATOM      4  O   UNL     1      13.385  11.453  24.075  0.00  0.00    -0.153 OA
BRANCH   1  17
ATOM     17  C   UNL     1      14.029  12.683  21.871  0.00  0.00    +0.105 A 
ATOM     21  C   UNL     1      14.788  13.721  21.329  0.00  0.00    +0.028 A 
ATOM     22  C   UNL     1      12.844  12.287  21.251  0.00  0.00    +0.028 A 
ATOM     27  C   UNL     1      14.361  14.362  20.166  0.00  0.00    +0.002 A 
ATOM     28  C   UNL     1      12.417  12.928  20.088  0.00  0.00    +0.002 A 
ATOM     29  C   UNL     1      13.176  13.966  19.546  0.00  0.00    +0.000 A 
ENDBRANCH   1  17
ENDBRANCH   7   1
ENDBRANCH  14  10
BRANCH   8   2
ATOM      2  S   UNL     1      13.739   7.633  18.471  0.00  0.00    +0.086 S 
ATOM      5  O   UNL     1      14.738   6.622  18.904  0.00  0.00    -0.148 OA
ATOM      6  O   UNL     1      13.021   7.346  17.206  0.00  0.00    -0.148 OA
BRANCH   2  19
ATOM     19  C   UNL     1      12.487   7.517  19.761  0.00  0.00    +0.111 A 
ATOM     25  C   UNL     1      12.444   6.399  20.592  0.00  0.00    +0.029 A 
ATOM     26  C   UNL     1      11.557   8.545  19.925  0.00  0.00    +0.029 A 
ATOM     30  C   UNL     1      11.472   6.307  21.588  0.00  0.00    +0.002 A 
ATOM     31  C   UNL     1      10.586   8.453  20.921  0.00  0.00    +0.002 A 
ATOM     32  C   UNL     1      10.543   7.334  21.753  0.00  0.00    +0.000 A 
ENDBRANCH   2  19
ENDBRANCH   8   2
TORSDOF 5
ENDMDL
MODEL 7
REMARK VINA RESULT:      -7.1     13.307     17.472
REMARK  Name = 75536049
REMARK  5 active torsions:
REMARK  status: ('A' for Active; 'I' for Inactive)
REMARK    1  A    between atoms: S_1  and  N_7
REMARK    2  A    between atoms: S_1  and  C_17
REMARK    3  A    between atoms: S_2  and  N_8
REMARK    4  A    between atoms: S_2  and  C_19
REMARK    5  A    between atoms: C_10  and  C_14
REMARK                            x       y       z     vdW  Elec       q    Type
REMARK                         _______ _______ _______ _____ _____    ______ ____
ROOT
ATOM      8  N   UNL     1       9.752   7.234   6.136  0.00  0.00    -0.195 N 
ATOM      9  N   UNL     1      10.209   5.232   5.286  0.00  0.00    -0.230 NA
ATOM     14  C   UNL     1      10.108   6.517   5.027  0.00  0.00    +0.136 A 
ATOM     15  C   UNL     1       9.615   6.353   7.179  0.00  0.00    +0.092 A 
ATOM     16  C   UNL     1       9.906   5.111   6.623  0.00  0.00    +0.091 A 
ATOM     18  C   UNL     1       9.274   6.532   8.520  0.00  0.00    +0.030 A 
ATOM     20  C   UNL     1       9.857   3.967   7.438  0.00  0.00    +0.030 A 
ATOM     23  C   UNL     1       9.230   5.383   9.316  0.00  0.00    +0.002 A 
ATOM     24  C   UNL     1       9.516   4.122   8.787  0.00  0.00    +0.002 A 
ENDROOT
BRANCH  14  10
ATOM      7  N   UNL     1      11.339   5.790   1.955  0.00  0.00    -0.176 NA
ATOM     10  C   UNL     1      10.346   7.168   3.676  0.00  0.00    +0.074 C 
ATOM     11  C   UNL     1      11.818   7.535   3.476  0.00  0.00    +0.029 C 
ATOM     12  C   UNL     1      10.029   6.322   2.432  0.00  0.00    +0.120 C 
ATOM     13  C   UNL     1      12.419   6.289   2.841  0.00  0.00    +0.110 C 
BRANCH   7   1
ATOM      1  S   UNL     1      11.422   4.192   1.398  0.00  0.00    +0.061 S 
ATOM      3  O   UNL     1      10.517   4.021   0.276  0.00  0.00    -0.153 OA
ATOM      4  O   UNL     1      11.370   3.282   2.527  0.00  0.00    -0.153 OA
BRANCH   1  17
ATOM     17  C   UNL     1      13.070   4.158   0.759  0.00  0.00    +0.105 A 
ATOM     21  C   UNL     1      13.335   4.670  -0.512  0.00  0.00    +0.028 A 
ATOM     22  C   UNL     1      14.104   3.616   1.523  0.00  0.00    +0.028 A 
ATOM     27  C   UNL     1      14.635   4.640  -1.017  0.00  0.00    +0.002 A 
ATOM     28  C   UNL     1      15.403   3.586   1.017  0.00  0.00    +0.002 A 
ATOM     29  C   UNL     1      15.668   4.098  -0.254  0.00  0.00    +0.000 A 
ENDBRANCH   1  17
ENDBRANCH   7   1
ENDBRANCH  14  10
BRANCH   8   2
ATOM      2  S   UNL     1       9.526   8.879   6.211  0.00  0.00    +0.086 S 
ATOM      5  O   UNL     1       9.025   9.316   7.540  0.00  0.00    -0.148 OA
ATOM      6  O   UNL     1       8.739   9.323   5.036  0.00  0.00    -0.148 OA
BRANCH   2  19
ATOM     19  C   UNL     1      11.097   9.752   6.083  0.00  0.00    +0.111 A 
ATOM     25  C   UNL     1      12.185   9.347   6.855  0.00  0.00    +0.029 A 
ATOM     26  C   UNL     1      11.223  10.837   5.215  0.00  0.00    +0.029 A 
ATOM     30  C   UNL     1      13.400  10.025   6.759  0.00  0.00    +0.002 A 
ATOM     31  C   UNL     1      12.437  11.515   5.119  0.00  0.00    +0.002 A 
ATOM     32  C   UNL     1      13.526  11.109   5.891  0.00  0.00    +0.000 A 
ENDBRANCH   2  19
ENDBRANCH   8   2
TORSDOF 5
ENDMDL
MODEL 8
REMARK VINA RESULT:      -7.1     14.738     18.939
REMARK  Name = 75536049
REMARK  5 active torsions:
REMARK  status: ('A' for Active; 'I' for Inactive)
REMARK    1  A    between atoms: S_1  and  N_7
REMARK    2  A    between atoms: S_1  and  C_17
REMARK    3  A    between atoms: S_2  and  N_8
REMARK    4  A    between atoms: S_2  and  C_19
REMARK    5  A    between atoms: C_10  and  C_14
REMARK                            x       y       z     vdW  Elec       q    Type
REMARK                         _______ _______ _______ _____ _____    ______ ____
ROOT
ATOM      8  N   UNL     1      11.339   7.140   3.787  0.00  0.00    -0.195 N 
ATOM      9  N   UNL     1      12.641   6.753   2.028  0.00  0.00    -0.230 NA
ATOM     14  C   UNL     1      11.401   6.864   2.449  0.00  0.00    +0.136 A 
ATOM     15  C   UNL     1      12.625   7.211   4.260  0.00  0.00    +0.092 A 
ATOM     16  C   UNL     1      13.418   6.967   3.143  0.00  0.00    +0.091 A 
ATOM     18  C   UNL     1      13.145   7.462   5.530  0.00  0.00    +0.030 A 
ATOM     20  C   UNL     1      14.817   6.968   3.283  0.00  0.00    +0.030 A 
ATOM     23  C   UNL     1      14.538   7.459   5.651  0.00  0.00    +0.002 A 
ATOM     24  C   UNL     1      15.361   7.217   4.549  0.00  0.00    +0.002 A 
ENDROOT
BRANCH  14  10
ATOM      7  N   UNL     1      10.454   5.723  -0.598  0.00  0.00    -0.176 NA
ATOM     10  C   UNL     1      10.159   6.711   1.588  0.00  0.00    +0.074 C 
ATOM     11  C   UNL     1      10.088   7.784   0.499  0.00  0.00    +0.029 C 
ATOM     12  C   UNL     1      10.021   5.403   0.794  0.00  0.00    +0.120 C 
ATOM     13  C   UNL     1      10.825   7.157  -0.675  0.00  0.00    +0.110 C 
BRANCH   7   1
ATOM      1  S   UNL     1      11.394   4.596  -1.445  0.00  0.00    +0.061 S 
ATOM      3  O   UNL     1      12.013   5.240  -2.589  0.00  0.00    -0.153 OA
ATOM      4  O   UNL     1      10.641   3.367  -1.614  0.00  0.00    -0.153 OA
BRANCH   1  17
ATOM     17  C   UNL     1      12.668   4.283  -0.260  0.00  0.00    +0.105 A 
ATOM     21  C   UNL     1      13.939   4.830  -0.441  0.00  0.00    +0.028 A 
ATOM     22  C   UNL     1      12.404   3.485   0.854  0.00  0.00    +0.028 A 
ATOM     27  C   UNL     1      14.945   4.580   0.492  0.00  0.00    +0.002 A 
ATOM     28  C   UNL     1      13.411   3.236   1.787  0.00  0.00    +0.002 A 
ATOM     29  C   UNL     1      14.681   3.783   1.606  0.00  0.00    +0.000 A 
ENDBRANCH   1  17
ENDBRANCH   7   1
ENDBRANCH  14  10
BRANCH   8   2
ATOM      2  S   UNL     1       9.955   7.351   4.683  0.00  0.00    +0.086 S 
ATOM      5  O   UNL     1       8.732   6.986   3.921  0.00  0.00    -0.148 OA
ATOM      6  O   UNL     1       9.966   8.699   5.298  0.00  0.00    -0.148 OA
BRANCH   2  19
ATOM     19  C   UNL     1       9.903   6.201   6.069  0.00  0.00    +0.111 A 
ATOM     25  C   UNL     1       9.919   6.685   7.377  0.00  0.00    +0.029 A 
ATOM     26  C   UNL     1       9.851   4.827   5.835  0.00  0.00    +0.029 A 
ATOM     30  C   UNL     1       9.883   5.795   8.451  0.00  0.00    +0.002 A 
ATOM     31  C   UNL     1       9.815   3.937   6.907  0.00  0.00    +0.002 A 
ATOM     32  C   UNL     1       9.831   4.421   8.216  0.00  0.00    +0.000 A 
ENDBRANCH   2  19
ENDBRANCH   8   2
TORSDOF 5
ENDMDL
MODEL 9
REMARK VINA RESULT:      -7.0     26.456     28.618
REMARK  Name = 75536049
REMARK  5 active torsions:
REMARK  status: ('A' for Active; 'I' for Inactive)
REMARK    1  A    between atoms: S_1  and  N_7
REMARK    2  A    between atoms: S_1  and  C_17
REMARK    3  A    between atoms: S_2  and  N_8
REMARK    4  A    between atoms: S_2  and  C_19
REMARK    5  A    between atoms: C_10  and  C_14
REMARK                            x       y       z     vdW  Elec       q    Type
REMARK                         _______ _______ _______ _____ _____    ______ ____
ROOT
ATOM      8  N   UNL     1      -4.982 -11.607  14.120  0.00  0.00    -0.195 N 
ATOM      9  N   UNL     1      -4.682 -11.604  16.322  0.00  0.00    -0.230 NA
ATOM     14  C   UNL     1      -5.515 -11.892  15.347  0.00  0.00    +0.136 A 
ATOM     15  C   UNL     1      -3.722 -11.102  14.318  0.00  0.00    +0.092 A 
ATOM     16  C   UNL     1      -3.558 -11.111  15.699  0.00  0.00    +0.091 A 
ATOM     18  C   UNL     1      -2.741 -10.653  13.432  0.00  0.00    +0.030 A 
ATOM     20  C   UNL     1      -2.351 -10.646  16.249  0.00  0.00    +0.030 A 
ATOM     23  C   UNL     1      -1.546 -10.195  13.996  0.00  0.00    +0.002 A 
ATOM     24  C   UNL     1      -1.352 -10.191  15.380  0.00  0.00    +0.002 A 
ENDROOT
BRANCH  14  10
ATOM      7  N   UNL     1      -8.045 -11.998  17.598  0.00  0.00    -0.176 NA
ATOM     10  C   UNL     1      -6.909 -12.470  15.517  0.00  0.00    +0.074 C 
ATOM     11  C   UNL     1      -6.904 -13.702  16.424  0.00  0.00    +0.029 C 
ATOM     12  C   UNL     1      -7.961 -11.563  16.173  0.00  0.00    +0.120 C 
ATOM     13  C   UNL     1      -7.109 -13.127  17.818  0.00  0.00    +0.110 C 
BRANCH   7   1
ATOM      1  S   UNL     1      -8.194 -10.821  18.809  0.00  0.00    +0.061 S 
ATOM      3  O   UNL     1      -6.960 -10.062  18.903  0.00  0.00    -0.153 OA
ATOM      4  O   UNL     1      -8.780 -11.418  19.994  0.00  0.00    -0.153 OA
BRANCH   1  17
ATOM     17  C   UNL     1      -9.412  -9.765  18.083  0.00  0.00    +0.105 A 
ATOM     21  C   UNL     1      -9.017  -8.622  17.387  0.00  0.00    +0.028 A 
ATOM     22  C   UNL     1     -10.767 -10.072  18.211  0.00  0.00    +0.028 A 
ATOM     27  C   UNL     1      -9.978  -7.787  16.818  0.00  0.00    +0.002 A 
ATOM     28  C   UNL     1     -11.727  -9.236  17.641  0.00  0.00    +0.002 A 
ATOM     29  C   UNL     1     -11.333  -8.093  16.945  0.00  0.00    +0.000 A 
ENDBRANCH   1  17
ENDBRANCH   7   1
ENDBRANCH  14  10
BRANCH   8   2
ATOM      2  S   UNL     1      -5.725 -11.831  12.650  0.00  0.00    +0.086 S 
ATOM      5  O   UNL     1      -7.186 -11.565  12.714  0.00  0.00    -0.148 OA
ATOM      6  O   UNL     1      -5.323 -13.142  12.089  0.00  0.00    -0.148 OA
BRANCH   2  19
ATOM     19  C   UNL     1      -5.161 -10.612  11.450  0.00  0.00    +0.111 A 
ATOM     25  C   UNL     1      -4.390 -11.012  10.359  0.00  0.00    +0.029 A 
ATOM     26  C   UNL     1      -5.493  -9.267  11.613  0.00  0.00    +0.029 A 
ATOM     30  C   UNL     1      -3.950 -10.068   9.431  0.00  0.00    +0.002 A 
ATOM     31  C   UNL     1      -5.053  -8.322  10.687  0.00  0.00    +0.002 A 
ATOM     32  C   UNL     1      -4.282  -8.723   9.595  0.00  0.00    +0.000 A 
ENDBRANCH   2  19
ENDBRANCH   8   2
TORSDOF 5
ENDMDL
MODEL 10
REMARK VINA RESULT:      -7.0      2.788      5.414
REMARK  Name = 75536049
REMARK  5 active torsions:
REMARK  status: ('A' for Active; 'I' for Inactive)
REMARK    1  A    between atoms: S_1  and  N_7
REMARK    2  A    between atoms: S_1  and  C_17
REMARK    3  A    between atoms: S_2  and  N_8
REMARK    4  A    between atoms: S_2  and  C_19
REMARK    5  A    between atoms: C_10  and  C_14
REMARK                            x       y       z     vdW  Elec       q    Type
REMARK                         _______ _______ _______ _____ _____    ______ ____
ROOT
ATOM      8  N   UNL     1      12.968   8.986  19.746  0.00  0.00    -0.195 N 
ATOM      9  N   UNL     1      12.714  11.111  20.345  0.00  0.00    -0.230 NA
ATOM     14  C   UNL     1      13.307  10.290  19.509  0.00  0.00    +0.136 A 
ATOM     15  C   UNL     1      12.098   8.967  20.806  0.00  0.00    +0.092 A 
ATOM     16  C   UNL     1      11.955  10.304  21.162  0.00  0.00    +0.091 A 
ATOM     18  C   UNL     1      11.443   7.924  21.464  0.00  0.00    +0.030 A 
ATOM     20  C   UNL     1      11.114  10.641  22.236  0.00  0.00    +0.030 A 
ATOM     23  C   UNL     1      10.610   8.278  22.530  0.00  0.00    +0.002 A 
ATOM     24  C   UNL     1      10.447   9.612  22.911  0.00  0.00    +0.002 A 
ENDROOT
BRANCH  14  10
ATOM      7  N   UNL     1      15.872  12.423  18.915  0.00  0.00    -0.176 NA
ATOM     10  C   UNL     1      14.261  10.696  18.399  0.00  0.00    +0.074 C 
ATOM     11  C   UNL     1      13.852  12.023  17.756  0.00  0.00    +0.029 C 
ATOM     12  C   UNL     1      15.725  10.943  18.798  0.00  0.00    +0.120 C 
ATOM     13  C   UNL     1      14.576  13.068  18.591  0.00  0.00    +0.110 C 
BRANCH   7   1
ATOM      1  S   UNL     1      16.798  13.058  20.185  0.00  0.00    +0.061 S 
ATOM      3  O   UNL     1      16.788  14.508  20.117  0.00  0.00    -0.153 OA
ATOM      4  O   UNL     1      18.054  12.336  20.275  0.00  0.00    -0.153 OA
BRANCH   1  17
ATOM     17  C   UNL     1      15.810  12.586  21.573  0.00  0.00    +0.105 A 
ATOM     21  C   UNL     1      14.946  13.511  22.160  0.00  0.00    +0.028 A 
ATOM     22  C   UNL     1      15.896  11.290  22.082  0.00  0.00    +0.028 A 
ATOM     27  C   UNL     1      14.169  13.140  23.257  0.00  0.00    +0.002 A 
ATOM     28  C   UNL     1      15.119  10.919  23.180  0.00  0.00    +0.002 A 
ATOM     29  C   UNL     1      14.255  11.845  23.767  0.00  0.00    +0.000 A 
ENDBRANCH   1  17
ENDBRANCH   7   1
ENDBRANCH  14  10
BRANCH   8   2
ATOM      2  S   UNL     1      13.510   7.661  18.902  0.00  0.00    +0.086 S 
ATOM      5  O   UNL     1      13.784   7.978  17.476  0.00  0.00    -0.148 OA
ATOM      6  O   UNL     1      12.610   6.512  19.157  0.00  0.00    -0.148 OA
BRANCH   2  19
ATOM     19  C   UNL     1      15.127   7.134  19.499  0.00  0.00    +0.111 A 
ATOM     25  C   UNL     1      15.983   6.425  18.658  0.00  0.00    +0.029 A 
ATOM     26  C   UNL     1      15.520   7.433  20.804  0.00  0.00    +0.029 A 
ATOM     30  C   UNL     1      17.233   6.014  19.120  0.00  0.00    +0.002 A 
ATOM     31  C   UNL     1      16.769   7.022  21.267  0.00  0.00    +0.002 A 
ATOM     32  C   UNL     1      17.626   6.312  20.425  0.00  0.00    +0.000 A 
ENDBRANCH   2  19
ENDBRANCH   8   2
TORSDOF 5
ENDMDL
