MODEL 1
REMARK VINA RESULT:      -6.4      0.000      0.000
REMARK  Name = 38031261
REMARK  14 active torsions:
REMARK  status: ('A' for Active; 'I' for Inactive)
REMARK    1  A    between atoms: O_3  and  C_23
REMARK    2  A    between atoms: O_3  and  C_27
REMARK    3  A    between atoms: O_4  and  C_30
REMARK    4  A    between atoms: O_4  and  C_31
REMARK    5  A    between atoms: N_5  and  C_15
REMARK    6  A    between atoms: C_8  and  C_12
REMARK    7  A    between atoms: C_9  and  C_15
REMARK    8  A    between atoms: C_11  and  C_16
REMARK    9  A    between atoms: C_12  and  C_17
REMARK   10  A    between atoms: C_12  and  C_18
REMARK   11  A    between atoms: C_13  and  C_19
REMARK   12  A    between atoms: C_16  and  C_20
REMARK   13  A    between atoms: C_21  and  C_23
REMARK   14  A    between atoms: C_22  and  C_24
REMARK                            x       y       z     vdW  Elec       q    Type
REMARK                         _______ _______ _______ _____ _____    ______ ____
ROOT
ATOM      8  C   UNL     1     -10.392  -9.732  18.526  0.00  0.00    +0.000 C 
ATOM      9  C   UNL     1     -11.271 -10.732  19.315  0.00  0.00    +0.032 C 
ATOM     10  C   UNL     1      -9.365 -10.483  17.664  0.00  0.00    +0.012 C 
ATOM     11  C   UNL     1      -8.443 -11.382  18.510  0.00  0.00    +0.024 C 
ATOM     13  C   UNL     1      -9.226 -12.211  19.508  0.00  0.00    -0.073 C 
ATOM     14  C   UNL     1     -10.493 -11.913  19.846  0.00  0.00    -0.022 C 
ATOM     19  C   UNL     1      -8.533 -13.417  20.078  0.00  0.00    +0.039 C 
ENDROOT
BRANCH   8  12
ATOM     12  C   UNL     1     -11.236  -8.810  17.639  0.00  0.00    -0.013 C 
ATOM     17  C   UNL     1     -10.382  -7.667  17.097  0.00  0.00    +0.007 C 
ATOM     18  C   UNL     1     -11.868  -9.600  16.498  0.00  0.00    +0.007 C 
ENDBRANCH   8  12
BRANCH   9  15
ATOM     15  C   UNL     1     -11.997 -10.037  20.473  0.00  0.00    +0.112 C 
BRANCH  15   5
ATOM      2  O   UNL     1     -14.839 -10.419  20.850  0.00  0.00    -0.273 OA
ATOM      5  N   UNL     1     -12.634 -10.996  21.320  0.00  0.00    -0.313 N 
ATOM     21  C   UNL     1     -14.018 -11.113  21.443  0.00  0.00    +0.239 C 
ATOM     32  H   UNL     1     -12.047 -11.662  21.815  0.00  0.00    +0.149 HD
BRANCH  21  23
ATOM     23  C   UNL     1     -14.416 -12.211  22.407  0.00  0.00    +0.255 C 
BRANCH  23   3
ATOM      3  O   UNL     1     -13.558 -12.226  23.527  0.00  0.00    -0.374 OA
ATOM     27  C   UNL     1     -13.135 -13.546  23.854  0.00  0.00    +0.194 C 
ENDBRANCH  23   3
ENDBRANCH  21  23
ENDBRANCH  15   5
ENDBRANCH   9  15
BRANCH  11  16
ATOM     16  C   UNL     1      -7.359 -10.557  19.213  0.00  0.00    +0.105 C 
BRANCH  16  20
ATOM      1  O   UNL     1      -5.618 -10.575  17.501  0.00  0.00    -0.420 OA
ATOM      6  N   UNL     1      -5.057 -11.632  19.392  0.00  0.00    -0.112 NA
ATOM      7  N   UNL     1      -3.987 -11.719  18.519  0.00  0.00    -0.107 NA
ATOM     20  C   UNL     1      -5.985 -10.955  18.756  0.00  0.00    +0.218 A 
ATOM     22  C   UNL     1      -4.359 -11.089  17.430  0.00  0.00    +0.248 A 
BRANCH  22  24
ATOM     24  C   UNL     1      -3.659 -10.863  16.199  0.00  0.00    +0.039 A 
ATOM     25  C   UNL     1      -2.285 -10.621  16.213  0.00  0.00    +0.017 A 
ATOM     26  C   UNL     1      -4.351 -10.884  14.989  0.00  0.00    +0.017 A 
ATOM     28  C   UNL     1      -1.604 -10.401  15.017  0.00  0.00    +0.046 A 
ATOM     29  C   UNL     1      -3.670 -10.664  13.792  0.00  0.00    +0.046 A 
ATOM     30  C   UNL     1      -2.296 -10.422  13.805  0.00  0.00    +0.120 A 
BRANCH  30   4
ATOM      4  O   UNL     1      -1.630 -10.210  12.638  0.00  0.00    -0.495 OA
ATOM     31  C   UNL     1      -2.381 -10.340  11.431  0.00  0.00    +0.277 C 
ENDBRANCH  30   4
ENDBRANCH  22  24
ENDBRANCH  16  20
ENDBRANCH  11  16
TORSDOF 9
ENDMDL
MODEL 2
REMARK VINA RESULT:      -6.3      3.024      5.330
REMARK  Name = 38031261
REMARK  14 active torsions:
REMARK  status: ('A' for Active; 'I' for Inactive)
REMARK    1  A    between atoms: O_3  and  C_23
REMARK    2  A    between atoms: O_3  and  C_27
REMARK    3  A    between atoms: O_4  and  C_30
REMARK    4  A    between atoms: O_4  and  C_31
REMARK    5  A    between atoms: N_5  and  C_15
REMARK    6  A    between atoms: C_8  and  C_12
REMARK    7  A    between atoms: C_9  and  C_15
REMARK    8  A    between atoms: C_11  and  C_16
REMARK    9  A    between atoms: C_12  and  C_17
REMARK   10  A    between atoms: C_12  and  C_18
REMARK   11  A    between atoms: C_13  and  C_19
REMARK   12  A    between atoms: C_16  and  C_20
REMARK   13  A    between atoms: C_21  and  C_23
REMARK   14  A    between atoms: C_22  and  C_24
REMARK                            x       y       z     vdW  Elec       q    Type
REMARK                         _______ _______ _______ _____ _____    ______ ____
ROOT
ATOM      8  C   UNL     1      -6.449 -10.684  15.915  0.00  0.00    +0.000 C 
ATOM      9  C   UNL     1      -6.996 -10.649  17.363  0.00  0.00    +0.032 C 
ATOM     10  C   UNL     1      -5.537 -11.904  15.716  0.00  0.00    +0.012 C 
ATOM     11  C   UNL     1      -4.343 -11.904  16.689  0.00  0.00    +0.024 C 
ATOM     13  C   UNL     1      -4.776 -11.607  18.111  0.00  0.00    -0.073 C 
ATOM     14  C   UNL     1      -5.971 -11.058  18.393  0.00  0.00    -0.022 C 
ATOM     19  C   UNL     1      -3.821 -11.996  19.205  0.00  0.00    +0.039 C 
ENDROOT
BRANCH   8  12
ATOM     12  C   UNL     1      -7.578 -10.708  14.880  0.00  0.00    -0.013 C 
ATOM     17  C   UNL     1      -7.005 -10.821  13.470  0.00  0.00    +0.007 C 
ATOM     18  C   UNL     1      -8.539 -11.856  15.166  0.00  0.00    +0.007 C 
ENDBRANCH   8  12
BRANCH   9  15
ATOM     15  C   UNL     1      -7.547  -9.262  17.713  0.00  0.00    +0.112 C 
BRANCH  15   5
ATOM      2  O   UNL     1      -9.587  -7.742  16.337  0.00  0.00    -0.273 OA
ATOM      5  N   UNL     1      -8.958  -9.317  17.932  0.00  0.00    -0.313 N 
ATOM     21  C   UNL     1      -9.876  -8.546  17.219  0.00  0.00    +0.239 C 
ATOM     32  H   UNL     1      -9.313  -9.993  18.602  0.00  0.00    +0.149 HD
BRANCH  21  23
ATOM     23  C   UNL     1     -11.303  -8.806  17.655  0.00  0.00    +0.255 C 
BRANCH  23   3
ATOM      3  O   UNL     1     -11.388 -10.011  18.385  0.00  0.00    -0.374 OA
ATOM     27  C   UNL     1     -12.297  -9.906  19.477  0.00  0.00    +0.194 C 
ENDBRANCH  23   3
ENDBRANCH  21  23
ENDBRANCH  15   5
ENDBRANCH   9  15
BRANCH  11  16
ATOM     16  C   UNL     1      -3.256 -10.924  16.231  0.00  0.00    +0.105 C 
BRANCH  16  20
ATOM      1  O   UNL     1      -3.539 -10.698  13.817  0.00  0.00    -0.420 OA
ATOM      6  N   UNL     1      -1.777 -11.938  14.422  0.00  0.00    -0.112 NA
ATOM      7  N   UNL     1      -1.816 -11.894  13.040  0.00  0.00    -0.107 NA
ATOM     20  C   UNL     1      -2.801 -11.225  14.832  0.00  0.00    +0.218 A 
ATOM     22  C   UNL     1      -2.859 -11.160  12.732  0.00  0.00    +0.248 A 
BRANCH  22  24
ATOM     24  C   UNL     1      -3.384 -10.778  11.454  0.00  0.00    +0.039 A 
ATOM     25  C   UNL     1      -3.042  -9.544  10.900  0.00  0.00    +0.017 A 
ATOM     26  C   UNL     1      -4.237 -11.640  10.764  0.00  0.00    +0.017 A 
ATOM     28  C   UNL     1      -3.553  -9.172   9.658  0.00  0.00    +0.046 A 
ATOM     29  C   UNL     1      -4.748 -11.268   9.520  0.00  0.00    +0.046 A 
ATOM     30  C   UNL     1      -4.406 -10.033   8.967  0.00  0.00    +0.120 A 
BRANCH  30   4
ATOM      4  O   UNL     1      -4.902  -9.672   7.753  0.00  0.00    -0.495 OA
ATOM     31  C   UNL     1      -5.508 -10.698   6.967  0.00  0.00    +0.277 C 
ENDBRANCH  30   4
ENDBRANCH  22  24
ENDBRANCH  16  20
ENDBRANCH  11  16
TORSDOF 9
ENDMDL
MODEL 3
REMARK VINA RESULT:      -6.1      5.150     11.072
REMARK  Name = 38031261
REMARK  14 active torsions:
REMARK  status: ('A' for Active; 'I' for Inactive)
REMARK    1  A    between atoms: O_3  and  C_23
REMARK    2  A    between atoms: O_3  and  C_27
REMARK    3  A    between atoms: O_4  and  C_30
REMARK    4  A    between atoms: O_4  and  C_31
REMARK    5  A    between atoms: N_5  and  C_15
REMARK    6  A    between atoms: C_8  and  C_12
REMARK    7  A    between atoms: C_9  and  C_15
REMARK    8  A    between atoms: C_11  and  C_16
REMARK    9  A    between atoms: C_12  and  C_17
REMARK   10  A    between atoms: C_12  and  C_18
REMARK   11  A    between atoms: C_13  and  C_19
REMARK   12  A    between atoms: C_16  and  C_20
REMARK   13  A    between atoms: C_21  and  C_23
REMARK   14  A    between atoms: C_22  and  C_24
REMARK                            x       y       z     vdW  Elec       q    Type
REMARK                         _______ _______ _______ _____ _____    ______ ____
ROOT
ATOM      8  C   UNL     1      -6.008 -10.095  10.097  0.00  0.00    +0.000 C 
ATOM      9  C   UNL     1      -5.215  -9.385   8.973  0.00  0.00    +0.032 C 
ATOM     10  C   UNL     1      -5.573  -9.570  11.474  0.00  0.00    +0.012 C 
ATOM     11  C   UNL     1      -4.069  -9.782  11.729  0.00  0.00    +0.024 C 
ATOM     13  C   UNL     1      -3.230  -9.349  10.543  0.00  0.00    -0.073 C 
ATOM     14  C   UNL     1      -3.763  -9.164   9.322  0.00  0.00    -0.022 C 
ATOM     19  C   UNL     1      -1.772  -9.091  10.803  0.00  0.00    +0.039 C 
ENDROOT
BRANCH   8  12
ATOM     12  C   UNL     1      -7.520  -9.913   9.929  0.00  0.00    -0.013 C 
ATOM     17  C   UNL     1      -8.257 -10.401  11.173  0.00  0.00    +0.007 C 
ATOM     18  C   UNL     1      -7.853  -8.453   9.642  0.00  0.00    +0.007 C 
ENDBRANCH   8  12
BRANCH   9  15
ATOM     15  C   UNL     1      -5.311 -10.160   7.654  0.00  0.00    +0.112 C 
BRANCH  15   5
ATOM      2  O   UNL     1      -7.949 -10.156   6.469  0.00  0.00    -0.273 OA
ATOM      5  N   UNL     1      -5.783  -9.315   6.602  0.00  0.00    -0.313 N 
ATOM     21  C   UNL     1      -7.078  -9.379   6.088  0.00  0.00    +0.239 C 
ATOM     32  H   UNL     1      -5.160  -8.593   6.252  0.00  0.00    +0.149 HD
BRANCH  21  23
ATOM     23  C   UNL     1      -7.306  -8.369   4.984  0.00  0.00    +0.255 C 
BRANCH  23   3
ATOM      3  O   UNL     1      -7.491  -9.019   3.745  0.00  0.00    -0.374 OA
ATOM     27  C   UNL     1      -8.255  -8.228   2.839  0.00  0.00    +0.194 C 
ENDBRANCH  23   3
ENDBRANCH  21  23
ENDBRANCH  15   5
ENDBRANCH   9  15
BRANCH  11  16
ATOM     16  C   UNL     1      -3.772 -11.238  12.108  0.00  0.00    +0.105 C 
BRANCH  16  20
ATOM      1  O   UNL     1      -4.506 -11.450  14.427  0.00  0.00    -0.420 OA
ATOM      6  N   UNL     1      -2.284 -11.418  14.167  0.00  0.00    -0.112 NA
ATOM      7  N   UNL     1      -2.555 -11.542  15.518  0.00  0.00    -0.107 NA
ATOM     20  C   UNL     1      -3.451 -11.369  13.569  0.00  0.00    +0.218 A 
ATOM     22  C   UNL     1      -3.863 -11.556  15.622  0.00  0.00    +0.248 A 
BRANCH  22  24
ATOM     24  C   UNL     1      -4.704 -11.664  16.779  0.00  0.00    +0.039 A 
ATOM     25  C   UNL     1      -5.461 -12.817  16.985  0.00  0.00    +0.017 A 
ATOM     26  C   UNL     1      -4.765 -10.615  17.697  0.00  0.00    +0.017 A 
ATOM     28  C   UNL     1      -6.278 -12.922  18.109  0.00  0.00    +0.046 A 
ATOM     29  C   UNL     1      -5.583 -10.720  18.821  0.00  0.00    +0.046 A 
ATOM     30  C   UNL     1      -6.341 -11.873  19.028  0.00  0.00    +0.120 A 
BRANCH  30   4
ATOM      4  O   UNL     1      -7.136 -11.977  20.127  0.00  0.00    -0.495 OA
ATOM     31  C   UNL     1      -8.198 -12.928  20.071  0.00  0.00    +0.277 C 
ENDBRANCH  30   4
ENDBRANCH  22  24
ENDBRANCH  16  20
ENDBRANCH  11  16
TORSDOF 9
ENDMDL
MODEL 4
REMARK VINA RESULT:      -6.0     27.538     32.185
REMARK  Name = 38031261
REMARK  14 active torsions:
REMARK  status: ('A' for Active; 'I' for Inactive)
REMARK    1  A    between atoms: O_3  and  C_23
REMARK    2  A    between atoms: O_3  and  C_27
REMARK    3  A    between atoms: O_4  and  C_30
REMARK    4  A    between atoms: O_4  and  C_31
REMARK    5  A    between atoms: N_5  and  C_15
REMARK    6  A    between atoms: C_8  and  C_12
REMARK    7  A    between atoms: C_9  and  C_15
REMARK    8  A    between atoms: C_11  and  C_16
REMARK    9  A    between atoms: C_12  and  C_17
REMARK   10  A    between atoms: C_12  and  C_18
REMARK   11  A    between atoms: C_13  and  C_19
REMARK   12  A    between atoms: C_16  and  C_20
REMARK   13  A    between atoms: C_21  and  C_23
REMARK   14  A    between atoms: C_22  and  C_24
REMARK                            x       y       z     vdW  Elec       q    Type
REMARK                         _______ _______ _______ _____ _____    ______ ____
ROOT
ATOM      8  C   UNL     1      10.599   6.574   5.916  0.00  0.00    +0.000 C 
ATOM      9  C   UNL     1      10.501   6.304   4.395  0.00  0.00    +0.032 C 
ATOM     10  C   UNL     1      11.076   8.012   6.176  0.00  0.00    +0.012 C 
ATOM     11  C   UNL     1      12.451   8.293   5.540  0.00  0.00    +0.024 C 
ATOM     13  C   UNL     1      12.518   7.806   4.107  0.00  0.00    -0.073 C 
ATOM     14  C   UNL     1      11.631   6.926   3.609  0.00  0.00    -0.022 C 
ATOM     19  C   UNL     1      13.605   8.385   3.245  0.00  0.00    +0.039 C 
ENDROOT
BRANCH   8  12
ATOM     12  C   UNL     1       9.261   6.337   6.624  0.00  0.00    -0.013 C 
ATOM     17  C   UNL     1       9.483   6.101   8.115  0.00  0.00    +0.007 C 
ATOM     18  C   UNL     1       8.322   7.517   6.398  0.00  0.00    +0.007 C 
ENDBRANCH   8  12
BRANCH   9  15
ATOM     15  C   UNL     1      10.444   4.800   4.103  0.00  0.00    +0.112 C 
BRANCH  15   5
ATOM      2  O   UNL     1      10.076   3.863   1.392  0.00  0.00    -0.273 OA
ATOM      5  N   UNL     1      11.463   4.425   3.174  0.00  0.00    -0.313 N 
ATOM     21  C   UNL     1      11.197   3.983   1.878  0.00  0.00    +0.239 C 
ATOM     32  H   UNL     1      12.433   4.541   3.454  0.00  0.00    +0.149 HD
BRANCH  21  23
ATOM     23  C   UNL     1      12.461   3.656   1.113  0.00  0.00    +0.255 C 
BRANCH  23   3
ATOM      3  O   UNL     1      13.567   4.340   1.662  0.00  0.00    -0.374 OA
ATOM     27  C   UNL     1      14.751   3.549   1.629  0.00  0.00    +0.194 C 
ENDBRANCH  23   3
ENDBRANCH  21  23
ENDBRANCH  15   5
ENDBRANCH   9  15
BRANCH  11  16
ATOM     16  C   UNL     1      13.582   7.688   6.379  0.00  0.00    +0.105 C 
BRANCH  16  20
ATOM      1  O   UNL     1      15.989   7.841   5.999  0.00  0.00    -0.420 OA
ATOM      6  N   UNL     1      15.002   9.802   6.429  0.00  0.00    -0.112 NA
ATOM      7  N   UNL     1      16.352  10.036   6.235  0.00  0.00    -0.107 NA
ATOM     20  C   UNL     1      14.836   8.508   6.281  0.00  0.00    +0.218 A 
ATOM     22  C   UNL     1      16.887   8.864   5.988  0.00  0.00    +0.248 A 
BRANCH  22  24
ATOM     24  C   UNL     1      18.247   8.500   5.712  0.00  0.00    +0.039 A 
ATOM     25  C   UNL     1      19.207   8.577   6.721  0.00  0.00    +0.017 A 
ATOM     26  C   UNL     1      18.609   8.071   4.436  0.00  0.00    +0.017 A 
ATOM     28  C   UNL     1      20.529   8.224   6.454  0.00  0.00    +0.046 A 
ATOM     29  C   UNL     1      19.932   7.718   4.168  0.00  0.00    +0.046 A 
ATOM     30  C   UNL     1      20.893   7.795   5.177  0.00  0.00    +0.120 A 
BRANCH  30   4
ATOM      4  O   UNL     1      22.182   7.447   4.917  0.00  0.00    -0.495 OA
ATOM     31  C   UNL     1      23.176   8.453   5.108  0.00  0.00    +0.277 C 
ENDBRANCH  30   4
ENDBRANCH  22  24
ENDBRANCH  16  20
ENDBRANCH  11  16
TORSDOF 9
ENDMDL
MODEL 5
REMARK VINA RESULT:      -6.0      5.327     10.332
REMARK  Name = 38031261
REMARK  14 active torsions:
REMARK  status: ('A' for Active; 'I' for Inactive)
REMARK    1  A    between atoms: O_3  and  C_23
REMARK    2  A    between atoms: O_3  and  C_27
REMARK    3  A    between atoms: O_4  and  C_30
REMARK    4  A    between atoms: O_4  and  C_31
REMARK    5  A    between atoms: N_5  and  C_15
REMARK    6  A    between atoms: C_8  and  C_12
REMARK    7  A    between atoms: C_9  and  C_15
REMARK    8  A    between atoms: C_11  and  C_16
REMARK    9  A    between atoms: C_12  and  C_17
REMARK   10  A    between atoms: C_12  and  C_18
REMARK   11  A    between atoms: C_13  and  C_19
REMARK   12  A    between atoms: C_16  and  C_20
REMARK   13  A    between atoms: C_21  and  C_23
REMARK   14  A    between atoms: C_22  and  C_24
REMARK                            x       y       z     vdW  Elec       q    Type
REMARK                         _______ _______ _______ _____ _____    ______ ____
ROOT
ATOM      8  C   UNL     1      -2.889 -12.496  13.317  0.00  0.00    +0.000 C 
ATOM      9  C   UNL     1      -1.843 -11.378  13.550  0.00  0.00    +0.032 C 
ATOM     10  C   UNL     1      -3.015 -12.809  11.818  0.00  0.00    +0.012 C 
ATOM     11  C   UNL     1      -3.431 -11.573  10.999  0.00  0.00    +0.024 C 
ATOM     13  C   UNL     1      -2.615 -10.351  11.369  0.00  0.00    -0.073 C 
ATOM     14  C   UNL     1      -1.901 -10.287  12.507  0.00  0.00    -0.022 C 
ATOM     19  C   UNL     1      -2.603  -9.219  10.380  0.00  0.00    +0.039 C 
ENDROOT
BRANCH   8  12
ATOM     12  C   UNL     1      -2.536 -13.775  14.084  0.00  0.00    -0.013 C 
ATOM     17  C   UNL     1      -3.773 -14.336  14.779  0.00  0.00    +0.007 C 
ATOM     18  C   UNL     1      -1.928 -14.810  13.144  0.00  0.00    +0.007 C 
ENDBRANCH   8  12
BRANCH   9  15
ATOM     15  C   UNL     1      -1.996 -10.760  14.945  0.00  0.00    +0.112 C 
BRANCH  15   5
ATOM      2  O   UNL     1      -3.778 -11.363  17.141  0.00  0.00    -0.273 OA
ATOM      5  N   UNL     1      -3.323 -10.267  15.138  0.00  0.00    -0.313 N 
ATOM     21  C   UNL     1      -4.118 -10.610  16.232  0.00  0.00    +0.239 C 
ATOM     32  H   UNL     1      -3.684  -9.589  14.473  0.00  0.00    +0.149 HD
BRANCH  21  23
ATOM     23  C   UNL     1      -5.476  -9.943  16.184  0.00  0.00    +0.255 C 
BRANCH  23   3
ATOM      3  O   UNL     1      -6.191 -10.183  17.377  0.00  0.00    -0.374 OA
ATOM     27  C   UNL     1      -7.447  -9.511  17.387  0.00  0.00    +0.194 C 
ENDBRANCH  23   3
ENDBRANCH  21  23
ENDBRANCH  15   5
ENDBRANCH   9  15
BRANCH  11  16
ATOM     16  C   UNL     1      -4.932 -11.293  11.141  0.00  0.00    +0.105 C 
BRANCH  16  20
ATOM      1  O   UNL     1      -4.885 -11.589   8.718  0.00  0.00    -0.420 OA
ATOM      6  N   UNL     1      -6.787 -10.704   9.498  0.00  0.00    -0.112 NA
ATOM      7  N   UNL     1      -6.898 -10.815   8.123  0.00  0.00    -0.107 NA
ATOM     20  C   UNL     1      -5.596 -11.169   9.800  0.00  0.00    +0.218 A 
ATOM     22  C   UNL     1      -5.766 -11.335   7.712  0.00  0.00    +0.248 A 
BRANCH  22  24
ATOM     24  C   UNL     1      -5.322 -11.672   6.391  0.00  0.00    +0.039 A 
ATOM     25  C   UNL     1      -4.025 -12.146   6.190  0.00  0.00    +0.017 A 
ATOM     26  C   UNL     1      -6.186 -11.524   5.305  0.00  0.00    +0.017 A 
ATOM     28  C   UNL     1      -3.593 -12.473   4.906  0.00  0.00    +0.046 A 
ATOM     29  C   UNL     1      -5.753 -11.851   4.020  0.00  0.00    +0.046 A 
ATOM     30  C   UNL     1      -4.457 -12.325   3.820  0.00  0.00    +0.120 A 
BRANCH  30   4
ATOM      4  O   UNL     1      -4.036 -12.647   2.567  0.00  0.00    -0.495 OA
ATOM     31  C   UNL     1      -2.666 -13.017   2.418  0.00  0.00    +0.277 C 
ENDBRANCH  30   4
ENDBRANCH  22  24
ENDBRANCH  16  20
ENDBRANCH  11  16
TORSDOF 9
ENDMDL
MODEL 6
REMARK VINA RESULT:      -6.0     25.505     30.285
REMARK  Name = 38031261
REMARK  14 active torsions:
REMARK  status: ('A' for Active; 'I' for Inactive)
REMARK    1  A    between atoms: O_3  and  C_23
REMARK    2  A    between atoms: O_3  and  C_27
REMARK    3  A    between atoms: O_4  and  C_30
REMARK    4  A    between atoms: O_4  and  C_31
REMARK    5  A    between atoms: N_5  and  C_15
REMARK    6  A    between atoms: C_8  and  C_12
REMARK    7  A    between atoms: C_9  and  C_15
REMARK    8  A    between atoms: C_11  and  C_16
REMARK    9  A    between atoms: C_12  and  C_17
REMARK   10  A    between atoms: C_12  and  C_18
REMARK   11  A    between atoms: C_13  and  C_19
REMARK   12  A    between atoms: C_16  and  C_20
REMARK   13  A    between atoms: C_21  and  C_23
REMARK   14  A    between atoms: C_22  and  C_24
REMARK                            x       y       z     vdW  Elec       q    Type
REMARK                         _______ _______ _______ _____ _____    ______ ____
ROOT
ATOM      8  C   UNL     1      12.554   7.536   5.281  0.00  0.00    +0.000 C 
ATOM      9  C   UNL     1      11.331   8.432   5.593  0.00  0.00    +0.032 C 
ATOM     10  C   UNL     1      12.760   7.418   3.763  0.00  0.00    +0.012 C 
ATOM     11  C   UNL     1      11.527   6.827   3.053  0.00  0.00    +0.024 C 
ATOM     13  C   UNL     1      10.242   7.485   3.513  0.00  0.00    -0.073 C 
ATOM     14  C   UNL     1      10.177   8.210   4.645  0.00  0.00    -0.022 C 
ATOM     19  C   UNL     1       9.043   7.328   2.620  0.00  0.00    +0.039 C 
ENDROOT
BRANCH   8  12
ATOM     12  C   UNL     1      13.832   8.069   5.936  0.00  0.00    -0.013 C 
ATOM     17  C   UNL     1      15.054   7.325   5.404  0.00  0.00    +0.007 C 
ATOM     18  C   UNL     1      13.968   9.569   5.698  0.00  0.00    +0.007 C 
ENDBRANCH   8  12
BRANCH   9  15
ATOM     15  C   UNL     1      10.852   8.232   7.035  0.00  0.00    +0.112 C 
BRANCH  15   5
ATOM      2  O   UNL     1      11.857   5.828   8.292  0.00  0.00    -0.273 OA
ATOM      5  N   UNL     1      10.172   6.982   7.175  0.00  0.00    -0.313 N 
ATOM     21  C   UNL     1      10.733   5.868   7.799  0.00  0.00    +0.239 C 
ATOM     32  H   UNL     1       9.211   6.921   6.852  0.00  0.00    +0.149 HD
BRANCH  21  23
ATOM     23  C   UNL     1       9.793   4.682   7.806  0.00  0.00    +0.255 C 
BRANCH  23   3
ATOM      3  O   UNL     1       9.833   4.022   9.053  0.00  0.00    -0.374 OA
ATOM     27  C   UNL     1       9.042   4.690  10.032  0.00  0.00    +0.194 C 
ENDBRANCH  23   3
ENDBRANCH  21  23
ENDBRANCH  15   5
ENDBRANCH   9  15
BRANCH  11  16
ATOM     16  C   UNL     1      11.460   5.306   3.235  0.00  0.00    +0.105 C 
BRANCH  16  20
ATOM      1  O   UNL     1      11.453   4.591   0.901  0.00  0.00    -0.420 OA
ATOM      6  N   UNL     1      13.254   3.936   2.055  0.00  0.00    -0.112 NA
ATOM      7  N   UNL     1      13.381   3.466   0.760  0.00  0.00    -0.107 NA
ATOM     20  C   UNL     1      12.114   4.587   2.090  0.00  0.00    +0.218 A 
ATOM     22  C   UNL     1      12.308   3.872   0.123  0.00  0.00    +0.248 A 
BRANCH  22  24
ATOM     24  C   UNL     1      11.904   3.678  -1.239  0.00  0.00    +0.039 A 
ATOM     25  C   UNL     1      10.778   4.337  -1.733  0.00  0.00    +0.017 A 
ATOM     26  C   UNL     1      12.638   2.831  -2.070  0.00  0.00    +0.017 A 
ATOM     28  C   UNL     1      10.386   4.149  -3.057  0.00  0.00    +0.046 A 
ATOM     29  C   UNL     1      12.245   2.643  -3.395  0.00  0.00    +0.046 A 
ATOM     30  C   UNL     1      11.118   3.301  -3.889  0.00  0.00    +0.120 A 
BRANCH  30   4
ATOM      4  O   UNL     1      10.737   3.120  -5.183  0.00  0.00    -0.495 OA
ATOM     31  C   UNL     1       9.418   3.535  -5.534  0.00  0.00    +0.277 C 
ENDBRANCH  30   4
ENDBRANCH  22  24
ENDBRANCH  16  20
ENDBRANCH  11  16
TORSDOF 9
ENDMDL
MODEL 7
REMARK VINA RESULT:      -5.9      3.265      5.404
REMARK  Name = 38031261
REMARK  14 active torsions:
REMARK  status: ('A' for Active; 'I' for Inactive)
REMARK    1  A    between atoms: O_3  and  C_23
REMARK    2  A    between atoms: O_3  and  C_27
REMARK    3  A    between atoms: O_4  and  C_30
REMARK    4  A    between atoms: O_4  and  C_31
REMARK    5  A    between atoms: N_5  and  C_15
REMARK    6  A    between atoms: C_8  and  C_12
REMARK    7  A    between atoms: C_9  and  C_15
REMARK    8  A    between atoms: C_11  and  C_16
REMARK    9  A    between atoms: C_12  and  C_17
REMARK   10  A    between atoms: C_12  and  C_18
REMARK   11  A    between atoms: C_13  and  C_19
REMARK   12  A    between atoms: C_16  and  C_20
REMARK   13  A    between atoms: C_21  and  C_23
REMARK   14  A    between atoms: C_22  and  C_24
REMARK                            x       y       z     vdW  Elec       q    Type
REMARK                         _______ _______ _______ _____ _____    ______ ____
ROOT
ATOM      8  C   UNL     1      -7.254 -11.727  16.952  0.00  0.00    +0.000 C 
ATOM      9  C   UNL     1      -7.453 -12.051  18.453  0.00  0.00    +0.032 C 
ATOM     10  C   UNL     1      -6.007 -12.443  16.410  0.00  0.00    +0.012 C 
ATOM     11  C   UNL     1      -4.729 -12.042  17.170  0.00  0.00    +0.024 C 
ATOM     13  C   UNL     1      -4.931 -12.079  18.671  0.00  0.00    -0.073 C 
ATOM     14  C   UNL     1      -6.156 -12.096  19.226  0.00  0.00    -0.022 C 
ATOM     19  C   UNL     1      -3.692 -12.141  19.521  0.00  0.00    +0.039 C 
ENDROOT
BRANCH   8  12
ATOM     12  C   UNL     1      -8.478 -12.117  16.119  0.00  0.00    -0.013 C 
ATOM     17  C   UNL     1      -8.168 -11.995  14.629  0.00  0.00    +0.007 C 
ATOM     18  C   UNL     1      -8.928 -13.533  16.462  0.00  0.00    +0.007 C 
ENDBRANCH   8  12
BRANCH   9  15
ATOM     15  C   UNL     1      -8.407 -11.049  19.114  0.00  0.00    +0.112 C 
BRANCH  15   5
ATOM      2  O   UNL     1     -10.871  -9.646  18.547  0.00  0.00    -0.273 OA
ATOM      5  N   UNL     1      -8.570  -9.890  18.295  0.00  0.00    -0.313 N 
ATOM     21  C   UNL     1      -9.801  -9.273  18.074  0.00  0.00    +0.239 C 
ATOM     32  H   UNL     1      -7.738  -9.462  17.899  0.00  0.00    +0.149 HD
BRANCH  21  23
ATOM     23  C   UNL     1      -9.683  -8.065  17.169  0.00  0.00    +0.255 C 
BRANCH  23   3
ATOM      3  O   UNL     1      -9.227  -8.446  15.888  0.00  0.00    -0.374 OA
ATOM     27  C   UNL     1     -10.286  -8.939  15.073  0.00  0.00    +0.194 C 
ENDBRANCH  23   3
ENDBRANCH  21  23
ENDBRANCH  15   5
ENDBRANCH   9  15
BRANCH  11  16
ATOM     16  C   UNL     1      -4.225 -10.666  16.719  0.00  0.00    +0.105 C 
BRANCH  16  20
ATOM      1  O   UNL     1      -4.417 -10.329  14.308  0.00  0.00    -0.420 OA
ATOM      6  N   UNL     1      -2.428 -11.113  14.969  0.00  0.00    -0.112 NA
ATOM      7  N   UNL     1      -2.397 -10.970  13.594  0.00  0.00    -0.107 NA
ATOM     20  C   UNL     1      -3.626 -10.726  15.343  0.00  0.00    +0.218 A 
ATOM     22  C   UNL     1      -3.577 -10.510  13.253  0.00  0.00    +0.248 A 
BRANCH  22  24
ATOM     24  C   UNL     1      -4.110 -10.177  11.964  0.00  0.00    +0.039 A 
ATOM     25  C   UNL     1      -5.380  -9.610  11.859  0.00  0.00    +0.017 A 
ATOM     26  C   UNL     1      -3.357 -10.419  10.814  0.00  0.00    +0.017 A 
ATOM     28  C   UNL     1      -5.898  -9.286  10.607  0.00  0.00    +0.046 A 
ATOM     29  C   UNL     1      -3.875 -10.094   9.560  0.00  0.00    +0.046 A 
ATOM     30  C   UNL     1      -5.146  -9.528   9.456  0.00  0.00    +0.120 A 
BRANCH  30   4
ATOM      4  O   UNL     1      -5.650  -9.208   8.234  0.00  0.00    -0.495 OA
ATOM     31  C   UNL     1      -6.769  -9.966   7.774  0.00  0.00    +0.277 C 
ENDBRANCH  30   4
ENDBRANCH  22  24
ENDBRANCH  16  20
ENDBRANCH  11  16
TORSDOF 9
ENDMDL
MODEL 8
REMARK VINA RESULT:      -5.9     19.824     23.350
REMARK  Name = 38031261
REMARK  14 active torsions:
REMARK  status: ('A' for Active; 'I' for Inactive)
REMARK    1  A    between atoms: O_3  and  C_23
REMARK    2  A    between atoms: O_3  and  C_27
REMARK    3  A    between atoms: O_4  and  C_30
REMARK    4  A    between atoms: O_4  and  C_31
REMARK    5  A    between atoms: N_5  and  C_15
REMARK    6  A    between atoms: C_8  and  C_12
REMARK    7  A    between atoms: C_9  and  C_15
REMARK    8  A    between atoms: C_11  and  C_16
REMARK    9  A    between atoms: C_12  and  C_17
REMARK   10  A    between atoms: C_12  and  C_18
REMARK   11  A    between atoms: C_13  and  C_19
REMARK   12  A    between atoms: C_16  and  C_20
REMARK   13  A    between atoms: C_21  and  C_23
REMARK   14  A    between atoms: C_22  and  C_24
REMARK                            x       y       z     vdW  Elec       q    Type
REMARK                         _______ _______ _______ _____ _____    ______ ____
ROOT
ATOM      8  C   UNL     1     -10.728  10.583  17.111  0.00  0.00    +0.000 C 
ATOM      9  C   UNL     1     -10.272   9.124  16.863  0.00  0.00    +0.032 C 
ATOM     10  C   UNL     1     -10.508  10.971  18.581  0.00  0.00    +0.012 C 
ATOM     11  C   UNL     1     -11.274  10.048  19.548  0.00  0.00    +0.024 C 
ATOM     13  C   UNL     1     -11.086   8.586  19.198  0.00  0.00    -0.073 C 
ATOM     14  C   UNL     1     -10.625   8.193  17.997  0.00  0.00    -0.022 C 
ATOM     19  C   UNL     1     -11.400   7.586  20.276  0.00  0.00    +0.039 C 
ENDROOT
BRANCH   8  12
ATOM     12  C   UNL     1      -9.995  11.572  16.199  0.00  0.00    -0.013 C 
ATOM     17  C   UNL     1     -10.988  12.306  15.303  0.00  0.00    +0.007 C 
ATOM     18  C   UNL     1      -9.183  12.560  17.029  0.00  0.00    +0.007 C 
ENDBRANCH   8  12
BRANCH   9  15
ATOM     15  C   UNL     1     -10.854   8.578  15.554  0.00  0.00    +0.112 C 
BRANCH  15   5
ATOM      2  O   UNL     1     -13.333   9.773  14.665  0.00  0.00    -0.273 OA
ATOM      5  N   UNL     1     -12.176   8.075  15.758  0.00  0.00    -0.313 N 
ATOM     21  C   UNL     1     -13.323   8.718  15.292  0.00  0.00    +0.239 C 
ATOM     32  H   UNL     1     -12.280   7.174  16.217  0.00  0.00    +0.149 HD
BRANCH  21  23
ATOM     23  C   UNL     1     -14.586   7.964  15.648  0.00  0.00    +0.255 C 
BRANCH  23   3
ATOM      3  O   UNL     1     -15.438   7.861  14.528  0.00  0.00    -0.374 OA
ATOM     27  C   UNL     1     -15.030   6.820  13.645  0.00  0.00    +0.194 C 
ENDBRANCH  23   3
ENDBRANCH  21  23
ENDBRANCH  15   5
ENDBRANCH   9  15
BRANCH  11  16
ATOM     16  C   UNL     1     -12.762  10.413  19.599  0.00  0.00    +0.105 C 
BRANCH  16  20
ATOM      1  O   UNL     1     -12.525  10.969  21.964  0.00  0.00    -0.420 OA
ATOM      6  N   UNL     1     -13.795  12.403  20.807  0.00  0.00    -0.112 NA
ATOM      7  N   UNL     1     -13.748  12.836  22.120  0.00  0.00    -0.107 NA
ATOM     20  C   UNL     1     -13.067  11.311  20.763  0.00  0.00    +0.218 A 
ATOM     22  C   UNL     1     -12.996  11.970  22.758  0.00  0.00    +0.248 A 
BRANCH  22  24
ATOM     24  C   UNL     1     -12.602  11.915  24.135  0.00  0.00    +0.039 A 
ATOM     25  C   UNL     1     -12.950  12.952  25.002  0.00  0.00    +0.017 A 
ATOM     26  C   UNL     1     -11.870  10.826  24.609  0.00  0.00    +0.017 A 
ATOM     28  C   UNL     1     -12.567  12.899  26.341  0.00  0.00    +0.046 A 
ATOM     29  C   UNL     1     -11.487  10.773  25.949  0.00  0.00    +0.046 A 
ATOM     30  C   UNL     1     -11.834  11.810  26.816  0.00  0.00    +0.120 A 
BRANCH  30   4
ATOM      4  O   UNL     1     -11.463  11.757  28.123  0.00  0.00    -0.495 OA
ATOM     31  C   UNL     1     -11.486  10.476  28.753  0.00  0.00    +0.277 C 
ENDBRANCH  30   4
ENDBRANCH  22  24
ENDBRANCH  16  20
ENDBRANCH  11  16
TORSDOF 9
ENDMDL
MODEL 9
REMARK VINA RESULT:      -5.9      5.515     11.300
REMARK  Name = 38031261
REMARK  14 active torsions:
REMARK  status: ('A' for Active; 'I' for Inactive)
REMARK    1  A    between atoms: O_3  and  C_23
REMARK    2  A    between atoms: O_3  and  C_27
REMARK    3  A    between atoms: O_4  and  C_30
REMARK    4  A    between atoms: O_4  and  C_31
REMARK    5  A    between atoms: N_5  and  C_15
REMARK    6  A    between atoms: C_8  and  C_12
REMARK    7  A    between atoms: C_9  and  C_15
REMARK    8  A    between atoms: C_11  and  C_16
REMARK    9  A    between atoms: C_12  and  C_17
REMARK   10  A    between atoms: C_12  and  C_18
REMARK   11  A    between atoms: C_13  and  C_19
REMARK   12  A    between atoms: C_16  and  C_20
REMARK   13  A    between atoms: C_21  and  C_23
REMARK   14  A    between atoms: C_22  and  C_24
REMARK                            x       y       z     vdW  Elec       q    Type
REMARK                         _______ _______ _______ _____ _____    ______ ____
ROOT
ATOM      8  C   UNL     1      -4.766 -11.656   7.698  0.00  0.00    +0.000 C 
ATOM      9  C   UNL     1      -6.069 -10.861   7.440  0.00  0.00    +0.032 C 
ATOM     10  C   UNL     1      -4.753 -12.214   9.129  0.00  0.00    +0.012 C 
ATOM     11  C   UNL     1      -4.863 -11.101  10.189  0.00  0.00    +0.024 C 
ATOM     13  C   UNL     1      -5.966 -10.116   9.857  0.00  0.00    -0.073 C 
ATOM     14  C   UNL     1      -6.501 -10.032   8.626  0.00  0.00    -0.022 C 
ATOM     19  C   UNL     1      -6.469  -9.257  10.984  0.00  0.00    +0.039 C 
ENDROOT
BRANCH   8  12
ATOM     12  C   UNL     1      -4.590 -12.800   6.694  0.00  0.00    -0.013 C 
ATOM     17  C   UNL     1      -3.466 -12.479   5.713  0.00  0.00    +0.007 C 
ATOM     18  C   UNL     1      -4.312 -14.111   7.424  0.00  0.00    +0.007 C 
ENDBRANCH   8  12
BRANCH   9  15
ATOM     15  C   UNL     1      -5.932  -9.958   6.208  0.00  0.00    +0.112 C 
BRANCH  15   5
ATOM      2  O   UNL     1      -8.405  -9.342   4.840  0.00  0.00    -0.273 OA
ATOM      5  N   UNL     1      -6.728  -8.779   6.353  0.00  0.00    -0.313 N 
ATOM     21  C   UNL     1      -7.913  -8.562   5.651  0.00  0.00    +0.239 C 
ATOM     32  H   UNL     1      -6.443  -8.091   7.044  0.00  0.00    +0.149 HD
BRANCH  21  23
ATOM     23  C   UNL     1      -8.549  -7.233   5.999  0.00  0.00    +0.255 C 
BRANCH  23   3
ATOM      3  O   UNL     1      -8.038  -6.741   7.219  0.00  0.00    -0.374 OA
ATOM     27  C   UNL     1      -9.050  -6.118   8.006  0.00  0.00    +0.194 C 
ENDBRANCH  23   3
ENDBRANCH  21  23
ENDBRANCH  15   5
ENDBRANCH   9  15
BRANCH  11  16
ATOM     16  C   UNL     1      -3.523 -10.382  10.378  0.00  0.00    +0.105 C 
BRANCH  16  20
ATOM      1  O   UNL     1      -3.955 -10.471  12.779  0.00  0.00    -0.420 OA
ATOM      6  N   UNL     1      -1.796 -10.673  12.227  0.00  0.00    -0.112 NA
ATOM      7  N   UNL     1      -1.893 -10.741  13.606  0.00  0.00    -0.107 NA
ATOM     20  C   UNL     1      -3.023 -10.517  11.788  0.00  0.00    +0.218 A 
ATOM     22  C   UNL     1      -3.170 -10.619  13.882  0.00  0.00    +0.248 A 
BRANCH  22  24
ATOM     24  C   UNL     1      -3.854 -10.616  15.143  0.00  0.00    +0.039 A 
ATOM     25  C   UNL     1      -5.192 -10.228  15.209  0.00  0.00    +0.017 A 
ATOM     26  C   UNL     1      -3.180 -11.001  16.302  0.00  0.00    +0.017 A 
ATOM     28  C   UNL     1      -5.857 -10.225  16.434  0.00  0.00    +0.046 A 
ATOM     29  C   UNL     1      -3.845 -10.997  17.528  0.00  0.00    +0.046 A 
ATOM     30  C   UNL     1      -5.183 -10.610  17.595  0.00  0.00    +0.120 A 
BRANCH  30   4
ATOM      4  O   UNL     1      -5.833 -10.610  18.790  0.00  0.00    -0.495 OA
ATOM     31  C   UNL     1      -7.253 -10.754  18.757  0.00  0.00    +0.277 C 
ENDBRANCH  30   4
ENDBRANCH  22  24
ENDBRANCH  16  20
ENDBRANCH  11  16
TORSDOF 9
ENDMDL
MODEL 10
REMARK VINA RESULT:      -5.8      2.743      9.768
REMARK  Name = 38031261
REMARK  14 active torsions:
REMARK  status: ('A' for Active; 'I' for Inactive)
REMARK    1  A    between atoms: O_3  and  C_23
REMARK    2  A    between atoms: O_3  and  C_27
REMARK    3  A    between atoms: O_4  and  C_30
REMARK    4  A    between atoms: O_4  and  C_31
REMARK    5  A    between atoms: N_5  and  C_15
REMARK    6  A    between atoms: C_8  and  C_12
REMARK    7  A    between atoms: C_9  and  C_15
REMARK    8  A    between atoms: C_11  and  C_16
REMARK    9  A    between atoms: C_12  and  C_17
REMARK   10  A    between atoms: C_12  and  C_18
REMARK   11  A    between atoms: C_13  and  C_19
REMARK   12  A    between atoms: C_16  and  C_20
REMARK   13  A    between atoms: C_21  and  C_23
REMARK   14  A    between atoms: C_22  and  C_24
REMARK                            x       y       z     vdW  Elec       q    Type
REMARK                         _______ _______ _______ _____ _____    ______ ____
ROOT
ATOM      8  C   UNL     1      -4.725 -11.005  13.138  0.00  0.00    +0.000 C 
ATOM      9  C   UNL     1      -3.344 -10.611  12.559  0.00  0.00    +0.032 C 
ATOM     10  C   UNL     1      -4.959 -10.309  14.488  0.00  0.00    +0.012 C 
ATOM     11  C   UNL     1      -3.876 -10.667  15.522  0.00  0.00    +0.024 C 
ATOM     13  C   UNL     1      -2.482 -10.559  14.938  0.00  0.00    -0.073 C 
ATOM     14  C   UNL     1      -2.265 -10.523  13.611  0.00  0.00    -0.022 C 
ATOM     19  C   UNL     1      -1.345 -10.451  15.915  0.00  0.00    +0.039 C 
ENDROOT
BRANCH   8  12
ATOM     12  C   UNL     1      -5.865 -10.662  12.174  0.00  0.00    -0.013 C 
ATOM     17  C   UNL     1      -7.200 -11.146  12.734  0.00  0.00    +0.007 C 
ATOM     18  C   UNL     1      -5.904  -9.161  11.907  0.00  0.00    +0.007 C 
ENDBRANCH   8  12
BRANCH   9  15
ATOM     15  C   UNL     1      -2.907 -11.586  11.460  0.00  0.00    +0.112 C 
BRANCH  15   5
ATOM      2  O   UNL     1      -3.952 -14.244  11.003  0.00  0.00    -0.273 OA
ATOM      5  N   UNL     1      -2.431 -12.809  12.026  0.00  0.00    -0.313 N 
ATOM     21  C   UNL     1      -2.996 -14.054  11.750  0.00  0.00    +0.239 C 
ATOM     32  H   UNL     1      -1.605 -12.774  12.616  0.00  0.00    +0.149 HD
BRANCH  21  23
ATOM     23  C   UNL     1      -2.295 -15.176  12.485  0.00  0.00    +0.255 C 
BRANCH  23   3
ATOM      3  O   UNL     1      -2.134 -14.855  13.850  0.00  0.00    -0.374 OA
ATOM     27  C   UNL     1      -1.923 -16.016  14.647  0.00  0.00    +0.194 C 
ENDBRANCH  23   3
ENDBRANCH  21  23
ENDBRANCH  15   5
ENDBRANCH   9  15
BRANCH  11  16
ATOM     16  C   UNL     1      -4.116 -12.060  16.116  0.00  0.00    +0.105 C 
BRANCH  16  20
ATOM      1  O   UNL     1      -6.090 -12.027  17.551  0.00  0.00    -0.420 OA
ATOM      6  N   UNL     1      -4.152 -11.853  18.655  0.00  0.00    -0.112 NA
ATOM      7  N   UNL     1      -5.177 -11.821  19.583  0.00  0.00    -0.107 NA
ATOM     20  C   UNL     1      -4.732 -11.975  17.483  0.00  0.00    +0.218 A 
ATOM     22  C   UNL     1      -6.289 -11.925  18.894  0.00  0.00    +0.248 A 
BRANCH  22  24
ATOM     24  C   UNL     1      -7.655 -11.948  19.330  0.00  0.00    +0.039 A 
ATOM     25  C   UNL     1      -8.176 -13.093  19.933  0.00  0.00    +0.017 A 
ATOM     26  C   UNL     1      -8.463 -10.825  19.149  0.00  0.00    +0.017 A 
ATOM     28  C   UNL     1      -9.504 -13.115  20.356  0.00  0.00    +0.046 A 
ATOM     29  C   UNL     1      -9.792 -10.847  19.572  0.00  0.00    +0.046 A 
ATOM     30  C   UNL     1     -10.313 -11.992  20.175  0.00  0.00    +0.120 A 
BRANCH  30   4
ATOM      4  O   UNL     1     -11.608 -12.013  20.591  0.00  0.00    -0.495 OA
ATOM     31  C   UNL     1     -12.089 -13.233  21.155  0.00  0.00    +0.277 C 
ENDBRANCH  30   4
ENDBRANCH  22  24
ENDBRANCH  16  20
ENDBRANCH  11  16
TORSDOF 9
ENDMDL
