MODEL 1
REMARK VINA RESULT:      -6.7      0.000      0.000
REMARK  Name = 26742810
REMARK  6 active torsions:
REMARK  status: ('A' for Active; 'I' for Inactive)
REMARK    1  A    between atoms: O_3  and  C_29
REMARK    2  A    between atoms: O_3  and  C_30
REMARK    3  A    between atoms: N_5  and  C_17
REMARK    4  A    between atoms: C_16  and  C_18
REMARK    5  A    between atoms: C_17  and  C_19
REMARK    6  A    between atoms: C_18  and  C_20
REMARK                            x       y       z     vdW  Elec       q    Type
REMARK                         _______ _______ _______ _____ _____    ______ ____
ROOT
ATOM      1  O   UNL     1      -6.598  -9.922  18.776  0.00  0.00    -0.276 OA
ATOM      2  O   UNL     1      -1.584  -9.807  13.892  0.00  0.00    -0.275 OA
ATOM      4  N   UNL     1      -2.705 -11.534  14.968  0.00  0.00    -0.301 N 
ATOM      5  N   UNL     1      -7.192 -10.638  16.650  0.00  0.00    -0.297 N 
ATOM      7  C   UNL     1      -4.797 -12.638  15.740  0.00  0.00    +0.011 C 
ATOM      8  C   UNL     1      -4.485 -12.136  17.169  0.00  0.00    +0.004 C 
ATOM      9  C   UNL     1      -3.633 -10.854  17.146  0.00  0.00    +0.023 C 
ATOM     10  C   UNL     1      -3.484 -12.779  14.945  0.00  0.00    +0.111 C 
ATOM     11  C   UNL     1      -5.802 -11.780  14.948  0.00  0.00    +0.024 C 
ATOM     12  C   UNL     1      -5.718 -12.018  18.076  0.00  0.00    +0.100 C 
ATOM     13  C   UNL     1      -2.373 -11.047  16.307  0.00  0.00    +0.108 C 
ATOM     14  C   UNL     1      -7.167 -11.672  15.619  0.00  0.00    +0.108 C 
ATOM     15  C   UNL     1      -6.543 -10.762  17.874  0.00  0.00    +0.216 C 
ATOM     16  C   UNL     1      -2.260 -10.838  13.844  0.00  0.00    +0.220 C 
ENDROOT
BRANCH   5  17
ATOM     17  C   UNL     1      -7.938  -9.425  16.340  0.00  0.00    +0.144 C 
BRANCH  17  19
ATOM      6  N   UNL     1     -11.618 -10.108  15.775  0.00  0.00    -0.263 NA
ATOM     19  C   UNL     1      -9.410  -9.589  16.611  0.00  0.00    -0.012 A 
ATOM     21  C   UNL     1      -9.933  -9.385  17.884  0.00  0.00    +0.008 A 
ATOM     22  C   UNL     1     -10.288  -9.947  15.601  0.00  0.00    +0.115 A 
ATOM     25  C   UNL     1     -11.296  -9.542  18.104  0.00  0.00    +0.020 A 
ATOM     28  C   UNL     1     -12.089  -9.901  17.025  0.00  0.00    +0.111 A 
ENDBRANCH  17  19
ENDBRANCH   5  17
BRANCH  16  18
ATOM     18  C   UNL     1      -2.647 -11.404  12.502  0.00  0.00    +0.131 C 
BRANCH  18  20
ATOM     20  C   UNL     1      -3.463 -10.418  11.729  0.00  0.00    -0.038 A 
ATOM     23  C   UNL     1      -4.732 -10.053  12.184  0.00  0.00    +0.007 A 
ATOM     24  C   UNL     1      -2.957  -9.860  10.554  0.00  0.00    +0.007 A 
ATOM     26  C   UNL     1      -5.492  -9.132  11.463  0.00  0.00    +0.046 A 
ATOM     27  C   UNL     1      -3.718  -8.939   9.835  0.00  0.00    +0.046 A 
ATOM     29  C   UNL     1      -4.986  -8.575  10.290  0.00  0.00    +0.120 A 
BRANCH  29   3
ATOM      3  O   UNL     1      -5.728  -7.674   9.589  0.00  0.00    -0.495 OA
ATOM     30  C   UNL     1      -6.902  -8.164   8.943  0.00  0.00    +0.277 C 
ENDBRANCH  29   3
ENDBRANCH  18  20
ENDBRANCH  16  18
TORSDOF 5
ENDMDL
MODEL 2
REMARK VINA RESULT:      -6.6      3.048      4.695
REMARK  Name = 26742810
REMARK  6 active torsions:
REMARK  status: ('A' for Active; 'I' for Inactive)
REMARK    1  A    between atoms: O_3  and  C_29
REMARK    2  A    between atoms: O_3  and  C_30
REMARK    3  A    between atoms: N_5  and  C_17
REMARK    4  A    between atoms: C_16  and  C_18
REMARK    5  A    between atoms: C_17  and  C_19
REMARK    6  A    between atoms: C_18  and  C_20
REMARK                            x       y       z     vdW  Elec       q    Type
REMARK                         _______ _______ _______ _____ _____    ______ ____
ROOT
ATOM      1  O   UNL     1      -2.398 -10.298  16.340  0.00  0.00    -0.276 OA
ATOM      2  O   UNL     1      -3.776  -8.809   9.640  0.00  0.00    -0.275 OA
ATOM      4  N   UNL     1      -3.376 -10.800  10.768  0.00  0.00    -0.301 N 
ATOM      5  N   UNL     1      -4.457 -10.983  15.518  0.00  0.00    -0.297 N 
ATOM      7  C   UNL     1      -3.797 -12.369  12.653  0.00  0.00    +0.011 C 
ATOM      8  C   UNL     1      -2.462 -11.906  13.281  0.00  0.00    +0.004 C 
ATOM      9  C   UNL     1      -2.098 -10.474  12.847  0.00  0.00    +0.023 C 
ATOM     10  C   UNL     1      -3.742 -12.177  11.124  0.00  0.00    +0.111 C 
ATOM     11  C   UNL     1      -5.058 -11.694  13.223  0.00  0.00    +0.024 C 
ATOM     12  C   UNL     1      -2.378 -12.111  14.799  0.00  0.00    +0.100 C 
ATOM     13  C   UNL     1      -2.105 -10.342  11.327  0.00  0.00    +0.108 C 
ATOM     14  C   UNL     1      -5.244 -11.920  14.720  0.00  0.00    +0.108 C 
ATOM     15  C   UNL     1      -3.072 -11.047  15.628  0.00  0.00    +0.216 C 
ATOM     16  C   UNL     1      -4.119  -9.955   9.944  0.00  0.00    +0.220 C 
ENDROOT
BRANCH   5  17
ATOM     17  C   UNL     1      -5.197  -9.938  16.214  0.00  0.00    +0.144 C 
BRANCH  17  19
ATOM      6  N   UNL     1      -7.994 -11.071  18.499  0.00  0.00    -0.263 NA
ATOM     19  C   UNL     1      -5.912 -10.471  17.427  0.00  0.00    -0.012 A 
ATOM     21  C   UNL     1      -5.208 -10.847  18.567  0.00  0.00    +0.008 A 
ATOM     22  C   UNL     1      -7.291 -10.602  17.444  0.00  0.00    +0.115 A 
ATOM     25  C   UNL     1      -5.896 -11.334  19.673  0.00  0.00    +0.020 A 
ATOM     28  C   UNL     1      -7.276 -11.425  19.589  0.00  0.00    +0.111 A 
ENDBRANCH  17  19
ENDBRANCH   5  17
BRANCH  16  18
ATOM     18  C   UNL     1      -5.419 -10.501   9.410  0.00  0.00    +0.131 C 
BRANCH  18  20
ATOM     20  C   UNL     1      -5.288 -10.851   7.962  0.00  0.00    -0.038 A 
ATOM     23  C   UNL     1      -6.043 -10.167   7.007  0.00  0.00    +0.007 A 
ATOM     24  C   UNL     1      -4.411 -11.861   7.564  0.00  0.00    +0.007 A 
ATOM     26  C   UNL     1      -5.919 -10.492   5.657  0.00  0.00    +0.046 A 
ATOM     27  C   UNL     1      -4.288 -12.185   6.213  0.00  0.00    +0.046 A 
ATOM     29  C   UNL     1      -5.042 -11.501   5.260  0.00  0.00    +0.120 A 
BRANCH  29   3
ATOM      3  O   UNL     1      -4.921 -11.817   3.941  0.00  0.00    -0.495 OA
ATOM     30  C   UNL     1      -3.762 -12.556   3.555  0.00  0.00    +0.277 C 
ENDBRANCH  29   3
ENDBRANCH  18  20
ENDBRANCH  16  18
TORSDOF 5
ENDMDL
MODEL 3
REMARK VINA RESULT:      -6.6     28.073     30.427
REMARK  Name = 26742810
REMARK  6 active torsions:
REMARK  status: ('A' for Active; 'I' for Inactive)
REMARK    1  A    between atoms: O_3  and  C_29
REMARK    2  A    between atoms: O_3  and  C_30
REMARK    3  A    between atoms: N_5  and  C_17
REMARK    4  A    between atoms: C_16  and  C_18
REMARK    5  A    between atoms: C_17  and  C_19
REMARK    6  A    between atoms: C_18  and  C_20
REMARK                            x       y       z     vdW  Elec       q    Type
REMARK                         _______ _______ _______ _____ _____    ______ ____
ROOT
ATOM      1  O   UNL     1      11.317  11.210  25.339  0.00  0.00    -0.276 OA
ATOM      2  O   UNL     1      13.270   6.561  20.483  0.00  0.00    -0.275 OA
ATOM      4  N   UNL     1      12.396   8.709  20.354  0.00  0.00    -0.301 N 
ATOM      5  N   UNL     1      13.209  11.726  24.097  0.00  0.00    -0.297 N 
ATOM      7  C   UNL     1      12.382  11.109  21.015  0.00  0.00    +0.011 C 
ATOM      8  C   UNL     1      11.155  10.812  21.909  0.00  0.00    +0.004 C 
ATOM      9  C   UNL     1      11.133   9.344  22.372  0.00  0.00    +0.023 C 
ATOM     10  C   UNL     1      12.435  10.090  19.858  0.00  0.00    +0.111 C 
ATOM     11  C   UNL     1      13.735  11.141  21.749  0.00  0.00    +0.024 C 
ATOM     12  C   UNL     1      10.965  11.806  23.062  0.00  0.00    +0.100 C 
ATOM     13  C   UNL     1      11.234   8.391  21.184  0.00  0.00    +0.108 C 
ATOM     14  C   UNL     1      13.804  12.196  22.849  0.00  0.00    +0.108 C 
ATOM     15  C   UNL     1      11.840  11.554  24.276  0.00  0.00    +0.216 C 
ATOM     16  C   UNL     1      13.340   7.722  20.073  0.00  0.00    +0.220 C 
ENDROOT
BRANCH   5  17
ATOM     17  C   UNL     1      14.129  11.425  25.186  0.00  0.00    +0.144 C 
BRANCH  17  19
ATOM      6  N   UNL     1      16.415  14.215  26.333  0.00  0.00    -0.263 NA
ATOM     19  C   UNL     1      14.609  12.674  25.874  0.00  0.00    -0.012 A 
ATOM     21  C   UNL     1      13.752  13.432  26.666  0.00  0.00    +0.008 A 
ATOM     22  C   UNL     1      15.919  13.106  25.742  0.00  0.00    +0.115 A 
ATOM     25  C   UNL     1      14.225  14.580  27.292  0.00  0.00    +0.020 A 
ATOM     28  C   UNL     1      15.552  14.925  27.095  0.00  0.00    +0.111 A 
ENDBRANCH  17  19
ENDBRANCH   5  17
BRANCH  16  18
ATOM     18  C   UNL     1      14.510   8.131  19.214  0.00  0.00    +0.131 C 
BRANCH  18  20
ATOM     20  C   UNL     1      15.801   7.727  19.853  0.00  0.00    -0.038 A 
ATOM     23  C   UNL     1      16.465   6.578  19.419  0.00  0.00    +0.007 A 
ATOM     24  C   UNL     1      16.342   8.498  20.882  0.00  0.00    +0.007 A 
ATOM     26  C   UNL     1      17.670   6.203  20.014  0.00  0.00    +0.046 A 
ATOM     27  C   UNL     1      17.546   8.122  21.476  0.00  0.00    +0.046 A 
ATOM     29  C   UNL     1      18.210   6.975  21.043  0.00  0.00    +0.120 A 
BRANCH  29   3
ATOM      3  O   UNL     1      19.386   6.608  21.622  0.00  0.00    -0.495 OA
ATOM     30  C   UNL     1      20.283   5.828  20.832  0.00  0.00    +0.277 C 
ENDBRANCH  29   3
ENDBRANCH  18  20
ENDBRANCH  16  18
TORSDOF 5
ENDMDL
MODEL 4
REMARK VINA RESULT:      -6.4      2.398      6.121
REMARK  Name = 26742810
REMARK  6 active torsions:
REMARK  status: ('A' for Active; 'I' for Inactive)
REMARK    1  A    between atoms: O_3  and  C_29
REMARK    2  A    between atoms: O_3  and  C_30
REMARK    3  A    between atoms: N_5  and  C_17
REMARK    4  A    between atoms: C_16  and  C_18
REMARK    5  A    between atoms: C_17  and  C_19
REMARK    6  A    between atoms: C_18  and  C_20
REMARK                            x       y       z     vdW  Elec       q    Type
REMARK                         _______ _______ _______ _____ _____    ______ ____
ROOT
ATOM      1  O   UNL     1      -6.904 -11.359   8.666  0.00  0.00    -0.276 OA
ATOM      2  O   UNL     1      -3.319 -13.374  14.331  0.00  0.00    -0.275 OA
ATOM      4  N   UNL     1      -2.803 -11.979  12.546  0.00  0.00    -0.301 N 
ATOM      5  N   UNL     1      -6.485  -9.736  10.270  0.00  0.00    -0.297 N 
ATOM      7  C   UNL     1      -3.342 -10.089  11.019  0.00  0.00    +0.011 C 
ATOM      8  C   UNL     1      -3.694 -11.126   9.928  0.00  0.00    +0.004 C 
ATOM      9  C   UNL     1      -4.150 -12.463  10.542  0.00  0.00    +0.023 C 
ATOM     10  C   UNL     1      -2.324 -10.701  12.004  0.00  0.00    +0.111 C 
ATOM     11  C   UNL     1      -4.545  -9.519  11.794  0.00  0.00    +0.024 C 
ATOM     12  C   UNL     1      -4.655 -10.603   8.852  0.00  0.00    +0.100 C 
ATOM     13  C   UNL     1      -3.121 -12.990  11.538  0.00  0.00    +0.108 C 
ATOM     14  C   UNL     1      -5.556  -8.804  10.903  0.00  0.00    +0.108 C 
ATOM     15  C   UNL     1      -6.120 -10.605   9.247  0.00  0.00    +0.216 C 
ATOM     16  C   UNL     1      -2.938 -12.281  13.901  0.00  0.00    +0.220 C 
ENDROOT
BRANCH   5  17
ATOM     17  C   UNL     1      -7.854  -9.733  10.769  0.00  0.00    +0.144 C 
BRANCH  17  19
ATOM      6  N   UNL     1      -8.946 -10.856  14.215  0.00  0.00    -0.263 NA
ATOM     19  C   UNL     1      -8.001 -10.576  12.008  0.00  0.00    -0.012 A 
ATOM     21  C   UNL     1      -7.363 -11.808  12.117  0.00  0.00    +0.008 A 
ATOM     22  C   UNL     1      -8.774 -10.150  13.076  0.00  0.00    +0.115 A 
ATOM     25  C   UNL     1      -7.516 -12.564  13.273  0.00  0.00    +0.020 A 
ATOM     28  C   UNL     1      -8.310 -12.048  14.285  0.00  0.00    +0.111 A 
ENDBRANCH  17  19
ENDBRANCH   5  17
BRANCH  16  18
ATOM     18  C   UNL     1      -2.593 -11.185  14.876  0.00  0.00    +0.131 C 
BRANCH  18  20
ATOM     20  C   UNL     1      -3.774 -10.849  15.731  0.00  0.00    -0.038 A 
ATOM     23  C   UNL     1      -4.918 -10.295  15.154  0.00  0.00    +0.007 A 
ATOM     24  C   UNL     1      -3.732 -11.089  17.105  0.00  0.00    +0.007 A 
ATOM     26  C   UNL     1      -6.020  -9.984  15.952  0.00  0.00    +0.046 A 
ATOM     27  C   UNL     1      -4.834 -10.778  17.901  0.00  0.00    +0.046 A 
ATOM     29  C   UNL     1      -5.978 -10.225  17.324  0.00  0.00    +0.120 A 
BRANCH  29   3
ATOM      3  O   UNL     1      -7.054  -9.922  18.101  0.00  0.00    -0.495 OA
ATOM     30  C   UNL     1      -8.150  -9.267  17.464  0.00  0.00    +0.277 C 
ENDBRANCH  29   3
ENDBRANCH  18  20
ENDBRANCH  16  18
TORSDOF 5
ENDMDL
MODEL 5
REMARK VINA RESULT:      -6.3      3.071      7.359
REMARK  Name = 26742810
REMARK  6 active torsions:
REMARK  status: ('A' for Active; 'I' for Inactive)
REMARK    1  A    between atoms: O_3  and  C_29
REMARK    2  A    between atoms: O_3  and  C_30
REMARK    3  A    between atoms: N_5  and  C_17
REMARK    4  A    between atoms: C_16  and  C_18
REMARK    5  A    between atoms: C_17  and  C_19
REMARK    6  A    between atoms: C_18  and  C_20
REMARK                            x       y       z     vdW  Elec       q    Type
REMARK                         _______ _______ _______ _____ _____    ______ ____
ROOT
ATOM      1  O   UNL     1      -7.258 -10.691   7.840  0.00  0.00    -0.276 OA
ATOM      2  O   UNL     1      -3.920 -12.907  13.581  0.00  0.00    -0.275 OA
ATOM      4  N   UNL     1      -3.269 -11.588  11.782  0.00  0.00    -0.301 N 
ATOM      5  N   UNL     1      -6.725  -9.084   9.426  0.00  0.00    -0.297 N 
ATOM      7  C   UNL     1      -3.631  -9.684  10.221  0.00  0.00    +0.011 C 
ATOM      8  C   UNL     1      -4.055 -10.706   9.140  0.00  0.00    +0.004 C 
ATOM      9  C   UNL     1      -4.628 -11.990   9.768  0.00  0.00    +0.023 C 
ATOM     10  C   UNL     1      -2.679 -10.363  11.227  0.00  0.00    +0.111 C 
ATOM     11  C   UNL     1      -4.791  -9.004  10.971  0.00  0.00    +0.024 C 
ATOM     12  C   UNL     1      -4.957 -10.122   8.045  0.00  0.00    +0.100 C 
ATOM     13  C   UNL     1      -3.658 -12.585  10.785  0.00  0.00    +0.108 C 
ATOM     14  C   UNL     1      -5.729  -8.222  10.057  0.00  0.00    +0.108 C 
ATOM     15  C   UNL     1      -6.421  -9.995   8.420  0.00  0.00    +0.216 C 
ATOM     16  C   UNL     1      -3.445 -11.857  13.139  0.00  0.00    +0.220 C 
ENDROOT
BRANCH   5  17
ATOM     17  C   UNL     1      -8.094  -8.959   9.907  0.00  0.00    +0.144 C 
BRANCH  17  19
ATOM      6  N   UNL     1     -10.946  -7.996   7.610  0.00  0.00    -0.263 NA
ATOM     19  C   UNL     1      -8.948  -8.154   8.962  0.00  0.00    -0.012 A 
ATOM     21  C   UNL     1      -8.568  -6.877   8.563  0.00  0.00    +0.008 A 
ATOM     22  C   UNL     1     -10.135  -8.663   8.462  0.00  0.00    +0.115 A 
ATOM     25  C   UNL     1      -9.375  -6.159   7.688  0.00  0.00    +0.020 A 
ATOM     28  C   UNL     1     -10.544  -6.758   7.245  0.00  0.00    +0.111 A 
ENDBRANCH  17  19
ENDBRANCH   5  17
BRANCH  16  18
ATOM     18  C   UNL     1      -3.021 -10.778  14.103  0.00  0.00    +0.131 C 
BRANCH  18  20
ATOM     20  C   UNL     1      -4.065 -10.571  15.155  0.00  0.00    -0.038 A 
ATOM     23  C   UNL     1      -3.768 -10.836  16.494  0.00  0.00    +0.007 A 
ATOM     24  C   UNL     1      -5.333 -10.113  14.800  0.00  0.00    +0.007 A 
ATOM     26  C   UNL     1      -4.740 -10.642  17.475  0.00  0.00    +0.046 A 
ATOM     27  C   UNL     1      -6.305  -9.918  15.782  0.00  0.00    +0.046 A 
ATOM     29  C   UNL     1      -6.008 -10.183  17.119  0.00  0.00    +0.120 A 
BRANCH  29   3
ATOM      3  O   UNL     1      -6.956  -9.992  18.077  0.00  0.00    -0.495 OA
ATOM     30  C   UNL     1      -6.754 -10.648  19.329  0.00  0.00    +0.277 C 
ENDBRANCH  29   3
ENDBRANCH  18  20
ENDBRANCH  16  18
TORSDOF 5
ENDMDL
MODEL 6
REMARK VINA RESULT:      -6.0      2.665      5.456
REMARK  Name = 26742810
REMARK  6 active torsions:
REMARK  status: ('A' for Active; 'I' for Inactive)
REMARK    1  A    between atoms: O_3  and  C_29
REMARK    2  A    between atoms: O_3  and  C_30
REMARK    3  A    between atoms: N_5  and  C_17
REMARK    4  A    between atoms: C_16  and  C_18
REMARK    5  A    between atoms: C_17  and  C_19
REMARK    6  A    between atoms: C_18  and  C_20
REMARK                            x       y       z     vdW  Elec       q    Type
REMARK                         _______ _______ _______ _____ _____    ______ ____
ROOT
ATOM      1  O   UNL     1      -9.066 -11.817  14.849  0.00  0.00    -0.276 OA
ATOM      2  O   UNL     1      -6.146 -11.928   8.488  0.00  0.00    -0.275 OA
ATOM      4  N   UNL     1      -6.805 -10.201   9.896  0.00  0.00    -0.301 N 
ATOM      5  N   UNL     1      -6.873 -11.075  14.692  0.00  0.00    -0.297 N 
ATOM      7  C   UNL     1      -6.844  -9.086  12.121  0.00  0.00    +0.011 C 
ATOM      8  C   UNL     1      -8.289  -9.606  12.309  0.00  0.00    +0.004 C 
ATOM      9  C   UNL     1      -8.537 -10.895  11.505  0.00  0.00    +0.023 C 
ATOM     10  C   UNL     1      -6.537  -8.949  10.615  0.00  0.00    +0.111 C 
ATOM     11  C   UNL     1      -5.751  -9.927  12.806  0.00  0.00    +0.024 C 
ATOM     12  C   UNL     1      -8.727  -9.722  13.775  0.00  0.00    +0.100 C 
ATOM     13  C   UNL     1      -8.171 -10.705  10.035  0.00  0.00    +0.108 C 
ATOM     14  C   UNL     1      -5.923 -10.030  14.318  0.00  0.00    +0.108 C 
ATOM     15  C   UNL     1      -8.245 -10.969  14.491  0.00  0.00    +0.216 C 
ATOM     16  C   UNL     1      -5.887 -10.890   9.103  0.00  0.00    +0.220 C 
ENDROOT
BRANCH   5  17
ATOM     17  C   UNL     1      -6.316 -12.277  15.297  0.00  0.00    +0.144 C 
BRANCH  17  19
ATOM      6  N   UNL     1      -6.771 -12.181  19.053  0.00  0.00    -0.263 NA
ATOM     19  C   UNL     1      -6.016 -12.081  16.759  0.00  0.00    -0.012 A 
ATOM     21  C   UNL     1      -4.768 -11.633  17.182  0.00  0.00    +0.008 A 
ATOM     22  C   UNL     1      -6.974 -12.338  17.726  0.00  0.00    +0.115 A 
ATOM     25  C   UNL     1      -4.521 -11.459  18.539  0.00  0.00    +0.020 A 
ATOM     28  C   UNL     1      -5.547 -11.744  19.426  0.00  0.00    +0.111 A 
ENDBRANCH  17  19
ENDBRANCH   5  17
BRANCH  16  18
ATOM     18  C   UNL     1      -4.500 -10.307   9.014  0.00  0.00    +0.131 C 
BRANCH  18  20
ATOM     20  C   UNL     1      -3.666 -10.750  10.174  0.00  0.00    -0.038 A 
ATOM     23  C   UNL     1      -3.772 -12.057  10.651  0.00  0.00    +0.007 A 
ATOM     24  C   UNL     1      -2.781  -9.857  10.779  0.00  0.00    +0.007 A 
ATOM     26  C   UNL     1      -2.993 -12.470  11.732  0.00  0.00    +0.046 A 
ATOM     27  C   UNL     1      -2.002 -10.271  11.859  0.00  0.00    +0.046 A 
ATOM     29  C   UNL     1      -2.108 -11.577  12.336  0.00  0.00    +0.120 A 
BRANCH  29   3
ATOM      3  O   UNL     1      -1.347 -11.982  13.390  0.00  0.00    -0.495 OA
ATOM     30  C   UNL     1      -2.001 -12.106  14.652  0.00  0.00    +0.277 C 
ENDBRANCH  29   3
ENDBRANCH  18  20
ENDBRANCH  16  18
TORSDOF 5
ENDMDL
MODEL 7
REMARK VINA RESULT:      -6.0     28.438     30.727
REMARK  Name = 26742810
REMARK  6 active torsions:
REMARK  status: ('A' for Active; 'I' for Inactive)
REMARK    1  A    between atoms: O_3  and  C_29
REMARK    2  A    between atoms: O_3  and  C_30
REMARK    3  A    between atoms: N_5  and  C_17
REMARK    4  A    between atoms: C_16  and  C_18
REMARK    5  A    between atoms: C_17  and  C_19
REMARK    6  A    between atoms: C_18  and  C_20
REMARK                            x       y       z     vdW  Elec       q    Type
REMARK                         _______ _______ _______ _____ _____    ______ ____
ROOT
ATOM      1  O   UNL     1      10.936  13.809  24.956  0.00  0.00    -0.276 OA
ATOM      2  O   UNL     1      14.388   8.310  22.339  0.00  0.00    -0.275 OA
ATOM      4  N   UNL     1      12.950   9.871  21.393  0.00  0.00    -0.301 N 
ATOM      5  N   UNL     1      12.670  14.266  23.483  0.00  0.00    -0.297 N 
ATOM      7  C   UNL     1      12.222  12.218  21.000  0.00  0.00    +0.011 C 
ATOM      8  C   UNL     1      11.082  11.991  22.021  0.00  0.00    +0.004 C 
ATOM      9  C   UNL     1      11.451  10.907  23.050  0.00  0.00    +0.023 C 
ATOM     10  C   UNL     1      12.624  10.870  20.368  0.00  0.00    +0.111 C 
ATOM     11  C   UNL     1      13.468  12.930  21.557  0.00  0.00    +0.024 C 
ATOM     12  C   UNL     1      10.555  13.278  22.669  0.00  0.00    +0.100 C 
ATOM     13  C   UNL     1      11.882   9.616  22.360  0.00  0.00    +0.108 C 
ATOM     14  C   UNL     1      13.175  14.319  22.114  0.00  0.00    +0.108 C 
ATOM     15  C   UNL     1      11.398  13.810  23.812  0.00  0.00    +0.216 C 
ATOM     16  C   UNL     1      14.149   9.164  21.481  0.00  0.00    +0.220 C 
ENDROOT
BRANCH   5  17
ATOM     17  C   UNL     1      13.576  14.717  24.531  0.00  0.00    +0.144 C 
BRANCH  17  19
ATOM      6  N   UNL     1      14.326  12.552  27.544  0.00  0.00    -0.263 NA
ATOM     19  C   UNL     1      14.081  13.570  25.365  0.00  0.00    -0.012 A 
ATOM     21  C   UNL     1      14.750  12.498  24.782  0.00  0.00    +0.008 A 
ATOM     22  C   UNL     1      13.896  13.548  26.738  0.00  0.00    +0.115 A 
ATOM     25  C   UNL     1      15.207  11.454  25.578  0.00  0.00    +0.020 A 
ATOM     28  C   UNL     1      14.972  11.529  26.942  0.00  0.00    +0.111 A 
ENDBRANCH  17  19
ENDBRANCH   5  17
BRANCH  16  18
ATOM     18  C   UNL     1      15.201   9.486  20.449  0.00  0.00    +0.131 C 
BRANCH  18  20
ATOM     20  C   UNL     1      16.151   8.342  20.289  0.00  0.00    -0.038 A 
ATOM     23  C   UNL     1      15.815   7.266  19.464  0.00  0.00    +0.007 A 
ATOM     24  C   UNL     1      17.373   8.349  20.961  0.00  0.00    +0.007 A 
ATOM     26  C   UNL     1      16.702   6.200  19.314  0.00  0.00    +0.046 A 
ATOM     27  C   UNL     1      18.259   7.283  20.810  0.00  0.00    +0.046 A 
ATOM     29  C   UNL     1      17.923   6.209  19.986  0.00  0.00    +0.120 A 
BRANCH  29   3
ATOM      3  O   UNL     1      18.789   5.168  19.837  0.00  0.00    -0.495 OA
ATOM     30  C   UNL     1      20.065   5.292  20.464  0.00  0.00    +0.277 C 
ENDBRANCH  29   3
ENDBRANCH  18  20
ENDBRANCH  16  18
TORSDOF 5
ENDMDL
MODEL 8
REMARK VINA RESULT:      -6.0      5.190      8.754
REMARK  Name = 26742810
REMARK  6 active torsions:
REMARK  status: ('A' for Active; 'I' for Inactive)
REMARK    1  A    between atoms: O_3  and  C_29
REMARK    2  A    between atoms: O_3  and  C_30
REMARK    3  A    between atoms: N_5  and  C_17
REMARK    4  A    between atoms: C_16  and  C_18
REMARK    5  A    between atoms: C_17  and  C_19
REMARK    6  A    between atoms: C_18  and  C_20
REMARK                            x       y       z     vdW  Elec       q    Type
REMARK                         _______ _______ _______ _____ _____    ______ ____
ROOT
ATOM      1  O   UNL     1     -10.224 -11.793  17.345  0.00  0.00    -0.276 OA
ATOM      2  O   UNL     1     -13.291  -7.343  12.896  0.00  0.00    -0.275 OA
ATOM      4  N   UNL     1     -12.810  -7.230  15.166  0.00  0.00    -0.301 N 
ATOM      5  N   UNL     1      -9.055  -9.855  16.831  0.00  0.00    -0.297 N 
ATOM      7  C   UNL     1     -11.243  -7.464  17.085  0.00  0.00    +0.011 C 
ATOM      8  C   UNL     1     -11.944  -8.796  17.440  0.00  0.00    +0.004 C 
ATOM      9  C   UNL     1     -12.576  -9.453  16.200  0.00  0.00    +0.023 C 
ATOM     10  C   UNL     1     -12.227  -6.549  16.329  0.00  0.00    +0.111 C 
ATOM     11  C   UNL     1      -9.935  -7.606  16.283  0.00  0.00    +0.024 C 
ATOM     12  C   UNL     1     -11.075  -9.765  18.253  0.00  0.00    +0.100 C 
ATOM     13  C   UNL     1     -13.502  -8.481  15.474  0.00  0.00    +0.108 C 
ATOM     14  C   UNL     1      -8.865  -8.417  17.006  0.00  0.00    +0.108 C 
ATOM     15  C   UNL     1     -10.081 -10.571  17.439  0.00  0.00    +0.216 C 
ATOM     16  C   UNL     1     -12.770  -6.763  13.852  0.00  0.00    +0.220 C 
ENDROOT
BRANCH   5  17
ATOM     17  C   UNL     1      -8.105 -10.538  15.963  0.00  0.00    +0.144 C 
BRANCH  17  19
ATOM      6  N   UNL     1      -5.526 -12.035  18.295  0.00  0.00    -0.263 NA
ATOM     19  C   UNL     1      -6.792 -10.787  16.656  0.00  0.00    -0.012 A 
ATOM     21  C   UNL     1      -5.660 -10.045  16.337  0.00  0.00    +0.008 A 
ATOM     22  C   UNL     1      -6.673 -11.762  17.633  0.00  0.00    +0.115 A 
ATOM     25  C   UNL     1      -4.461 -10.296  16.995  0.00  0.00    +0.020 A 
ATOM     28  C   UNL     1      -4.448 -11.293  17.958  0.00  0.00    +0.111 A 
ENDBRANCH  17  19
ENDBRANCH   5  17
BRANCH  16  18
ATOM     18  C   UNL     1     -12.035  -5.468  13.617  0.00  0.00    +0.131 C 
BRANCH  18  20
ATOM     20  C   UNL     1     -12.803  -4.588  12.682  0.00  0.00    -0.038 A 
ATOM     23  C   UNL     1     -12.332  -4.365  11.387  0.00  0.00    +0.007 A 
ATOM     24  C   UNL     1     -13.991  -3.990  13.104  0.00  0.00    +0.007 A 
ATOM     26  C   UNL     1     -13.049  -3.546  10.516  0.00  0.00    +0.046 A 
ATOM     27  C   UNL     1     -14.708  -3.172  12.231  0.00  0.00    +0.046 A 
ATOM     29  C   UNL     1     -14.237  -2.950  10.937  0.00  0.00    +0.120 A 
BRANCH  29   3
ATOM      3  O   UNL     1     -14.938  -2.152  10.085  0.00  0.00    -0.495 OA
ATOM     30  C   UNL     1     -16.358  -2.148  10.221  0.00  0.00    +0.277 C 
ENDBRANCH  29   3
ENDBRANCH  18  20
ENDBRANCH  16  18
TORSDOF 5
ENDMDL
MODEL 9
REMARK VINA RESULT:      -6.0      2.776      7.298
REMARK  Name = 26742810
REMARK  6 active torsions:
REMARK  status: ('A' for Active; 'I' for Inactive)
REMARK    1  A    between atoms: O_3  and  C_29
REMARK    2  A    between atoms: O_3  and  C_30
REMARK    3  A    between atoms: N_5  and  C_17
REMARK    4  A    between atoms: C_16  and  C_18
REMARK    5  A    between atoms: C_17  and  C_19
REMARK    6  A    between atoms: C_18  and  C_20
REMARK                            x       y       z     vdW  Elec       q    Type
REMARK                         _______ _______ _______ _____ _____    ______ ____
ROOT
ATOM      1  O   UNL     1      -5.244 -12.705   9.446  0.00  0.00    -0.276 OA
ATOM      2  O   UNL     1      -4.532 -13.055  16.401  0.00  0.00    -0.275 OA
ATOM      4  N   UNL     1      -3.323 -11.970  14.740  0.00  0.00    -0.301 N 
ATOM      5  N   UNL     1      -5.667 -10.761  10.640  0.00  0.00    -0.297 N 
ATOM      7  C   UNL     1      -3.192 -10.507  12.731  0.00  0.00    +0.011 C 
ATOM      8  C   UNL     1      -2.967 -11.774  11.874  0.00  0.00    +0.004 C 
ATOM      9  C   UNL     1      -3.595 -13.019  12.528  0.00  0.00    +0.023 C 
ATOM     10  C   UNL     1      -2.705 -10.765  14.172  0.00  0.00    +0.111 C 
ATOM     11  C   UNL     1      -4.638  -9.977  12.752  0.00  0.00    +0.024 C 
ATOM     12  C   UNL     1      -3.358 -11.611  10.400  0.00  0.00    +0.100 C 
ATOM     13  C   UNL     1      -3.107 -13.191  13.964  0.00  0.00    +0.108 C 
ATOM     14  C   UNL     1      -5.166  -9.600  11.371  0.00  0.00    +0.108 C 
ATOM     15  C   UNL     1      -4.841 -11.748  10.111  0.00  0.00    +0.216 C 
ATOM     16  C   UNL     1      -4.044 -12.023  15.932  0.00  0.00    +0.220 C 
ENDROOT
BRANCH   5  17
ATOM     17  C   UNL     1      -7.112 -10.859  10.483  0.00  0.00    +0.144 C 
BRANCH  17  19
ATOM      6  N   UNL     1      -7.809  -9.052   7.230  0.00  0.00    -0.263 NA
ATOM     19  C   UNL     1      -7.640  -9.838   9.510  0.00  0.00    -0.012 A 
ATOM     21  C   UNL     1      -8.413  -8.766   9.944  0.00  0.00    +0.008 A 
ATOM     22  C   UNL     1      -7.369  -9.934   8.155  0.00  0.00    +0.115 A 
ATOM     25  C   UNL     1      -8.885  -7.837   9.023  0.00  0.00    +0.020 A 
ATOM     28  C   UNL     1      -8.557  -8.024   7.689  0.00  0.00    +0.111 A 
ENDBRANCH  17  19
ENDBRANCH   5  17
BRANCH  16  18
ATOM     18  C   UNL     1      -4.225 -10.721  16.671  0.00  0.00    +0.131 C 
BRANCH  18  20
ATOM     20  C   UNL     1      -5.420 -10.786  17.569  0.00  0.00    -0.038 A 
ATOM     23  C   UNL     1      -6.696 -10.561  17.050  0.00  0.00    +0.007 A 
ATOM     24  C   UNL     1      -5.260 -11.073  18.925  0.00  0.00    +0.007 A 
ATOM     26  C   UNL     1      -7.810 -10.624  17.887  0.00  0.00    +0.046 A 
ATOM     27  C   UNL     1      -6.375 -11.136  19.761  0.00  0.00    +0.046 A 
ATOM     29  C   UNL     1      -7.650 -10.911  19.242  0.00  0.00    +0.120 A 
BRANCH  29   3
ATOM      3  O   UNL     1      -8.738 -10.973  20.058  0.00  0.00    -0.495 OA
ATOM     30  C   UNL     1      -9.991 -10.585  19.497  0.00  0.00    +0.277 C 
ENDBRANCH  29   3
ENDBRANCH  18  20
ENDBRANCH  16  18
TORSDOF 5
ENDMDL
MODEL 10
REMARK VINA RESULT:      -5.9      2.351      6.755
REMARK  Name = 26742810
REMARK  6 active torsions:
REMARK  status: ('A' for Active; 'I' for Inactive)
REMARK    1  A    between atoms: O_3  and  C_29
REMARK    2  A    between atoms: O_3  and  C_30
REMARK    3  A    between atoms: N_5  and  C_17
REMARK    4  A    between atoms: C_16  and  C_18
REMARK    5  A    between atoms: C_17  and  C_19
REMARK    6  A    between atoms: C_18  and  C_20
REMARK                            x       y       z     vdW  Elec       q    Type
REMARK                         _______ _______ _______ _____ _____    ______ ____
ROOT
ATOM      1  O   UNL     1      -3.368 -12.472  14.762  0.00  0.00    -0.276 OA
ATOM      2  O   UNL     1      -8.868 -13.086  19.049  0.00  0.00    -0.275 OA
ATOM      4  N   UNL     1      -7.028 -11.668  19.030  0.00  0.00    -0.301 N 
ATOM      5  N   UNL     1      -4.912 -10.741  14.737  0.00  0.00    -0.297 N 
ATOM      7  C   UNL     1      -5.494 -10.090  17.868  0.00  0.00    +0.011 C 
ATOM      8  C   UNL     1      -4.446 -11.226  17.800  0.00  0.00    +0.004 C 
ATOM      9  C   UNL     1      -5.112 -12.614  17.805  0.00  0.00    +0.023 C 
ATOM     10  C   UNL     1      -6.433 -10.326  19.068  0.00  0.00    +0.111 C 
ATOM     11  C   UNL     1      -6.321  -9.885  16.585  0.00  0.00    +0.024 C 
ATOM     12  C   UNL     1      -3.414 -11.061  16.677  0.00  0.00    +0.100 C 
ATOM     13  C   UNL     1      -6.061 -12.764  18.991  0.00  0.00    +0.108 C 
ATOM     14  C   UNL     1      -5.473  -9.547  15.364  0.00  0.00    +0.108 C 
ATOM     15  C   UNL     1      -3.889 -11.494  15.303  0.00  0.00    +0.216 C 
ATOM     16  C   UNL     1      -8.394 -11.947  19.056  0.00  0.00    +0.220 C 
ENDROOT
BRANCH   5  17
ATOM     17  C   UNL     1      -5.486 -11.136  13.457  0.00  0.00    +0.144 C 
BRANCH  17  19
ATOM      6  N   UNL     1      -5.210  -8.491  10.763  0.00  0.00    -0.263 NA
ATOM     19  C   UNL     1      -4.932 -10.320  12.320  0.00  0.00    -0.012 A 
ATOM     21  C   UNL     1      -3.685 -10.606  11.772  0.00  0.00    +0.008 A 
ATOM     22  C   UNL     1      -5.647  -9.261  11.784  0.00  0.00    +0.115 A 
ATOM     25  C   UNL     1      -3.200  -9.836  10.720  0.00  0.00    +0.020 A 
ATOM     28  C   UNL     1      -3.995  -8.800  10.256  0.00  0.00    +0.111 A 
ENDBRANCH  17  19
ENDBRANCH   5  17
BRANCH  16  18
ATOM     18  C   UNL     1      -9.326 -10.762  19.093  0.00  0.00    +0.131 C 
BRANCH  18  20
ATOM     20  C   UNL     1      -9.598 -10.261  17.710  0.00  0.00    -0.038 A 
ATOM     23  C   UNL     1      -9.585  -8.890  17.449  0.00  0.00    +0.007 A 
ATOM     24  C   UNL     1      -9.862 -11.164  16.680  0.00  0.00    +0.007 A 
ATOM     26  C   UNL     1      -9.837  -8.424  16.159  0.00  0.00    +0.046 A 
ATOM     27  C   UNL     1     -10.113 -10.697  15.390  0.00  0.00    +0.046 A 
ATOM     29  C   UNL     1     -10.101  -9.327  15.130  0.00  0.00    +0.120 A 
BRANCH  29   3
ATOM      3  O   UNL     1     -10.345  -8.871  13.870  0.00  0.00    -0.495 OA
ATOM     30  C   UNL     1     -11.709  -8.813  13.455  0.00  0.00    +0.277 C 
ENDBRANCH  29   3
ENDBRANCH  18  20
ENDBRANCH  16  18
TORSDOF 5
ENDMDL
