MODEL 1
REMARK VINA RESULT:      -6.3      0.000      0.000
REMARK  Name = 11913137
REMARK  6 active torsions:
REMARK  status: ('A' for Active; 'I' for Inactive)
REMARK    1  A    between atoms: O_6  and  C_31
REMARK    2  A    between atoms: O_6  and  C_35
REMARK    3  A    between atoms: N_9  and  C_15
REMARK    4  A    between atoms: C_11  and  C_16
REMARK    5  A    between atoms: C_19  and  C_23
REMARK    6  A    between atoms: C_22  and  C_24
REMARK                            x       y       z     vdW  Elec       q    Type
REMARK                         _______ _______ _______ _____ _____    ______ ____
ROOT
ATOM      3  O   UNL     1      -4.343 -11.649  19.012  0.00  0.00    -0.270 OA
ATOM      5  O   UNL     1     -11.125  -9.787  18.523  0.00  0.00    -0.270 OA
ATOM      7  N   UNL     1      -6.194 -10.818  17.840  0.00  0.00    -0.283 N 
ATOM      8  N   UNL     1      -8.910  -9.748  17.786  0.00  0.00    -0.294 N 
ATOM     11  C   UNL     1      -6.778 -10.308  16.592  0.00  0.00    +0.179 C 
ATOM     12  C   UNL     1      -7.892  -9.285  16.830  0.00  0.00    +0.140 C 
ATOM     13  C   UNL     1      -6.979 -10.639  19.063  0.00  0.00    +0.128 C 
ATOM     14  C   UNL     1      -8.477 -10.700  18.808  0.00  0.00    +0.127 C 
ATOM     19  C   UNL     1      -4.895 -11.331  17.960  0.00  0.00    +0.247 C 
ATOM     22  C   UNL     1     -10.258  -9.375  17.753  0.00  0.00    +0.247 C 
ENDROOT
BRANCH  22  24
ATOM      1  F   UNL     1     -11.817  -8.377  13.269  0.00  0.00    -0.205 F 
ATOM     24  C   UNL     1     -10.690  -8.412  16.728  0.00  0.00    +0.040 A 
ATOM     27  C   UNL     1     -11.056  -8.860  15.459  0.00  0.00    +0.051 A 
ATOM     28  C   UNL     1     -10.734  -7.050  17.027  0.00  0.00    +0.013 A 
ATOM     32  C   UNL     1     -11.466  -7.947  14.488  0.00  0.00    +0.124 A 
ATOM     33  C   UNL     1     -11.145  -6.137  16.055  0.00  0.00    +0.004 A 
ATOM     34  C   UNL     1     -11.510  -6.585  14.786  0.00  0.00    +0.038 A 
ENDBRANCH  22  24
BRANCH  19  23
ATOM     23  C   UNL     1      -4.108 -11.510  16.734  0.00  0.00    +0.037 A 
ATOM     25  C   UNL     1      -3.253 -10.497  16.300  0.00  0.00    +0.016 A 
ATOM     26  C   UNL     1      -4.214 -12.693  16.003  0.00  0.00    +0.016 A 
ATOM     29  C   UNL     1      -2.504 -10.666  15.136  0.00  0.00    +0.046 A 
ATOM     30  C   UNL     1      -3.464 -12.863  14.839  0.00  0.00    +0.046 A 
ATOM     31  C   UNL     1      -2.610 -11.850  14.406  0.00  0.00    +0.120 A 
BRANCH  31   6
ATOM      6  O   UNL     1      -1.877 -12.018  13.270  0.00  0.00    -0.495 OA
ATOM     35  C   UNL     1      -2.163 -11.147  12.178  0.00  0.00    +0.277 C 
ENDBRANCH  31   6
ENDBRANCH  19  23
BRANCH  11  16
ATOM      2  O   UNL     1      -7.600 -12.540  16.359  0.00  0.00    -0.274 OA
ATOM      9  N   UNL     1      -7.410 -11.206  14.461  0.00  0.00    -0.302 N 
ATOM     16  C   UNL     1      -7.314 -11.476  15.815  0.00  0.00    +0.236 C 
ATOM     36  H   UNL     1      -7.170 -10.276  14.126  0.00  0.00    +0.150 HD
BRANCH   9  15
ATOM      4  O   UNL     1      -5.754 -11.854  12.385  0.00  0.00    -0.274 OA
ATOM     10  N   UNL     1      -7.531 -12.420  11.067  0.00  0.00    -0.314 N 
ATOM     15  C   UNL     1      -7.874 -12.168  13.496  0.00  0.00    +0.159 C 
ATOM     17  C   UNL     1      -9.349 -11.958  13.186  0.00  0.00    +0.033 C 
ATOM     18  C   UNL     1      -9.765 -12.868  12.042  0.00  0.00    +0.021 C 
ATOM     20  C   UNL     1      -8.956 -12.515  10.808  0.00  0.00    +0.104 C 
ATOM     21  C   UNL     1      -6.958 -12.091  12.279  0.00  0.00    +0.233 C 
ATOM     37  H   UNL     1      -6.918 -12.429  10.258  0.00  0.00    +0.149 HD
ENDBRANCH   9  15
ENDBRANCH  11  16
TORSDOF 5
ENDMDL
MODEL 2
REMARK VINA RESULT:      -6.2      3.538      6.164
REMARK  Name = 11913137
REMARK  6 active torsions:
REMARK  status: ('A' for Active; 'I' for Inactive)
REMARK    1  A    between atoms: O_6  and  C_31
REMARK    2  A    between atoms: O_6  and  C_35
REMARK    3  A    between atoms: N_9  and  C_15
REMARK    4  A    between atoms: C_11  and  C_16
REMARK    5  A    between atoms: C_19  and  C_23
REMARK    6  A    between atoms: C_22  and  C_24
REMARK                            x       y       z     vdW  Elec       q    Type
REMARK                         _______ _______ _______ _____ _____    ______ ____
ROOT
ATOM      3  O   UNL     1      -1.182  -9.921  12.103  0.00  0.00    -0.270 OA
ATOM      5  O   UNL     1      -3.747 -11.598  18.452  0.00  0.00    -0.270 OA
ATOM      7  N   UNL     1      -2.920 -10.534  13.550  0.00  0.00    -0.283 N 
ATOM      8  N   UNL     1      -3.995 -10.887  16.241  0.00  0.00    -0.294 N 
ATOM     11  C   UNL     1      -4.333 -10.879  13.758  0.00  0.00    +0.179 C 
ATOM     12  C   UNL     1      -4.856 -10.450  15.131  0.00  0.00    +0.140 C 
ATOM     13  C   UNL     1      -2.124 -10.246  14.745  0.00  0.00    +0.128 C 
ATOM     14  C   UNL     1      -2.572 -11.055  15.952  0.00  0.00    +0.127 C 
ATOM     19  C   UNL     1      -2.327 -10.328  12.297  0.00  0.00    +0.247 C 
ATOM     22  C   UNL     1      -4.453 -11.193  17.528  0.00  0.00    +0.247 C 
ENDROOT
BRANCH  22  24
ATOM      1  F   UNL     1      -8.499  -8.520  17.414  0.00  0.00    -0.205 F 
ATOM     24  C   UNL     1      -5.884 -11.017  17.819  0.00  0.00    +0.040 A 
ATOM     27  C   UNL     1      -6.526  -9.829  17.471  0.00  0.00    +0.051 A 
ATOM     28  C   UNL     1      -6.600 -12.040  18.442  0.00  0.00    +0.013 A 
ATOM     32  C   UNL     1      -7.883  -9.661  17.747  0.00  0.00    +0.124 A 
ATOM     33  C   UNL     1      -7.957 -11.873  18.717  0.00  0.00    +0.004 A 
ATOM     34  C   UNL     1      -8.598 -10.684  18.369  0.00  0.00    +0.038 A 
ENDBRANCH  22  24
BRANCH  19  23
ATOM     23  C   UNL     1      -3.126 -10.615  11.099  0.00  0.00    +0.037 A 
ATOM     25  C   UNL     1      -3.253 -11.927  10.644  0.00  0.00    +0.016 A 
ATOM     26  C   UNL     1      -3.758  -9.575  10.417  0.00  0.00    +0.016 A 
ATOM     29  C   UNL     1      -4.013 -12.200   9.507  0.00  0.00    +0.046 A 
ATOM     30  C   UNL     1      -4.518  -9.849   9.280  0.00  0.00    +0.046 A 
ATOM     31  C   UNL     1      -4.645 -11.161   8.825  0.00  0.00    +0.120 A 
BRANCH  31   6
ATOM      6  O   UNL     1      -5.389 -11.427   7.716  0.00  0.00    -0.495 OA
ATOM     35  C   UNL     1      -5.554 -10.368   6.774  0.00  0.00    +0.277 C 
ENDBRANCH  31   6
ENDBRANCH  19  23
BRANCH  11  16
ATOM      2  O   UNL     1      -5.511 -12.868  13.153  0.00  0.00    -0.274 OA
ATOM      9  N   UNL     1      -3.357 -13.053  14.014  0.00  0.00    -0.302 N 
ATOM     16  C   UNL     1      -4.481 -12.364  13.595  0.00  0.00    +0.236 C 
ATOM     36  H   UNL     1      -2.548 -12.526  14.336  0.00  0.00    +0.150 HD
BRANCH   9  15
ATOM      4  O   UNL     1      -4.493 -14.474  16.054  0.00  0.00    -0.274 OA
ATOM     10  N   UNL     1      -3.032 -16.202  15.743  0.00  0.00    -0.314 N 
ATOM     15  C   UNL     1      -3.254 -14.488  13.983  0.00  0.00    +0.159 C 
ATOM     17  C   UNL     1      -1.878 -14.922  13.497  0.00  0.00    +0.033 C 
ATOM     18  C   UNL     1      -1.739 -16.429  13.641  0.00  0.00    +0.021 C 
ATOM     20  C   UNL     1      -1.875 -16.803  15.105  0.00  0.00    +0.104 C 
ATOM     21  C   UNL     1      -3.629 -15.016  15.363  0.00  0.00    +0.233 C 
ATOM     37  H   UNL     1      -3.318 -16.594  16.634  0.00  0.00    +0.149 HD
ENDBRANCH   9  15
ENDBRANCH  11  16
TORSDOF 5
ENDMDL
MODEL 3
REMARK VINA RESULT:      -6.2      2.814      7.132
REMARK  Name = 11913137
REMARK  6 active torsions:
REMARK  status: ('A' for Active; 'I' for Inactive)
REMARK    1  A    between atoms: O_6  and  C_31
REMARK    2  A    between atoms: O_6  and  C_35
REMARK    3  A    between atoms: N_9  and  C_15
REMARK    4  A    between atoms: C_11  and  C_16
REMARK    5  A    between atoms: C_19  and  C_23
REMARK    6  A    between atoms: C_22  and  C_24
REMARK                            x       y       z     vdW  Elec       q    Type
REMARK                         _______ _______ _______ _____ _____    ______ ____
ROOT
ATOM      3  O   UNL     1      -6.467 -10.539  19.800  0.00  0.00    -0.270 OA
ATOM      5  O   UNL     1      -1.159 -11.423  15.245  0.00  0.00    -0.270 OA
ATOM      7  N   UNL     1      -5.601 -11.103  17.697  0.00  0.00    -0.283 N 
ATOM      8  N   UNL     1      -3.354 -11.778  15.960  0.00  0.00    -0.294 N 
ATOM     11  C   UNL     1      -5.823 -11.529  16.308  0.00  0.00    +0.179 C 
ATOM     12  C   UNL     1      -4.679 -12.383  15.757  0.00  0.00    +0.140 C 
ATOM     13  C   UNL     1      -4.227 -11.165  18.199  0.00  0.00    +0.128 C 
ATOM     14  C   UNL     1      -3.197 -10.894  17.113  0.00  0.00    +0.127 C 
ATOM     19  C   UNL     1      -6.620 -10.779  18.603  0.00  0.00    +0.247 C 
ATOM     22  C   UNL     1      -2.259 -11.956  15.105  0.00  0.00    +0.247 C 
ENDROOT
BRANCH  22  24
ATOM      1  F   UNL     1      -3.334 -12.688  10.432  0.00  0.00    -0.205 F 
ATOM     24  C   UNL     1      -2.417 -12.852  13.949  0.00  0.00    +0.040 A 
ATOM     27  C   UNL     1      -2.808 -12.335  12.714  0.00  0.00    +0.051 A 
ATOM     28  C   UNL     1      -2.174 -14.219  14.088  0.00  0.00    +0.013 A 
ATOM     32  C   UNL     1      -2.957 -13.185  11.617  0.00  0.00    +0.124 A 
ATOM     33  C   UNL     1      -2.322 -15.068  12.991  0.00  0.00    +0.004 A 
ATOM     34  C   UNL     1      -2.714 -14.551  11.756  0.00  0.00    +0.038 A 
ENDBRANCH  22  24
BRANCH  19  23
ATOM     23  C   UNL     1      -7.998 -10.718  18.099  0.00  0.00    +0.037 A 
ATOM     25  C   UNL     1      -8.591  -9.483  17.839  0.00  0.00    +0.016 A 
ATOM     26  C   UNL     1      -8.713 -11.895  17.881  0.00  0.00    +0.016 A 
ATOM     29  C   UNL     1      -9.899  -9.425  17.360  0.00  0.00    +0.046 A 
ATOM     30  C   UNL     1     -10.021 -11.837  17.401  0.00  0.00    +0.046 A 
ATOM     31  C   UNL     1     -10.615 -10.602  17.141  0.00  0.00    +0.120 A 
BRANCH  31   6
ATOM      6  O   UNL     1     -11.891 -10.546  16.671  0.00  0.00    -0.495 OA
ATOM     35  C   UNL     1     -12.623  -9.347  16.919  0.00  0.00    +0.277 C 
ENDBRANCH  31   6
ENDBRANCH  19  23
BRANCH  11  16
ATOM      2  O   UNL     1      -5.970  -9.172  15.949  0.00  0.00    -0.274 OA
ATOM      9  N   UNL     1      -6.207 -10.604  14.130  0.00  0.00    -0.302 N 
ATOM     16  C   UNL     1      -5.997 -10.300  15.464  0.00  0.00    +0.236 C 
ATOM     36  H   UNL     1      -6.181 -11.578  13.837  0.00  0.00    +0.150 HD
BRANCH   9  15
ATOM      4  O   UNL     1      -8.770 -10.152  13.292  0.00  0.00    -0.274 OA
ATOM     10  N   UNL     1      -8.036  -9.408  11.261  0.00  0.00    -0.314 N 
ATOM     15  C   UNL     1      -6.426  -9.605  13.118  0.00  0.00    +0.159 C 
ATOM     17  C   UNL     1      -5.333  -9.657  12.060  0.00  0.00    +0.033 C 
ATOM     18  C   UNL     1      -5.681  -8.715  10.919  0.00  0.00    +0.021 C 
ATOM     20  C   UNL     1      -6.988  -9.162  10.289  0.00  0.00    +0.104 C 
ATOM     21  C   UNL     1      -7.838  -9.787  12.573  0.00  0.00    +0.233 C 
ATOM     37  H   UNL     1      -8.985  -9.469  10.905  0.00  0.00    +0.149 HD
ENDBRANCH   9  15
ENDBRANCH  11  16
TORSDOF 5
ENDMDL
MODEL 4
REMARK VINA RESULT:      -6.1      2.678      4.839
REMARK  Name = 11913137
REMARK  6 active torsions:
REMARK  status: ('A' for Active; 'I' for Inactive)
REMARK    1  A    between atoms: O_6  and  C_31
REMARK    2  A    between atoms: O_6  and  C_35
REMARK    3  A    between atoms: N_9  and  C_15
REMARK    4  A    between atoms: C_11  and  C_16
REMARK    5  A    between atoms: C_19  and  C_23
REMARK    6  A    between atoms: C_22  and  C_24
REMARK                            x       y       z     vdW  Elec       q    Type
REMARK                         _______ _______ _______ _____ _____    ______ ____
ROOT
ATOM      3  O   UNL     1      -1.594 -10.434  14.139  0.00  0.00    -0.270 OA
ATOM      5  O   UNL     1      -6.455 -10.833  19.230  0.00  0.00    -0.270 OA
ATOM      7  N   UNL     1      -3.803 -10.625  14.898  0.00  0.00    -0.283 N 
ATOM      8  N   UNL     1      -5.796 -10.445  17.023  0.00  0.00    -0.294 N 
ATOM     11  C   UNL     1      -5.235 -10.778  14.604  0.00  0.00    +0.179 C 
ATOM     12  C   UNL     1      -6.132 -10.090  15.636  0.00  0.00    +0.140 C 
ATOM     13  C   UNL     1      -3.443 -10.247  16.266  0.00  0.00    +0.128 C 
ATOM     14  C   UNL     1      -4.407 -10.809  17.298  0.00  0.00    +0.127 C 
ATOM     19  C   UNL     1      -2.783 -10.679  13.938  0.00  0.00    +0.247 C 
ATOM     22  C   UNL     1      -6.718 -10.499  18.075  0.00  0.00    +0.247 C 
ENDROOT
BRANCH  22  24
ATOM      1  F   UNL     1     -10.076  -7.166  17.001  0.00  0.00    -0.205 F 
ATOM     24  C   UNL     1      -8.114 -10.125  17.797  0.00  0.00    +0.040 A 
ATOM     27  C   UNL     1      -8.439  -8.797  17.525  0.00  0.00    +0.051 A 
ATOM     28  C   UNL     1      -9.111 -11.101  17.806  0.00  0.00    +0.013 A 
ATOM     32  C   UNL     1      -9.763  -8.442  17.262  0.00  0.00    +0.124 A 
ATOM     33  C   UNL     1     -10.435 -10.746  17.542  0.00  0.00    +0.004 A 
ATOM     34  C   UNL     1     -10.760  -9.417  17.270  0.00  0.00    +0.038 A 
ENDBRANCH  22  24
BRANCH  19  23
ATOM     23  C   UNL     1      -3.145 -11.056  12.566  0.00  0.00    +0.037 A 
ATOM     25  C   UNL     1      -2.987 -12.375  12.141  0.00  0.00    +0.016 A 
ATOM     26  C   UNL     1      -3.647 -10.096  11.688  0.00  0.00    +0.016 A 
ATOM     29  C   UNL     1      -3.332 -12.735  10.839  0.00  0.00    +0.046 A 
ATOM     30  C   UNL     1      -3.992 -10.455  10.385  0.00  0.00    +0.046 A 
ATOM     31  C   UNL     1      -3.834 -11.774   9.960  0.00  0.00    +0.120 A 
BRANCH  31   6
ATOM      6  O   UNL     1      -4.173 -12.124   8.689  0.00  0.00    -0.495 OA
ATOM     35  C   UNL     1      -4.838 -11.140   7.899  0.00  0.00    +0.277 C 
ENDBRANCH  31   6
ENDBRANCH  19  23
BRANCH  11  16
ATOM      2  O   UNL     1      -6.567 -12.672  14.014  0.00  0.00    -0.274 OA
ATOM      9  N   UNL     1      -4.583 -13.011  15.183  0.00  0.00    -0.302 N 
ATOM     16  C   UNL     1      -5.547 -12.246  14.551  0.00  0.00    +0.236 C 
ATOM     36  H   UNL     1      -3.763 -12.550  15.569  0.00  0.00    +0.150 HD
BRANCH   9  15
ATOM      4  O   UNL     1      -5.834 -14.076  17.367  0.00  0.00    -0.274 OA
ATOM     10  N   UNL     1      -4.608 -15.996  17.206  0.00  0.00    -0.314 N 
ATOM     15  C   UNL     1      -4.660 -14.444  15.291  0.00  0.00    +0.159 C 
ATOM     17  C   UNL     1      -3.361 -15.093  14.832  0.00  0.00    +0.033 C 
ATOM     18  C   UNL     1      -3.406 -16.584  15.120  0.00  0.00    +0.021 C 
ATOM     20  C   UNL     1      -3.551 -16.796  16.616  0.00  0.00    +0.104 C 
ATOM     21  C   UNL     1      -5.062 -14.787  16.721  0.00  0.00    +0.233 C 
ATOM     37  H   UNL     1      -4.918 -16.262  18.136  0.00  0.00    +0.149 HD
ENDBRANCH   9  15
ENDBRANCH  11  16
TORSDOF 5
ENDMDL
MODEL 5
REMARK VINA RESULT:      -6.1      2.442      7.809
REMARK  Name = 11913137
REMARK  6 active torsions:
REMARK  status: ('A' for Active; 'I' for Inactive)
REMARK    1  A    between atoms: O_6  and  C_31
REMARK    2  A    between atoms: O_6  and  C_35
REMARK    3  A    between atoms: N_9  and  C_15
REMARK    4  A    between atoms: C_11  and  C_16
REMARK    5  A    between atoms: C_19  and  C_23
REMARK    6  A    between atoms: C_22  and  C_24
REMARK                            x       y       z     vdW  Elec       q    Type
REMARK                         _______ _______ _______ _____ _____    ______ ____
ROOT
ATOM      3  O   UNL     1     -10.921 -12.469  13.391  0.00  0.00    -0.270 OA
ATOM      5  O   UNL     1      -4.226 -13.650  11.524  0.00  0.00    -0.270 OA
ATOM      7  N   UNL     1      -8.680 -11.824  13.158  0.00  0.00    -0.283 N 
ATOM      8  N   UNL     1      -6.006 -12.238  12.062  0.00  0.00    -0.294 N 
ATOM     11  C   UNL     1      -7.627 -10.816  13.341  0.00  0.00    +0.179 C 
ATOM     12  C   UNL     1      -6.544 -10.883  12.260  0.00  0.00    +0.140 C 
ATOM     13  C   UNL     1      -8.366 -12.965  12.296  0.00  0.00    +0.128 C 
ATOM     14  C   UNL     1      -6.898 -13.357  12.360  0.00  0.00    +0.127 C 
ATOM     19  C   UNL     1      -9.993 -11.698  13.634  0.00  0.00    +0.247 C 
ATOM     22  C   UNL     1      -4.698 -12.521  11.655  0.00  0.00    +0.247 C 
ENDROOT
BRANCH  22  24
ATOM      1  F   UNL     1      -3.566  -8.611   9.015  0.00  0.00    -0.205 F 
ATOM     24  C   UNL     1      -3.804 -11.393  11.348  0.00  0.00    +0.040 A 
ATOM     27  C   UNL     1      -4.115 -10.519  10.307  0.00  0.00    +0.051 A 
ATOM     28  C   UNL     1      -2.645 -11.198  12.100  0.00  0.00    +0.013 A 
ATOM     32  C   UNL     1      -3.268  -9.450  10.016  0.00  0.00    +0.124 A 
ATOM     33  C   UNL     1      -1.799 -10.128  11.810  0.00  0.00    +0.004 A 
ATOM     34  C   UNL     1      -2.110  -9.254  10.768  0.00  0.00    +0.038 A 
ENDBRANCH  22  24
BRANCH  19  23
ATOM     23  C   UNL     1     -10.308 -10.554  14.498  0.00  0.00    +0.037 A 
ATOM     25  C   UNL     1     -10.290 -10.701  15.884  0.00  0.00    +0.016 A 
ATOM     26  C   UNL     1     -10.624  -9.319  13.931  0.00  0.00    +0.016 A 
ATOM     29  C   UNL     1     -10.587  -9.614  16.705  0.00  0.00    +0.046 A 
ATOM     30  C   UNL     1     -10.922  -8.232  14.752  0.00  0.00    +0.046 A 
ATOM     31  C   UNL     1     -10.904  -8.379  16.139  0.00  0.00    +0.120 A 
BRANCH  31   6
ATOM      6  O   UNL     1     -11.193  -7.316  16.939  0.00  0.00    -0.495 OA
ATOM     35  C   UNL     1     -11.286  -6.037  16.314  0.00  0.00    +0.277 C 
ENDBRANCH  31   6
ENDBRANCH  19  23
BRANCH  11  16
ATOM      2  O   UNL     1      -7.115 -12.087  15.298  0.00  0.00    -0.274 OA
ATOM      9  N   UNL     1      -6.363  -9.889  15.155  0.00  0.00    -0.302 N 
ATOM     16  C   UNL     1      -7.011 -11.022  14.695  0.00  0.00    +0.236 C 
ATOM     36  H   UNL     1      -6.317  -9.070  14.554  0.00  0.00    +0.150 HD
BRANCH   9  15
ATOM      4  O   UNL     1      -3.724 -10.584  15.301  0.00  0.00    -0.274 OA
ATOM     10  N   UNL     1      -3.936 -11.159  17.501  0.00  0.00    -0.314 N 
ATOM     15  C   UNL     1      -5.711  -9.819  16.436  0.00  0.00    +0.159 C 
ATOM     17  C   UNL     1      -6.635 -10.309  17.542  0.00  0.00    +0.033 C 
ATOM     18  C   UNL     1      -5.866 -10.389  18.851  0.00  0.00    +0.021 C 
ATOM     20  C   UNL     1      -4.727 -11.380  18.697  0.00  0.00    +0.104 C 
ATOM     21  C   UNL     1      -4.393 -10.579  16.335  0.00  0.00    +0.233 C 
ATOM     37  H   UNL     1      -3.031 -11.618  17.460  0.00  0.00    +0.149 HD
ENDBRANCH   9  15
ENDBRANCH  11  16
TORSDOF 5
ENDMDL
MODEL 6
REMARK VINA RESULT:      -6.1     29.658     32.553
REMARK  Name = 11913137
REMARK  6 active torsions:
REMARK  status: ('A' for Active; 'I' for Inactive)
REMARK    1  A    between atoms: O_6  and  C_31
REMARK    2  A    between atoms: O_6  and  C_35
REMARK    3  A    between atoms: N_9  and  C_15
REMARK    4  A    between atoms: C_11  and  C_16
REMARK    5  A    between atoms: C_19  and  C_23
REMARK    6  A    between atoms: C_22  and  C_24
REMARK                            x       y       z     vdW  Elec       q    Type
REMARK                         _______ _______ _______ _____ _____    ______ ____
ROOT
ATOM      3  O   UNL     1      11.099  13.081  21.240  0.00  0.00    -0.270 OA
ATOM      5  O   UNL     1      17.725  14.978  22.723  0.00  0.00    -0.270 OA
ATOM      7  N   UNL     1      13.227  12.683  22.135  0.00  0.00    -0.283 N 
ATOM      8  N   UNL     1      15.841  13.633  23.025  0.00  0.00    -0.294 N 
ATOM     11  C   UNL     1      14.170  11.777  22.807  0.00  0.00    +0.179 C 
ATOM     12  C   UNL     1      15.168  12.515  23.704  0.00  0.00    +0.140 C 
ATOM     13  C   UNL     1      13.604  14.096  22.059  0.00  0.00    +0.128 C 
ATOM     14  C   UNL     1      15.107  14.293  21.946  0.00  0.00    +0.127 C 
ATOM     19  C   UNL     1      11.949  12.316  21.694  0.00  0.00    +0.247 C 
ATOM     22  C   UNL     1      17.139  14.071  23.311  0.00  0.00    +0.247 C 
ENDROOT
BRANCH  22  24
ATOM      1  F   UNL     1      20.168  10.632  24.902  0.00  0.00    -0.205 F 
ATOM     24  C   UNL     1      17.872  13.410  24.402  0.00  0.00    +0.040 A 
ATOM     27  C   UNL     1      18.689  12.313  24.129  0.00  0.00    +0.051 A 
ATOM     28  C   UNL     1      17.751  13.882  25.709  0.00  0.00    +0.013 A 
ATOM     32  C   UNL     1      19.385  11.686  25.164  0.00  0.00    +0.124 A 
ATOM     33  C   UNL     1      18.448  13.256  26.743  0.00  0.00    +0.004 A 
ATOM     34  C   UNL     1      19.264  12.158  26.470  0.00  0.00    +0.038 A 
ENDBRANCH  22  24
BRANCH  19  23
ATOM     23  C   UNL     1      11.571  10.899  21.772  0.00  0.00    +0.037 A 
ATOM     25  C   UNL     1      11.066  10.377  22.962  0.00  0.00    +0.016 A 
ATOM     26  C   UNL     1      11.717  10.076  20.655  0.00  0.00    +0.016 A 
ATOM     29  C   UNL     1      10.706   9.032  23.036  0.00  0.00    +0.046 A 
ATOM     30  C   UNL     1      11.356   8.731  20.729  0.00  0.00    +0.046 A 
ATOM     31  C   UNL     1      10.851   8.209  21.919  0.00  0.00    +0.120 A 
BRANCH  31   6
ATOM      6  O   UNL     1      10.498   6.896  21.991  0.00  0.00    -0.495 OA
ATOM     35  C   UNL     1      11.355   5.956  21.345  0.00  0.00    +0.277 C 
ENDBRANCH  31   6
ENDBRANCH  19  23
BRANCH  11  16
ATOM      2  O   UNL     1      14.870  11.324  20.569  0.00  0.00    -0.274 OA
ATOM      9  N   UNL     1      15.574   9.908  22.277  0.00  0.00    -0.302 N 
ATOM     16  C   UNL     1      14.905  11.001  21.753  0.00  0.00    +0.236 C 
ATOM     36  H   UNL     1      15.555   9.755  23.282  0.00  0.00    +0.150 HD
BRANCH   9  15
ATOM      4  O   UNL     1      14.513   7.438  21.785  0.00  0.00    -0.274 OA
ATOM     10  N   UNL     1      16.593   6.537  21.499  0.00  0.00    -0.314 N 
ATOM     15  C   UNL     1      16.335   8.989  21.472  0.00  0.00    +0.159 C 
ATOM     17  C   UNL     1      17.817   9.070  21.812  0.00  0.00    +0.033 C 
ATOM     18  C   UNL     1      18.569   7.972  21.077  0.00  0.00    +0.021 C 
ATOM     20  C   UNL     1      18.041   6.622  21.527  0.00  0.00    +0.104 C 
ATOM     21  C   UNL     1      15.726   7.602  21.639  0.00  0.00    +0.233 C 
ATOM     37  H   UNL     1      16.188   5.607  21.550  0.00  0.00    +0.149 HD
ENDBRANCH   9  15
ENDBRANCH  11  16
TORSDOF 5
ENDMDL
MODEL 7
REMARK VINA RESULT:      -6.0      1.857      2.027
REMARK  Name = 11913137
REMARK  6 active torsions:
REMARK  status: ('A' for Active; 'I' for Inactive)
REMARK    1  A    between atoms: O_6  and  C_31
REMARK    2  A    between atoms: O_6  and  C_35
REMARK    3  A    between atoms: N_9  and  C_15
REMARK    4  A    between atoms: C_11  and  C_16
REMARK    5  A    between atoms: C_19  and  C_23
REMARK    6  A    between atoms: C_22  and  C_24
REMARK                            x       y       z     vdW  Elec       q    Type
REMARK                         _______ _______ _______ _____ _____    ______ ____
ROOT
ATOM      3  O   UNL     1      -6.234 -13.138  18.158  0.00  0.00    -0.270 OA
ATOM      5  O   UNL     1     -12.491 -10.478  16.296  0.00  0.00    -0.270 OA
ATOM      7  N   UNL     1      -7.586 -11.590  17.033  0.00  0.00    -0.283 N 
ATOM      8  N   UNL     1     -10.177 -10.328  16.569  0.00  0.00    -0.294 N 
ATOM     11  C   UNL     1      -7.709 -10.427  16.143  0.00  0.00    +0.179 C 
ATOM     12  C   UNL     1      -8.928  -9.558  16.463  0.00  0.00    +0.140 C 
ATOM     13  C   UNL     1      -8.785 -11.992  17.771  0.00  0.00    +0.128 C 
ATOM     14  C   UNL     1     -10.064 -11.722  16.995  0.00  0.00    +0.127 C 
ATOM     19  C   UNL     1      -6.381 -12.244  17.325  0.00  0.00    +0.247 C 
ATOM     22  C   UNL     1     -11.446  -9.831  16.249  0.00  0.00    +0.247 C 
ENDROOT
BRANCH  22  24
ATOM      1  F   UNL     1     -12.309  -6.489  12.841  0.00  0.00    -0.205 F 
ATOM     24  C   UNL     1     -11.558  -8.426  15.828  0.00  0.00    +0.040 A 
ATOM     27  C   UNL     1     -11.887  -8.117  14.508  0.00  0.00    +0.051 A 
ATOM     28  C   UNL     1     -11.336  -7.402  16.749  0.00  0.00    +0.013 A 
ATOM     32  C   UNL     1     -11.994  -6.785  14.108  0.00  0.00    +0.124 A 
ATOM     33  C   UNL     1     -11.443  -6.070  16.350  0.00  0.00    +0.004 A 
ATOM     34  C   UNL     1     -11.772  -5.762  15.029  0.00  0.00    +0.038 A 
ENDBRANCH  22  24
BRANCH  19  23
ATOM     23  C   UNL     1      -5.179 -11.840  16.586  0.00  0.00    +0.037 A 
ATOM     25  C   UNL     1      -4.448 -10.726  16.998  0.00  0.00    +0.016 A 
ATOM     26  C   UNL     1      -4.766 -12.571  15.472  0.00  0.00    +0.016 A 
ATOM     29  C   UNL     1      -3.305 -10.343  16.298  0.00  0.00    +0.046 A 
ATOM     30  C   UNL     1      -3.623 -12.188  14.771  0.00  0.00    +0.046 A 
ATOM     31  C   UNL     1      -2.893 -11.074  15.184  0.00  0.00    +0.120 A 
BRANCH  31   6
ATOM      6  O   UNL     1      -1.776 -10.702  14.500  0.00  0.00    -0.495 OA
ATOM     35  C   UNL     1      -1.910 -10.505  13.093  0.00  0.00    +0.277 C 
ENDBRANCH  31   6
ENDBRANCH  19  23
BRANCH  11  16
ATOM      2  O   UNL     1      -7.985 -12.113  14.472  0.00  0.00    -0.274 OA
ATOM      9  N   UNL     1      -7.612  -9.916  13.803  0.00  0.00    -0.302 N 
ATOM     16  C   UNL     1      -7.794 -10.927  14.729  0.00  0.00    +0.236 C 
ATOM     36  H   UNL     1      -7.489  -8.962  14.133  0.00  0.00    +0.150 HD
BRANCH   9  15
ATOM      4  O   UNL     1      -5.283  -9.552  12.418  0.00  0.00    -0.274 OA
ATOM     10  N   UNL     1      -6.429  -9.083  10.499  0.00  0.00    -0.314 N 
ATOM     15  C   UNL     1      -7.624 -10.137  12.381  0.00  0.00    +0.159 C 
ATOM     17  C   UNL     1      -8.908  -9.604  11.760  0.00  0.00    +0.033 C 
ATOM     18  C   UNL     1      -8.818  -9.692  10.246  0.00  0.00    +0.021 C 
ATOM     20  C   UNL     1      -7.658  -8.839   9.767  0.00  0.00    +0.104 C 
ATOM     21  C   UNL     1      -6.349  -9.536  11.800  0.00  0.00    +0.233 C 
ATOM     37  H   UNL     1      -5.571  -8.735  10.081  0.00  0.00    +0.149 HD
ENDBRANCH   9  15
ENDBRANCH  11  16
TORSDOF 5
ENDMDL
MODEL 8
REMARK VINA RESULT:      -5.9     25.905     29.548
REMARK  Name = 11913137
REMARK  6 active torsions:
REMARK  status: ('A' for Active; 'I' for Inactive)
REMARK    1  A    between atoms: O_6  and  C_31
REMARK    2  A    between atoms: O_6  and  C_35
REMARK    3  A    between atoms: N_9  and  C_15
REMARK    4  A    between atoms: C_11  and  C_16
REMARK    5  A    between atoms: C_19  and  C_23
REMARK    6  A    between atoms: C_22  and  C_24
REMARK                            x       y       z     vdW  Elec       q    Type
REMARK                         _______ _______ _______ _____ _____    ______ ____
ROOT
ATOM      3  O   UNL     1       7.925   7.355   7.324  0.00  0.00    -0.270 OA
ATOM      5  O   UNL     1      11.439   3.270   2.777  0.00  0.00    -0.270 OA
ATOM      7  N   UNL     1       9.543   6.999   5.667  0.00  0.00    -0.283 N 
ATOM      8  N   UNL     1      10.728   5.349   3.570  0.00  0.00    -0.294 N 
ATOM     11  C   UNL     1      10.619   7.522   4.813  0.00  0.00    +0.179 C 
ATOM     12  C   UNL     1      10.702   6.815   3.458  0.00  0.00    +0.140 C 
ATOM     13  C   UNL     1       9.009   5.678   5.327  0.00  0.00    +0.128 C 
ATOM     14  C   UNL     1      10.064   4.759   4.731  0.00  0.00    +0.127 C 
ATOM     19  C   UNL     1       8.906   7.727   6.681  0.00  0.00    +0.247 C 
ATOM     22  C   UNL     1      11.378   4.495   2.671  0.00  0.00    +0.247 C 
ENDROOT
BRANCH  22  24
ATOM      1  F   UNL     1      15.263   6.493   0.563  0.00  0.00    -0.205 F 
ATOM     24  C   UNL     1      12.039   5.089   1.500  0.00  0.00    +0.040 A 
ATOM     27  C   UNL     1      13.364   5.517   1.588  0.00  0.00    +0.051 A 
ATOM     28  C   UNL     1      11.341   5.224   0.299  0.00  0.00    +0.013 A 
ATOM     32  C   UNL     1      13.991   6.082   0.477  0.00  0.00    +0.124 A 
ATOM     33  C   UNL     1      11.969   5.787  -0.812  0.00  0.00    +0.004 A 
ATOM     34  C   UNL     1      13.294   6.216  -0.723  0.00  0.00    +0.038 A 
ENDBRANCH  22  24
BRANCH  19  23
ATOM     23  C   UNL     1       9.441   9.051   7.020  0.00  0.00    +0.037 A 
ATOM     25  C   UNL     1       9.243  10.126   6.153  0.00  0.00    +0.016 A 
ATOM     26  C   UNL     1      10.145   9.236   8.210  0.00  0.00    +0.016 A 
ATOM     29  C   UNL     1       9.749  11.384   6.475  0.00  0.00    +0.046 A 
ATOM     30  C   UNL     1      10.651  10.495   8.532  0.00  0.00    +0.046 A 
ATOM     31  C   UNL     1      10.454  11.569   7.665  0.00  0.00    +0.120 A 
BRANCH  31   6
ATOM      6  O   UNL     1      10.946  12.798   7.981  0.00  0.00    -0.495 OA
ATOM     35  C   UNL     1      12.168  12.839   8.718  0.00  0.00    +0.277 C 
ENDBRANCH  31   6
ENDBRANCH  19  23
BRANCH  11  16
ATOM      2  O   UNL     1      12.005   6.691   6.573  0.00  0.00    -0.274 OA
ATOM      9  N   UNL     1      12.945   8.082   4.961  0.00  0.00    -0.302 N 
ATOM     16  C   UNL     1      11.917   7.368   5.551  0.00  0.00    +0.236 C 
ATOM     36  H   UNL     1      12.761   8.587   4.097  0.00  0.00    +0.150 HD
BRANCH   9  15
ATOM      4  O   UNL     1      13.526   9.935   6.885  0.00  0.00    -0.274 OA
ATOM     10  N   UNL     1      15.731   9.948   6.290  0.00  0.00    -0.314 N 
ATOM     15  C   UNL     1      14.284   8.119   5.487  0.00  0.00    +0.159 C 
ATOM     17  C   UNL     1      15.307   7.901   4.381  0.00  0.00    +0.033 C 
ATOM     18  C   UNL     1      16.707   8.119   4.932  0.00  0.00    +0.021 C 
ATOM     20  C   UNL     1      16.828   9.548   5.429  0.00  0.00    +0.104 C 
ATOM     21  C   UNL     1      14.453   9.428   6.251  0.00  0.00    +0.233 C 
ATOM     37  H   UNL     1      15.867  10.787   6.845  0.00  0.00    +0.149 HD
ENDBRANCH   9  15
ENDBRANCH  11  16
TORSDOF 5
ENDMDL
MODEL 9
REMARK VINA RESULT:      -5.9     26.682     29.230
REMARK  Name = 11913137
REMARK  6 active torsions:
REMARK  status: ('A' for Active; 'I' for Inactive)
REMARK    1  A    between atoms: O_6  and  C_31
REMARK    2  A    between atoms: O_6  and  C_35
REMARK    3  A    between atoms: N_9  and  C_15
REMARK    4  A    between atoms: C_11  and  C_16
REMARK    5  A    between atoms: C_19  and  C_23
REMARK    6  A    between atoms: C_22  and  C_24
REMARK                            x       y       z     vdW  Elec       q    Type
REMARK                         _______ _______ _______ _____ _____    ______ ____
ROOT
ATOM      3  O   UNL     1      16.818  -9.105  28.970  0.00  0.00    -0.270 OA
ATOM      5  O   UNL     1      20.762  -4.773  25.049  0.00  0.00    -0.270 OA
ATOM      7  N   UNL     1      17.332  -7.007  28.064  0.00  0.00    -0.283 N 
ATOM      8  N   UNL     1      18.790  -5.334  26.167  0.00  0.00    -0.294 N 
ATOM     11  C   UNL     1      17.033  -5.574  27.938  0.00  0.00    +0.179 C 
ATOM     12  C   UNL     1      17.415  -5.003  26.569  0.00  0.00    +0.140 C 
ATOM     13  C   UNL     1      18.287  -7.572  27.109  0.00  0.00    +0.128 C 
ATOM     14  C   UNL     1      19.357  -6.574  26.694  0.00  0.00    +0.127 C 
ATOM     19  C   UNL     1      16.670  -7.885  28.933  0.00  0.00    +0.247 C 
ATOM     22  C   UNL     1      19.598  -4.525  25.359  0.00  0.00    +0.247 C 
ENDROOT
BRANCH  22  24
ATOM      1  F   UNL     1      17.398  -2.063  21.805  0.00  0.00    -0.205 F 
ATOM     24  C   UNL     1      19.023  -3.281  24.824  0.00  0.00    +0.040 A 
ATOM     27  C   UNL     1      18.472  -3.261  23.542  0.00  0.00    +0.051 A 
ATOM     28  C   UNL     1      19.030  -2.121  25.598  0.00  0.00    +0.013 A 
ATOM     32  C   UNL     1      17.927  -2.081  23.035  0.00  0.00    +0.124 A 
ATOM     33  C   UNL     1      18.484  -0.941  25.091  0.00  0.00    +0.004 A 
ATOM     34  C   UNL     1      17.933  -0.922  23.809  0.00  0.00    +0.038 A 
ENDBRANCH  22  24
BRANCH  19  23
ATOM     23  C   UNL     1      15.712  -7.317  29.890  0.00  0.00    +0.037 A 
ATOM     25  C   UNL     1      16.095  -7.092  31.211  0.00  0.00    +0.016 A 
ATOM     26  C   UNL     1      14.417  -7.003  29.476  0.00  0.00    +0.016 A 
ATOM     29  C   UNL     1      15.186  -6.552  32.120  0.00  0.00    +0.046 A 
ATOM     30  C   UNL     1      13.507  -6.463  30.384  0.00  0.00    +0.046 A 
ATOM     31  C   UNL     1      13.891  -6.238  31.706  0.00  0.00    +0.120 A 
BRANCH  31   6
ATOM      6  O   UNL     1      13.003  -5.709  32.592  0.00  0.00    -0.495 OA
ATOM     35  C   UNL     1      12.055  -4.772  32.081  0.00  0.00    +0.277 C 
ENDBRANCH  31   6
ENDBRANCH  19  23
BRANCH  11  16
ATOM      2  O   UNL     1      18.832  -5.267  29.480  0.00  0.00    -0.274 OA
ATOM      9  N   UNL     1      17.115  -3.696  29.426  0.00  0.00    -0.302 N 
ATOM     16  C   UNL     1      17.774  -4.844  29.021  0.00  0.00    +0.236 C 
ATOM     36  H   UNL     1      16.256  -3.428  28.953  0.00  0.00    +0.150 HD
BRANCH   9  15
ATOM      4  O   UNL     1      15.419  -3.042  31.468  0.00  0.00    -0.274 OA
ATOM     10  N   UNL     1      16.543  -1.091  31.854  0.00  0.00    -0.314 N 
ATOM     15  C   UNL     1      17.605  -2.831  30.467  0.00  0.00    +0.159 C 
ATOM     17  C   UNL     1      18.477  -1.726  29.888  0.00  0.00    +0.033 C 
ATOM     18  C   UNL     1      18.834  -0.732  30.981  0.00  0.00    +0.021 C 
ATOM     20  C   UNL     1      17.560  -0.111  31.523  0.00  0.00    +0.104 C 
ATOM     21  C   UNL     1      16.407  -2.333  31.268  0.00  0.00    +0.233 C 
ATOM     37  H   UNL     1      15.775  -0.774  32.438  0.00  0.00    +0.149 HD
ENDBRANCH   9  15
ENDBRANCH  11  16
TORSDOF 5
ENDMDL
MODEL 10
REMARK VINA RESULT:      -5.8     28.870     30.722
REMARK  Name = 11913137
REMARK  6 active torsions:
REMARK  status: ('A' for Active; 'I' for Inactive)
REMARK    1  A    between atoms: O_6  and  C_31
REMARK    2  A    between atoms: O_6  and  C_35
REMARK    3  A    between atoms: N_9  and  C_15
REMARK    4  A    between atoms: C_11  and  C_16
REMARK    5  A    between atoms: C_19  and  C_23
REMARK    6  A    between atoms: C_22  and  C_24
REMARK                            x       y       z     vdW  Elec       q    Type
REMARK                         _______ _______ _______ _____ _____    ______ ____
ROOT
ATOM      3  O   UNL     1       0.043  10.702  36.947  0.00  0.00    -0.270 OA
ATOM      5  O   UNL     1      -6.564  13.112  36.451  0.00  0.00    -0.270 OA
ATOM      7  N   UNL     1      -2.282  10.449  37.095  0.00  0.00    -0.283 N 
ATOM      8  N   UNL     1      -4.991  11.388  36.548  0.00  0.00    -0.294 N 
ATOM     11  C   UNL     1      -3.447   9.608  37.402  0.00  0.00    +0.179 C 
ATOM     12  C   UNL     1      -4.672   9.953  36.550  0.00  0.00    +0.140 C 
ATOM     13  C   UNL     1      -2.537  11.704  36.385  0.00  0.00    +0.128 C 
ATOM     14  C   UNL     1      -3.880  12.316  36.750  0.00  0.00    +0.127 C 
ATOM     19  C   UNL     1      -0.949  10.069  37.307  0.00  0.00    +0.247 C 
ATOM     22  C   UNL     1      -6.281  11.915  36.413  0.00  0.00    +0.247 C 
ENDROOT
BRANCH  22  24
ATOM      1  F   UNL     1      -9.352   9.578  33.474  0.00  0.00    -0.205 F 
ATOM     24  C   UNL     1      -7.397  10.979  36.204  0.00  0.00    +0.040 A 
ATOM     27  C   UNL     1      -7.854  10.717  34.912  0.00  0.00    +0.051 A 
ATOM     28  C   UNL     1      -7.998  10.354  37.297  0.00  0.00    +0.013 A 
ATOM     32  C   UNL     1      -8.913   9.830  34.714  0.00  0.00    +0.124 A 
ATOM     33  C   UNL     1      -9.055   9.466  37.098  0.00  0.00    +0.004 A 
ATOM     34  C   UNL     1      -9.512   9.205  35.806  0.00  0.00    +0.038 A 
ENDBRANCH  22  24
BRANCH  19  23
ATOM     23  C   UNL     1      -0.694   8.810  38.016  0.00  0.00    +0.037 A 
ATOM     25  C   UNL     1      -0.351   8.828  39.368  0.00  0.00    +0.016 A 
ATOM     26  C   UNL     1      -0.795   7.595  37.339  0.00  0.00    +0.016 A 
ATOM     29  C   UNL     1      -0.110   7.632  40.043  0.00  0.00    +0.046 A 
ATOM     30  C   UNL     1      -0.553   6.399  38.014  0.00  0.00    +0.046 A 
ATOM     31  C   UNL     1      -0.211   6.417  39.365  0.00  0.00    +0.120 A 
BRANCH  31   6
ATOM      6  O   UNL     1       0.022   5.249  40.024  0.00  0.00    -0.495 OA
ATOM     35  C   UNL     1       1.338   4.703  39.934  0.00  0.00    +0.277 C 
ENDBRANCH  31   6
ENDBRANCH  19  23
BRANCH  11  16
ATOM      2  O   UNL     1      -3.324  10.707  39.520  0.00  0.00    -0.274 OA
ATOM      9  N   UNL     1      -4.593   8.765  39.332  0.00  0.00    -0.302 N 
ATOM     16  C   UNL     1      -3.774   9.775  38.858  0.00  0.00    +0.236 C 
ATOM     36  H   UNL     1      -4.929   8.058  38.682  0.00  0.00    +0.150 HD
BRANCH   9  15
ATOM      4  O   UNL     1      -3.387   6.937  40.967  0.00  0.00    -0.274 OA
ATOM     10  N   UNL     1      -5.242   6.813  42.294  0.00  0.00    -0.314 N 
ATOM     15  C   UNL     1      -5.032   8.683  40.700  0.00  0.00    +0.159 C 
ATOM     17  C   UNL     1      -6.545   8.828  40.793  0.00  0.00    +0.033 C 
ATOM     18  C   UNL     1      -6.995   8.563  42.221  0.00  0.00    +0.021 C 
ATOM     20  C   UNL     1      -6.620   7.143  42.603  0.00  0.00    +0.104 C 
ATOM     21  C   UNL     1      -4.487   7.387  41.291  0.00  0.00    +0.233 C 
ATOM     37  H   UNL     1      -4.860   5.982  42.736  0.00  0.00    +0.149 HD
ENDBRANCH   9  15
ENDBRANCH  11  16
TORSDOF 5
ENDMDL
