MODEL 1
REMARK VINA RESULT:      -8.1      0.000      0.000
REMARK  Name = 45361388
REMARK  12 active torsions:
REMARK  status: ('A' for Active; 'I' for Inactive)
REMARK    1  A    between atoms: O_1  and  C_11
REMARK    2  A    between atoms: O_4  and  C_31
REMARK    3  A    between atoms: O_4  and  C_36
REMARK    4  A    between atoms: N_5  and  C_15
REMARK    5  A    between atoms: N_6  and  C_25
REMARK    6  A    between atoms: C_8  and  C_18
REMARK    7  A    between atoms: C_10  and  C_20
REMARK    8  A    between atoms: C_14  and  C_19
REMARK    9  A    between atoms: C_19  and  C_21
REMARK   10  A    between atoms: C_19  and  C_22
REMARK   11  A    between atoms: C_23  and  C_24
REMARK   12  A    between atoms: C_25  and  C_28
REMARK                            x       y       z     vdW  Elec       q    Type
REMARK                         _______ _______ _______ _____ _____    ______ ____
ROOT
ATOM      8  C   UNL     1     -16.950   5.944  22.434  0.00  0.00    -0.027 C 
ATOM      9  C   UNL     1     -15.464   5.684  22.848  0.00  0.00    +0.028 C 
ATOM     10  C   UNL     1     -14.507   5.819  21.610  0.00  0.00    +0.012 C 
ATOM     11  C   UNL     1     -15.328   4.363  23.659  0.00  0.00    +0.122 C 
ATOM     12  C   UNL     1     -17.850   5.915  23.692  0.00  0.00    +0.007 C 
ATOM     13  C   UNL     1     -17.061   7.353  21.807  0.00  0.00    +0.009 C 
ATOM     14  C   UNL     1     -16.304   4.296  24.856  0.00  0.00    +0.029 C 
ATOM     15  C   UNL     1     -14.681   7.213  20.944  0.00  0.00    +0.076 C 
ATOM     16  C   UNL     1     -17.748   4.608  24.465  0.00  0.00    +0.007 C 
ATOM     17  C   UNL     1     -16.134   7.552  20.617  0.00  0.00    +0.023 C 
ATOM     18  C   UNL     1     -17.477   4.894  21.422  0.00  0.00    +0.011 C 
ATOM     20  C   UNL     1     -13.023   5.605  21.954  0.00  0.00    +0.010 C 
ENDROOT
BRANCH  15   5
ATOM      3  O   UNL     1     -13.148   9.491  20.105  0.00  0.00    -0.270 OA
ATOM      5  N   UNL     1     -13.898   7.329  19.732  0.00  0.00    -0.308 N 
ATOM     23  C   UNL     1     -13.190   8.476  19.414  0.00  0.00    +0.244 C 
ATOM     37  H   UNL     1     -13.980   6.574  19.060  0.00  0.00    +0.149 HD
BRANCH  23  24
ATOM     24  C   UNL     1     -12.459   8.446  18.122  0.00  0.00    +0.037 A 
ATOM     26  C   UNL     1     -11.085   8.205  18.104  0.00  0.00    +0.016 A 
ATOM     27  C   UNL     1     -13.146   8.661  16.927  0.00  0.00    +0.016 A 
ATOM     29  C   UNL     1     -10.398   8.181  16.890  0.00  0.00    +0.046 A 
ATOM     30  C   UNL     1     -12.459   8.636  15.713  0.00  0.00    +0.046 A 
ATOM     31  C   UNL     1     -11.085   8.396  15.695  0.00  0.00    +0.120 A 
BRANCH  31   4
ATOM      4  O   UNL     1     -10.414   8.371  14.510  0.00  0.00    -0.495 OA
ATOM     36  C   UNL     1     -10.519   7.181  13.730  0.00  0.00    +0.277 C 
ENDBRANCH  31   4
ENDBRANCH  23  24
ENDBRANCH  15   5
BRANCH  11   1
ATOM      1  O   UNL     1     -14.009   4.271  24.201  0.00  0.00    -0.391 OA
ATOM     38  H   UNL     1     -13.895   3.378  24.569  0.00  0.00    +0.210 HD
ENDBRANCH  11   1
BRANCH  14  19
ATOM     19  C   UNL     1     -16.245   2.936  25.562  0.00  0.00    +0.077 C 
ATOM     21  C   UNL     1     -17.265   1.982  24.949  0.00  0.00    +0.017 C 
BRANCH  19  22
ATOM      2  O   UNL     1     -17.609   3.136  27.555  0.00  0.00    -0.276 OA
ATOM      6  N   UNL     1     -15.302   3.255  27.772  0.00  0.00    -0.311 N 
ATOM     22  C   UNL     1     -16.483   3.117  27.058  0.00  0.00    +0.216 C 
ATOM     39  H   UNL     1     -14.410   3.174  27.295  0.00  0.00    +0.149 HD
BRANCH   6  25
ATOM     25  C   UNL     1     -15.271   3.439  29.204  0.00  0.00    +0.141 C 
BRANCH  25  28
ATOM      7  N   UNL     1     -15.164  -0.281  29.866  0.00  0.00    -0.263 NA
ATOM     28  C   UNL     1     -15.150   2.134  29.937  0.00  0.00    -0.012 A 
ATOM     32  C   UNL     1     -14.923   2.100  31.308  0.00  0.00    +0.008 A 
ATOM     33  C   UNL     1     -15.261   0.926  29.268  0.00  0.00    +0.115 A 
ATOM     34  C   UNL     1     -14.816   0.877  31.960  0.00  0.00    +0.020 A 
ATOM     35  C   UNL     1     -14.944  -0.275  31.200  0.00  0.00    +0.111 A 
ENDBRANCH  25  28
ENDBRANCH   6  25
ENDBRANCH  19  22
ENDBRANCH  14  19
TORSDOF 8
ENDMDL
MODEL 2
REMARK VINA RESULT:      -7.7      1.991      2.434
REMARK  Name = 45361388
REMARK  12 active torsions:
REMARK  status: ('A' for Active; 'I' for Inactive)
REMARK    1  A    between atoms: O_1  and  C_11
REMARK    2  A    between atoms: O_4  and  C_31
REMARK    3  A    between atoms: O_4  and  C_36
REMARK    4  A    between atoms: N_5  and  C_15
REMARK    5  A    between atoms: N_6  and  C_25
REMARK    6  A    between atoms: C_8  and  C_18
REMARK    7  A    between atoms: C_10  and  C_20
REMARK    8  A    between atoms: C_14  and  C_19
REMARK    9  A    between atoms: C_19  and  C_21
REMARK   10  A    between atoms: C_19  and  C_22
REMARK   11  A    between atoms: C_23  and  C_24
REMARK   12  A    between atoms: C_25  and  C_28
REMARK                            x       y       z     vdW  Elec       q    Type
REMARK                         _______ _______ _______ _____ _____    ______ ____
ROOT
ATOM      8  C   UNL     1     -17.887   4.642  22.528  0.00  0.00    -0.027 C 
ATOM      9  C   UNL     1     -16.558   4.397  23.317  0.00  0.00    +0.028 C 
ATOM     10  C   UNL     1     -15.320   4.912  22.500  0.00  0.00    +0.012 C 
ATOM     11  C   UNL     1     -16.464   2.927  23.819  0.00  0.00    +0.122 C 
ATOM     12  C   UNL     1     -19.092   4.228  23.404  0.00  0.00    +0.007 C 
ATOM     13  C   UNL     1     -18.022   6.152  22.223  0.00  0.00    +0.009 C 
ATOM     14  C   UNL     1     -17.720   2.486  24.608  0.00  0.00    +0.029 C 
ATOM     15  C   UNL     1     -15.501   6.412  22.136  0.00  0.00    +0.076 C 
ATOM     16  C   UNL     1     -19.022   2.778  23.865  0.00  0.00    +0.007 C 
ATOM     17  C   UNL     1     -16.835   6.715  21.455  0.00  0.00    +0.023 C 
ATOM     18  C   UNL     1     -17.943   3.847  21.198  0.00  0.00    +0.011 C 
ATOM     20  C   UNL     1     -13.980   4.729  23.233  0.00  0.00    +0.010 C 
ENDROOT
BRANCH  15   5
ATOM      3  O   UNL     1     -13.872   8.736  22.570  0.00  0.00    -0.270 OA
ATOM      5  N   UNL     1     -14.433   6.890  21.284  0.00  0.00    -0.308 N 
ATOM     23  C   UNL     1     -13.701   8.028  21.581  0.00  0.00    +0.244 C 
ATOM     37  H   UNL     1     -14.313   6.421  20.392  0.00  0.00    +0.149 HD
BRANCH  23  24
ATOM     24  C   UNL     1     -12.657   8.400  20.593  0.00  0.00    +0.037 A 
ATOM     26  C   UNL     1     -12.202   7.457  19.671  0.00  0.00    +0.016 A 
ATOM     27  C   UNL     1     -12.131   9.692  20.588  0.00  0.00    +0.016 A 
ATOM     29  C   UNL     1     -11.218   7.806  18.745  0.00  0.00    +0.046 A 
ATOM     30  C   UNL     1     -11.148  10.042  19.661  0.00  0.00    +0.046 A 
ATOM     31  C   UNL     1     -10.692   9.099  18.740  0.00  0.00    +0.120 A 
BRANCH  31   4
ATOM      4  O   UNL     1      -9.733   9.440  17.835  0.00  0.00    -0.495 OA
ATOM     36  C   UNL     1     -10.091  10.397  16.840  0.00  0.00    +0.277 C 
ENDBRANCH  31   4
ENDBRANCH  23  24
ENDBRANCH  15   5
BRANCH  11   1
ATOM      1  O   UNL     1     -15.355   2.798  24.711  0.00  0.00    -0.391 OA
ATOM     38  H   UNL     1     -15.695   2.822  25.622  0.00  0.00    +0.210 HD
ENDBRANCH  11   1
BRANCH  14  19
ATOM     19  C   UNL     1     -17.664   0.999  24.980  0.00  0.00    +0.077 C 
ATOM     21  C   UNL     1     -18.722   0.223  24.204  0.00  0.00    +0.017 C 
BRANCH  19  22
ATOM      2  O   UNL     1     -18.385  -0.152  26.986  0.00  0.00    -0.276 OA
ATOM      6  N   UNL     1     -17.343   1.910  27.204  0.00  0.00    -0.311 N 
ATOM     22  C   UNL     1     -17.846   0.834  26.486  0.00  0.00    +0.216 C 
ATOM     39  H   UNL     1     -16.864   2.662  26.720  0.00  0.00    +0.149 HD
BRANCH   6  25
ATOM     25  C   UNL     1     -17.401   1.982  28.645  0.00  0.00    +0.141 C 
BRANCH  25  28
ATOM      7  N   UNL     1     -14.133   0.504  29.840  0.00  0.00    -0.263 NA
ATOM     28  C   UNL     1     -16.039   1.875  29.269  0.00  0.00    -0.012 A 
ATOM     32  C   UNL     1     -15.423   2.983  29.841  0.00  0.00    +0.008 A 
ATOM     33  C   UNL     1     -15.358   0.669  29.293  0.00  0.00    +0.115 A 
ATOM     34  C   UNL     1     -14.162   2.852  30.412  0.00  0.00    +0.020 A 
ATOM     35  C   UNL     1     -13.565   1.602  30.387  0.00  0.00    +0.111 A 
ENDBRANCH  25  28
ENDBRANCH   6  25
ENDBRANCH  19  22
ENDBRANCH  14  19
TORSDOF 8
ENDMDL
MODEL 3
REMARK VINA RESULT:      -7.4     17.859     21.872
REMARK  Name = 45361388
REMARK  12 active torsions:
REMARK  status: ('A' for Active; 'I' for Inactive)
REMARK    1  A    between atoms: O_1  and  C_11
REMARK    2  A    between atoms: O_4  and  C_31
REMARK    3  A    between atoms: O_4  and  C_36
REMARK    4  A    between atoms: N_5  and  C_15
REMARK    5  A    between atoms: N_6  and  C_25
REMARK    6  A    between atoms: C_8  and  C_18
REMARK    7  A    between atoms: C_10  and  C_20
REMARK    8  A    between atoms: C_14  and  C_19
REMARK    9  A    between atoms: C_19  and  C_21
REMARK   10  A    between atoms: C_19  and  C_22
REMARK   11  A    between atoms: C_23  and  C_24
REMARK   12  A    between atoms: C_25  and  C_28
REMARK                            x       y       z     vdW  Elec       q    Type
REMARK                         _______ _______ _______ _____ _____    ______ ____
ROOT
ATOM      8  C   UNL     1      -4.564 -11.067  16.991  0.00  0.00    -0.027 C 
ATOM      9  C   UNL     1      -5.409 -10.448  15.828  0.00  0.00    +0.028 C 
ATOM     10  C   UNL     1      -6.946 -10.562  16.132  0.00  0.00    +0.012 C 
ATOM     11  C   UNL     1      -4.957 -11.003  14.447  0.00  0.00    +0.122 C 
ATOM     12  C   UNL     1      -3.059 -10.838  16.715  0.00  0.00    +0.007 C 
ATOM     13  C   UNL     1      -4.916 -10.342  18.311  0.00  0.00    +0.009 C 
ATOM     14  C   UNL     1      -3.433 -10.865  14.220  0.00  0.00    +0.029 C 
ATOM     15  C   UNL     1      -7.276  -9.895  17.497  0.00  0.00    +0.076 C 
ATOM     16  C   UNL     1      -2.606 -11.415  15.381  0.00  0.00    +0.007 C 
ATOM     17  C   UNL     1      -6.401 -10.396  18.644  0.00  0.00    +0.023 C 
ATOM     18  C   UNL     1      -4.813 -12.587  17.162  0.00  0.00    +0.011 C 
ATOM     20  C   UNL     1      -7.836  -9.945  15.040  0.00  0.00    +0.010 C 
ENDROOT
BRANCH  15   5
ATOM      3  O   UNL     1      -9.342  -7.902  17.464  0.00  0.00    -0.270 OA
ATOM      5  N   UNL     1      -8.664 -10.082  17.863  0.00  0.00    -0.308 N 
ATOM     23  C   UNL     1      -9.588  -9.053  17.814  0.00  0.00    +0.244 C 
ATOM     37  H   UNL     1      -8.913 -10.978  18.272  0.00  0.00    +0.149 HD
BRANCH  23  24
ATOM     24  C   UNL     1     -10.966  -9.401  18.248  0.00  0.00    +0.037 A 
ATOM     26  C   UNL     1     -11.184  -9.922  19.523  0.00  0.00    +0.016 A 
ATOM     27  C   UNL     1     -12.040  -9.208  17.378  0.00  0.00    +0.016 A 
ATOM     29  C   UNL     1     -12.478 -10.251  19.929  0.00  0.00    +0.046 A 
ATOM     30  C   UNL     1     -13.333  -9.537  17.785  0.00  0.00    +0.046 A 
ATOM     31  C   UNL     1     -13.552 -10.058  19.060  0.00  0.00    +0.120 A 
BRANCH  31   4
ATOM      4  O   UNL     1     -14.815 -10.379  19.456  0.00  0.00    -0.495 OA
ATOM     36  C   UNL     1     -15.166 -10.082  20.806  0.00  0.00    +0.277 C 
ENDBRANCH  31   4
ENDBRANCH  23  24
ENDBRANCH  15   5
BRANCH  11   1
ATOM      1  O   UNL     1      -5.594 -10.263  13.404  0.00  0.00    -0.391 OA
ATOM     38  H   UNL     1      -5.401 -10.703  12.559  0.00  0.00    +0.210 HD
ENDBRANCH  11   1
BRANCH  14  19
ATOM     19  C   UNL     1      -2.990 -11.534  12.912  0.00  0.00    +0.077 C 
ATOM     21  C   UNL     1      -1.832 -12.490  13.177  0.00  0.00    +0.017 C 
BRANCH  19  22
ATOM      2  O   UNL     1      -1.490  -9.960  11.843  0.00  0.00    -0.276 OA
ATOM      6  N   UNL     1      -3.657 -10.153  11.034  0.00  0.00    -0.311 N 
ATOM     22  C   UNL     1      -2.610 -10.470  11.888  0.00  0.00    +0.216 C 
ATOM     39  H   UNL     1      -4.534 -10.657  11.102  0.00  0.00    +0.149 HD
BRANCH   6  25
ATOM     25  C   UNL     1      -3.537  -9.172   9.982  0.00  0.00    +0.141 C 
BRANCH  25  28
ATOM      7  N   UNL     1      -6.140  -9.710   7.293  0.00  0.00    -0.263 NA
ATOM     28  C   UNL     1      -4.808  -9.036   9.193  0.00  0.00    -0.012 A 
ATOM     32  C   UNL     1      -5.806  -8.152   9.590  0.00  0.00    +0.008 A 
ATOM     33  C   UNL     1      -5.022  -9.785   8.049  0.00  0.00    +0.115 A 
ATOM     34  C   UNL     1      -6.972  -8.046   8.839  0.00  0.00    +0.020 A 
ATOM     35  C   UNL     1      -7.089  -8.840   7.709  0.00  0.00    +0.111 A 
ENDBRANCH  25  28
ENDBRANCH   6  25
ENDBRANCH  19  22
ENDBRANCH  14  19
TORSDOF 8
ENDMDL
MODEL 4
REMARK VINA RESULT:      -7.1     28.177     35.374
REMARK  Name = 45361388
REMARK  12 active torsions:
REMARK  status: ('A' for Active; 'I' for Inactive)
REMARK    1  A    between atoms: O_1  and  C_11
REMARK    2  A    between atoms: O_4  and  C_31
REMARK    3  A    between atoms: O_4  and  C_36
REMARK    4  A    between atoms: N_5  and  C_15
REMARK    5  A    between atoms: N_6  and  C_25
REMARK    6  A    between atoms: C_8  and  C_18
REMARK    7  A    between atoms: C_10  and  C_20
REMARK    8  A    between atoms: C_14  and  C_19
REMARK    9  A    between atoms: C_19  and  C_21
REMARK   10  A    between atoms: C_19  and  C_22
REMARK   11  A    between atoms: C_23  and  C_24
REMARK   12  A    between atoms: C_25  and  C_28
REMARK                            x       y       z     vdW  Elec       q    Type
REMARK                         _______ _______ _______ _____ _____    ______ ____
ROOT
ATOM      8  C   UNL     1      13.610   5.130  -0.284  0.00  0.00    -0.027 C 
ATOM      9  C   UNL     1      12.052   4.994  -0.217  0.00  0.00    +0.028 C 
ATOM     10  C   UNL     1      11.579   4.702   1.252  0.00  0.00    +0.012 C 
ATOM     11  C   UNL     1      11.526   4.007  -1.299  0.00  0.00    +0.122 C 
ATOM     12  C   UNL     1      14.033   5.528  -1.717  0.00  0.00    +0.007 C 
ATOM     13  C   UNL     1      14.059   6.261   0.671  0.00  0.00    +0.009 C 
ATOM     14  C   UNL     1      12.038   4.350  -2.717  0.00  0.00    +0.029 C 
ATOM     15  C   UNL     1      12.099   5.806   2.215  0.00  0.00    +0.076 C 
ATOM     16  C   UNL     1      13.553   4.542  -2.774  0.00  0.00    +0.007 C 
ATOM     17  C   UNL     1      13.604   6.045   2.108  0.00  0.00    +0.023 C 
ATOM     18  C   UNL     1      14.338   3.817   0.103  0.00  0.00    +0.011 C 
ATOM     20  C   UNL     1      10.051   4.586   1.394  0.00  0.00    +0.010 C 
ENDROOT
BRANCH  15   5
ATOM      3  O   UNL     1      10.400   7.337   3.950  0.00  0.00    -0.270 OA
ATOM      5  N   UNL     1      11.779   5.508   3.595  0.00  0.00    -0.308 N 
ATOM     23  C   UNL     1      10.945   6.312   4.353  0.00  0.00    +0.244 C 
ATOM     37  H   UNL     1      12.285   4.741   4.027  0.00  0.00    +0.149 HD
BRANCH  23  24
ATOM     24  C   UNL     1      10.738   5.884   5.759  0.00  0.00    +0.037 A 
ATOM     26  C   UNL     1       9.840   4.857   6.050  0.00  0.00    +0.016 A 
ATOM     27  C   UNL     1      11.441   6.510   6.790  0.00  0.00    +0.016 A 
ATOM     29  C   UNL     1       9.642   4.458   7.372  0.00  0.00    +0.046 A 
ATOM     30  C   UNL     1      11.244   6.109   8.111  0.00  0.00    +0.046 A 
ATOM     31  C   UNL     1      10.345   5.083   8.402  0.00  0.00    +0.120 A 
BRANCH  31   4
ATOM      4  O   UNL     1      10.153   4.692   9.693  0.00  0.00    -0.495 OA
ATOM     36  C   UNL     1       8.823   4.765  10.202  0.00  0.00    +0.277 C 
ENDBRANCH  31   4
ENDBRANCH  23  24
ENDBRANCH  15   5
BRANCH  11   1
ATOM      1  O   UNL     1      10.100   4.073  -1.351  0.00  0.00    -0.391 OA
ATOM     38  H   UNL     1       9.826   4.948  -1.028  0.00  0.00    +0.210 HD
ENDBRANCH  11   1
BRANCH  14  19
ATOM     19  C   UNL     1      11.616   3.293  -3.745  0.00  0.00    +0.077 C 
ATOM     21  C   UNL     1      12.838   2.766  -4.488  0.00  0.00    +0.017 C 
BRANCH  19  22
ATOM      2  O   UNL     1      10.855   4.139  -5.884  0.00  0.00    -0.276 OA
ATOM      6  N   UNL     1       9.359   4.098  -4.110  0.00  0.00    -0.311 N 
ATOM     22  C   UNL     1      10.593   3.885  -4.709  0.00  0.00    +0.216 C 
ATOM     39  H   UNL     1       9.207   3.812  -3.149  0.00  0.00    +0.149 HD
BRANCH   6  25
ATOM     25  C   UNL     1       8.231   4.653  -4.821  0.00  0.00    +0.141 C 
BRANCH  25  28
ATOM      7  N   UNL     1       7.765   7.550  -2.437  0.00  0.00    -0.263 NA
ATOM     28  C   UNL     1       7.574   5.764  -4.054  0.00  0.00    -0.012 A 
ATOM     32  C   UNL     1       6.222   6.047  -4.218  0.00  0.00    +0.008 A 
ATOM     33  C   UNL     1       8.295   6.538  -3.160  0.00  0.00    +0.115 A 
ATOM     34  C   UNL     1       5.641   7.081  -3.492  0.00  0.00    +0.020 A 
ATOM     35  C   UNL     1       6.448   7.795  -2.622  0.00  0.00    +0.111 A 
ENDBRANCH  25  28
ENDBRANCH   6  25
ENDBRANCH  19  22
ENDBRANCH  14  19
TORSDOF 8
ENDMDL
MODEL 5
REMARK VINA RESULT:      -7.0     15.507     18.127
REMARK  Name = 45361388
REMARK  12 active torsions:
REMARK  status: ('A' for Active; 'I' for Inactive)
REMARK    1  A    between atoms: O_1  and  C_11
REMARK    2  A    between atoms: O_4  and  C_31
REMARK    3  A    between atoms: O_4  and  C_36
REMARK    4  A    between atoms: N_5  and  C_15
REMARK    5  A    between atoms: N_6  and  C_25
REMARK    6  A    between atoms: C_8  and  C_18
REMARK    7  A    between atoms: C_10  and  C_20
REMARK    8  A    between atoms: C_14  and  C_19
REMARK    9  A    between atoms: C_19  and  C_21
REMARK   10  A    between atoms: C_19  and  C_22
REMARK   11  A    between atoms: C_23  and  C_24
REMARK   12  A    between atoms: C_25  and  C_28
REMARK                            x       y       z     vdW  Elec       q    Type
REMARK                         _______ _______ _______ _____ _____    ______ ____
ROOT
ATOM      8  C   UNL     1     -12.192  -4.251  10.414  0.00  0.00    -0.027 C 
ATOM      9  C   UNL     1     -11.696  -5.686  10.798  0.00  0.00    +0.028 C 
ATOM     10  C   UNL     1     -11.299  -6.501   9.516  0.00  0.00    +0.012 C 
ATOM     11  C   UNL     1     -12.701  -6.390  11.755  0.00  0.00    +0.122 C 
ATOM     12  C   UNL     1     -12.467  -3.438  11.701  0.00  0.00    +0.007 C 
ATOM     13  C   UNL     1     -11.075  -3.525   9.628  0.00  0.00    +0.009 C 
ATOM     14  C   UNL     1     -13.052  -5.527  12.990  0.00  0.00    +0.029 C 
ATOM     15  C   UNL     1     -10.230  -5.727   8.695  0.00  0.00    +0.076 C 
ATOM     16  C   UNL     1     -13.479  -4.107  12.622  0.00  0.00    +0.007 C 
ATOM     17  C   UNL     1     -10.628  -4.284   8.387  0.00  0.00    +0.023 C 
ATOM     18  C   UNL     1     -13.483  -4.278   9.557  0.00  0.00    +0.011 C 
ATOM     20  C   UNL     1     -10.774  -7.914   9.823  0.00  0.00    +0.010 C 
ENDROOT
BRANCH  15   5
ATOM      3  O   UNL     1      -7.651  -6.644   7.828  0.00  0.00    -0.270 OA
ATOM      5  N   UNL     1      -9.924  -6.395   7.448  0.00  0.00    -0.308 N 
ATOM     23  C   UNL     1      -8.642  -6.800   7.118  0.00  0.00    +0.244 C 
ATOM     37  H   UNL     1     -10.673  -6.454   6.764  0.00  0.00    +0.149 HD
BRANCH  23  24
ATOM     24  C   UNL     1      -8.490  -7.447   5.791  0.00  0.00    +0.037 A 
ATOM     26  C   UNL     1      -7.471  -8.377   5.581  0.00  0.00    +0.016 A 
ATOM     27  C   UNL     1      -9.365  -7.124   4.753  0.00  0.00    +0.016 A 
ATOM     29  C   UNL     1      -7.326  -8.983   4.333  0.00  0.00    +0.046 A 
ATOM     30  C   UNL     1      -9.220  -7.730   3.505  0.00  0.00    +0.046 A 
ATOM     31  C   UNL     1      -8.201  -8.660   3.295  0.00  0.00    +0.120 A 
BRANCH  31   4
ATOM      4  O   UNL     1      -8.060  -9.252   2.077  0.00  0.00    -0.495 OA
ATOM     36  C   UNL     1      -8.407 -10.632   1.982  0.00  0.00    +0.277 C 
ENDBRANCH  31   4
ENDBRANCH  23  24
ENDBRANCH  15   5
BRANCH  11   1
ATOM      1  O   UNL     1     -12.118  -7.597  12.252  0.00  0.00    -0.391 OA
ATOM     38  H   UNL     1     -12.747  -8.004  12.872  0.00  0.00    +0.210 HD
ENDBRANCH  11   1
BRANCH  14  19
ATOM     19  C   UNL     1     -14.139  -6.183  13.851  0.00  0.00    +0.077 C 
ATOM     21  C   UNL     1     -15.376  -5.294  13.901  0.00  0.00    +0.017 C 
BRANCH  19  22
ATOM      2  O   UNL     1     -14.319  -6.778  16.192  0.00  0.00    -0.276 OA
ATOM      6  N   UNL     1     -12.219  -6.311  15.325  0.00  0.00    -0.311 N 
ATOM     22  C   UNL     1     -13.596  -6.460  15.249  0.00  0.00    +0.216 C 
ATOM     39  H   UNL     1     -11.686  -6.098  14.488  0.00  0.00    +0.149 HD
BRANCH   6  25
ATOM     25  C   UNL     1     -11.476  -6.518  16.546  0.00  0.00    +0.141 C 
BRANCH  25  28
ATOM      7  N   UNL     1      -9.249  -9.126  14.955  0.00  0.00    -0.263 NA
ATOM     28  C   UNL     1     -10.427  -7.581  16.393  0.00  0.00    -0.012 A 
ATOM     32  C   UNL     1      -9.678  -8.012  17.482  0.00  0.00    +0.008 A 
ATOM     33  C   UNL     1     -10.176  -8.164  15.162  0.00  0.00    +0.115 A 
ATOM     34  C   UNL     1      -8.715  -9.000  17.309  0.00  0.00    +0.020 A 
ATOM     35  C   UNL     1      -8.541  -9.520  16.037  0.00  0.00    +0.111 A 
ENDBRANCH  25  28
ENDBRANCH   6  25
ENDBRANCH  19  22
ENDBRANCH  14  19
TORSDOF 8
ENDMDL
MODEL 6
REMARK VINA RESULT:      -7.0     30.312     38.807
REMARK  Name = 45361388
REMARK  12 active torsions:
REMARK  status: ('A' for Active; 'I' for Inactive)
REMARK    1  A    between atoms: O_1  and  C_11
REMARK    2  A    between atoms: O_4  and  C_31
REMARK    3  A    between atoms: O_4  and  C_36
REMARK    4  A    between atoms: N_5  and  C_15
REMARK    5  A    between atoms: N_6  and  C_25
REMARK    6  A    between atoms: C_8  and  C_18
REMARK    7  A    between atoms: C_10  and  C_20
REMARK    8  A    between atoms: C_14  and  C_19
REMARK    9  A    between atoms: C_19  and  C_21
REMARK   10  A    between atoms: C_19  and  C_22
REMARK   11  A    between atoms: C_23  and  C_24
REMARK   12  A    between atoms: C_25  and  C_28
REMARK                            x       y       z     vdW  Elec       q    Type
REMARK                         _______ _______ _______ _____ _____    ______ ____
ROOT
ATOM      8  C   UNL     1      13.541   4.816  -1.506  0.00  0.00    -0.027 C 
ATOM      9  C   UNL     1      14.538   4.193  -0.473  0.00  0.00    +0.028 C 
ATOM     10  C   UNL     1      14.000   4.362   0.993  0.00  0.00    +0.012 C 
ATOM     11  C   UNL     1      15.989   4.698  -0.716  0.00  0.00    +0.122 C 
ATOM     12  C   UNL     1      14.043   4.534  -2.942  0.00  0.00    +0.007 C 
ATOM     13  C   UNL     1      12.160   4.137  -1.348  0.00  0.00    +0.009 C 
ATOM     14  C   UNL     1      16.448   4.507  -2.181  0.00  0.00    +0.029 C 
ATOM     15  C   UNL     1      12.581   3.741   1.121  0.00  0.00    +0.076 C 
ATOM     16  C   UNL     1      15.448   5.061  -3.195  0.00  0.00    +0.007 C 
ATOM     17  C   UNL     1      11.600   4.245   0.063  0.00  0.00    +0.023 C 
ATOM     18  C   UNL     1      13.379   6.347  -1.328  0.00  0.00    +0.011 C 
ATOM     20  C   UNL     1      14.920   3.744   2.060  0.00  0.00    +0.010 C 
ENDROOT
BRANCH  15   5
ATOM      3  O   UNL     1      11.711   6.266   2.177  0.00  0.00    -0.270 OA
ATOM      5  N   UNL     1      12.007   3.980   2.429  0.00  0.00    -0.308 N 
ATOM     23  C   UNL     1      11.618   5.241   2.848  0.00  0.00    +0.244 C 
ATOM     37  H   UNL     1      12.007   3.200   3.079  0.00  0.00    +0.149 HD
BRANCH  23  24
ATOM     24  C   UNL     1      11.072   5.323   4.227  0.00  0.00    +0.037 A 
ATOM     26  C   UNL     1      10.191   4.345   4.688  0.00  0.00    +0.016 A 
ATOM     27  C   UNL     1      11.440   6.380   5.061  0.00  0.00    +0.016 A 
ATOM     29  C   UNL     1       9.676   4.424   5.982  0.00  0.00    +0.046 A 
ATOM     30  C   UNL     1      10.926   6.458   6.355  0.00  0.00    +0.046 A 
ATOM     31  C   UNL     1      10.044   5.481   6.815  0.00  0.00    +0.120 A 
BRANCH  31   4
ATOM      4  O   UNL     1       9.543   5.558   8.079  0.00  0.00    -0.495 OA
ATOM     36  C   UNL     1       9.530   4.356   8.847  0.00  0.00    +0.277 C 
ENDBRANCH  31   4
ENDBRANCH  23  24
ENDBRANCH  15   5
BRANCH  11   1
ATOM      1  O   UNL     1      16.896   3.950   0.097  0.00  0.00    -0.391 OA
ATOM     38  H   UNL     1      17.799   4.125  -0.218  0.00  0.00    +0.210 HD
ENDBRANCH  11   1
BRANCH  14  19
ATOM     19  C   UNL     1      17.828   5.128  -2.429  0.00  0.00    +0.077 C 
ATOM     21  C   UNL     1      17.756   6.127  -3.579  0.00  0.00    +0.017 C 
BRANCH  19  22
ATOM      2  O   UNL     1      19.211   3.734  -3.849  0.00  0.00    -0.276 OA
ATOM      6  N   UNL     1      19.304   3.417  -1.552  0.00  0.00    -0.311 N 
ATOM     22  C   UNL     1      18.848   4.029  -2.711  0.00  0.00    +0.216 C 
ATOM     39  H   UNL     1      18.996   3.754  -0.647  0.00  0.00    +0.149 HD
BRANCH   6  25
ATOM     25  C   UNL     1      20.274   2.346  -1.564  0.00  0.00    +0.141 C 
BRANCH  25  28
ATOM      7  N   UNL     1      23.778   3.548  -2.317  0.00  0.00    -0.263 NA
ATOM     28  C   UNL     1      21.672   2.853  -1.358  0.00  0.00    -0.012 A 
ATOM     32  C   UNL     1      22.167   3.092  -0.080  0.00  0.00    +0.008 A 
ATOM     33  C   UNL     1      22.510   3.095  -2.433  0.00  0.00    +0.115 A 
ATOM     34  C   UNL     1      23.467   3.559   0.080  0.00  0.00    +0.020 A 
ATOM     35  C   UNL     1      24.225   3.768  -1.061  0.00  0.00    +0.111 A 
ENDBRANCH  25  28
ENDBRANCH   6  25
ENDBRANCH  19  22
ENDBRANCH  14  19
TORSDOF 8
ENDMDL
MODEL 7
REMARK VINA RESULT:      -6.9     26.359     28.999
REMARK  Name = 45361388
REMARK  12 active torsions:
REMARK  status: ('A' for Active; 'I' for Inactive)
REMARK    1  A    between atoms: O_1  and  C_11
REMARK    2  A    between atoms: O_4  and  C_31
REMARK    3  A    between atoms: O_4  and  C_36
REMARK    4  A    between atoms: N_5  and  C_15
REMARK    5  A    between atoms: N_6  and  C_25
REMARK    6  A    between atoms: C_8  and  C_18
REMARK    7  A    between atoms: C_10  and  C_20
REMARK    8  A    between atoms: C_14  and  C_19
REMARK    9  A    between atoms: C_19  and  C_21
REMARK   10  A    between atoms: C_19  and  C_22
REMARK   11  A    between atoms: C_23  and  C_24
REMARK   12  A    between atoms: C_25  and  C_28
REMARK                            x       y       z     vdW  Elec       q    Type
REMARK                         _______ _______ _______ _____ _____    ______ ____
ROOT
ATOM      8  C   UNL     1      15.062  11.439  18.718  0.00  0.00    -0.027 C 
ATOM      9  C   UNL     1      14.677  10.110  17.987  0.00  0.00    +0.028 C 
ATOM     10  C   UNL     1      13.622  10.379  16.855  0.00  0.00    +0.012 C 
ATOM     11  C   UNL     1      14.296   8.997  19.006  0.00  0.00    +0.122 C 
ATOM     12  C   UNL     1      16.182  11.157  19.747  0.00  0.00    +0.007 C 
ATOM     13  C   UNL     1      15.617  12.443  17.680  0.00  0.00    +0.009 C 
ATOM     14  C   UNL     1      15.375   8.792  20.095  0.00  0.00    +0.029 C 
ATOM     15  C   UNL     1      14.161  11.445  15.860  0.00  0.00    +0.076 C 
ATOM     16  C   UNL     1      15.797  10.097  20.769  0.00  0.00    +0.007 C 
ATOM     17  C   UNL     1      14.647  12.723  16.541  0.00  0.00    +0.023 C 
ATOM     18  C   UNL     1      13.859  12.082  19.455  0.00  0.00    +0.011 C 
ATOM     20  C   UNL     1      13.220   9.116  16.075  0.00  0.00    +0.010 C 
ENDROOT
BRANCH  15   5
ATOM      3  O   UNL     1      14.616  11.882  13.059  0.00  0.00    -0.270 OA
ATOM      5  N   UNL     1      13.169  11.802  14.868  0.00  0.00    -0.308 N 
ATOM     23  C   UNL     1      13.488  11.993  13.535  0.00  0.00    +0.244 C 
ATOM     37  H   UNL     1      12.239  12.023  15.210  0.00  0.00    +0.149 HD
BRANCH  23  24
ATOM     24  C   UNL     1      12.362  12.383  12.649  0.00  0.00    +0.037 A 
ATOM     26  C   UNL     1      12.593  13.207  11.548  0.00  0.00    +0.016 A 
ATOM     27  C   UNL     1      11.072  11.926  12.920  0.00  0.00    +0.016 A 
ATOM     29  C   UNL     1      11.534  13.575  10.718  0.00  0.00    +0.046 A 
ATOM     30  C   UNL     1      10.013  12.294  12.090  0.00  0.00    +0.046 A 
ATOM     31  C   UNL     1      10.244  13.119  10.989  0.00  0.00    +0.120 A 
BRANCH  31   4
ATOM      4  O   UNL     1       9.210  13.478  10.179  0.00  0.00    -0.495 OA
ATOM     36  C   UNL     1       8.056  12.640  10.190  0.00  0.00    +0.277 C 
ENDBRANCH  31   4
ENDBRANCH  23  24
ENDBRANCH  15   5
BRANCH  11   1
ATOM      1  O   UNL     1      14.163   7.750  18.322  0.00  0.00    -0.391 OA
ATOM     38  H   UNL     1      14.995   7.257  18.427  0.00  0.00    +0.210 HD
ENDBRANCH  11   1
BRANCH  14  19
ATOM     19  C   UNL     1      14.923   7.786  21.161  0.00  0.00    +0.077 C 
ATOM     21  C   UNL     1      15.449   6.395  20.825  0.00  0.00    +0.017 C 
BRANCH  19  22
ATOM      2  O   UNL     1      12.688   6.996  20.664  0.00  0.00    -0.276 OA
ATOM      6  N   UNL     1      12.935   8.789  22.116  0.00  0.00    -0.311 N 
ATOM     22  C   UNL     1      13.402   7.794  21.270  0.00  0.00    +0.216 C 
ATOM     39  H   UNL     1      13.592   9.374  22.621  0.00  0.00    +0.149 HD
BRANCH   6  25
ATOM     25  C   UNL     1      11.529   8.995  22.378  0.00  0.00    +0.141 C 
BRANCH  25  28
ATOM      7  N   UNL     1      10.596  12.003  24.471  0.00  0.00    -0.263 NA
ATOM     28  C   UNL     1      11.232  10.416  22.762  0.00  0.00    -0.012 A 
ATOM     32  C   UNL     1      11.301  11.441  21.825  0.00  0.00    +0.008 A 
ATOM     33  C   UNL     1      10.878  10.747  24.060  0.00  0.00    +0.115 A 
ATOM     34  C   UNL     1      11.019  12.748  22.210  0.00  0.00    +0.020 A 
ATOM     35  C   UNL     1      10.674  12.973  23.533  0.00  0.00    +0.111 A 
ENDBRANCH  25  28
ENDBRANCH   6  25
ENDBRANCH  19  22
ENDBRANCH  14  19
TORSDOF 8
ENDMDL
MODEL 8
REMARK VINA RESULT:      -6.9     18.645     21.295
REMARK  Name = 45361388
REMARK  12 active torsions:
REMARK  status: ('A' for Active; 'I' for Inactive)
REMARK    1  A    between atoms: O_1  and  C_11
REMARK    2  A    between atoms: O_4  and  C_31
REMARK    3  A    between atoms: O_4  and  C_36
REMARK    4  A    between atoms: N_5  and  C_15
REMARK    5  A    between atoms: N_6  and  C_25
REMARK    6  A    between atoms: C_8  and  C_18
REMARK    7  A    between atoms: C_10  and  C_20
REMARK    8  A    between atoms: C_14  and  C_19
REMARK    9  A    between atoms: C_19  and  C_21
REMARK   10  A    between atoms: C_19  and  C_22
REMARK   11  A    between atoms: C_23  and  C_24
REMARK   12  A    between atoms: C_25  and  C_28
REMARK                            x       y       z     vdW  Elec       q    Type
REMARK                         _______ _______ _______ _____ _____    ______ ____
ROOT
ATOM      8  C   UNL     1      -3.383 -11.650  11.607  0.00  0.00    -0.027 C 
ATOM      9  C   UNL     1      -4.726 -11.177  12.257  0.00  0.00    +0.028 C 
ATOM     10  C   UNL     1      -5.611 -10.407  11.213  0.00  0.00    +0.012 C 
ATOM     11  C   UNL     1      -4.470 -10.430  13.598  0.00  0.00    +0.122 C 
ATOM     12  C   UNL     1      -2.587 -12.499  12.626  0.00  0.00    +0.007 C 
ATOM     13  C   UNL     1      -3.700 -12.549  10.390  0.00  0.00    +0.009 C 
ATOM     14  C   UNL     1      -3.586 -11.242  14.573  0.00  0.00    +0.029 C 
ATOM     15  C   UNL     1      -5.861 -11.294   9.961  0.00  0.00    +0.076 C 
ATOM     16  C   UNL     1      -2.302 -11.756  13.925  0.00  0.00    +0.007 C 
ATOM     17  C   UNL     1      -4.580 -11.864   9.354  0.00  0.00    +0.023 C 
ATOM     18  C   UNL     1      -2.496 -10.464  11.147  0.00  0.00    +0.011 C 
ATOM     20  C   UNL     1      -6.963  -9.939  11.778  0.00  0.00    +0.010 C 
ENDROOT
BRANCH  15   5
ATOM      3  O   UNL     1      -4.813  -9.222   8.273  0.00  0.00    -0.270 OA
ATOM      5  N   UNL     1      -6.577 -10.575   8.928  0.00  0.00    -0.308 N 
ATOM     23  C   UNL     1      -5.981  -9.587   8.164  0.00  0.00    +0.244 C 
ATOM     37  H   UNL     1      -7.576 -10.743   8.862  0.00  0.00    +0.149 HD
BRANCH  23  24
ATOM     24  C   UNL     1      -6.858  -8.925   7.165  0.00  0.00    +0.037 A 
ATOM     26  C   UNL     1      -7.821  -8.007   7.583  0.00  0.00    +0.016 A 
ATOM     27  C   UNL     1      -6.719  -9.224   5.809  0.00  0.00    +0.016 A 
ATOM     29  C   UNL     1      -8.647  -7.388   6.644  0.00  0.00    +0.046 A 
ATOM     30  C   UNL     1      -7.545  -8.604   4.871  0.00  0.00    +0.046 A 
ATOM     31  C   UNL     1      -8.509  -7.687   5.288  0.00  0.00    +0.120 A 
BRANCH  31   4
ATOM      4  O   UNL     1      -9.314  -7.081   4.372  0.00  0.00    -0.495 OA
ATOM     36  C   UNL     1     -10.722  -7.219   4.554  0.00  0.00    +0.277 C 
ENDBRANCH  31   4
ENDBRANCH  23  24
ENDBRANCH  15   5
BRANCH  11   1
ATOM      1  O   UNL     1      -5.715 -10.207  14.263  0.00  0.00    -0.391 OA
ATOM     38  H   UNL     1      -5.526  -9.846  15.146  0.00  0.00    +0.210 HD
ENDBRANCH  11   1
BRANCH  14  19
ATOM     19  C   UNL     1      -3.240 -10.437  15.831  0.00  0.00    +0.077 C 
ATOM     21  C   UNL     1      -1.738 -10.482  16.086  0.00  0.00    +0.017 C 
BRANCH  19  22
ATOM      2  O   UNL     1      -3.589 -11.863  17.758  0.00  0.00    -0.276 OA
ATOM      6  N   UNL     1      -5.256 -10.359  17.175  0.00  0.00    -0.311 N 
ATOM     22  C   UNL     1      -4.023 -10.976  17.024  0.00  0.00    +0.216 C 
ATOM     39  H   UNL     1      -5.519  -9.597  16.558  0.00  0.00    +0.149 HD
BRANCH   6  25
ATOM     25  C   UNL     1      -6.178 -10.702  18.233  0.00  0.00    +0.141 C 
BRANCH  25  28
ATOM      7  N   UNL     1      -9.918 -10.205  18.469  0.00  0.00    -0.263 NA
ATOM     28  C   UNL     1      -7.553 -10.152  17.980  0.00  0.00    -0.012 A 
ATOM     32  C   UNL     1      -7.757  -9.125  17.065  0.00  0.00    +0.008 A 
ATOM     33  C   UNL     1      -8.656 -10.653  18.650  0.00  0.00    +0.115 A 
ATOM     34  C   UNL     1      -9.041  -8.637  16.851  0.00  0.00    +0.020 A 
ATOM     35  C   UNL     1     -10.079  -9.207  17.572  0.00  0.00    +0.111 A 
ENDBRANCH  25  28
ENDBRANCH   6  25
ENDBRANCH  19  22
ENDBRANCH  14  19
TORSDOF 8
ENDMDL
MODEL 9
REMARK VINA RESULT:      -6.9     20.775     26.639
REMARK  Name = 45361388
REMARK  12 active torsions:
REMARK  status: ('A' for Active; 'I' for Inactive)
REMARK    1  A    between atoms: O_1  and  C_11
REMARK    2  A    between atoms: O_4  and  C_31
REMARK    3  A    between atoms: O_4  and  C_36
REMARK    4  A    between atoms: N_5  and  C_15
REMARK    5  A    between atoms: N_6  and  C_25
REMARK    6  A    between atoms: C_8  and  C_18
REMARK    7  A    between atoms: C_10  and  C_20
REMARK    8  A    between atoms: C_14  and  C_19
REMARK    9  A    between atoms: C_19  and  C_21
REMARK   10  A    between atoms: C_19  and  C_22
REMARK   11  A    between atoms: C_23  and  C_24
REMARK   12  A    between atoms: C_25  and  C_28
REMARK                            x       y       z     vdW  Elec       q    Type
REMARK                         _______ _______ _______ _____ _____    ______ ____
ROOT
ATOM      8  C   UNL     1      -5.803 -11.593   5.934  0.00  0.00    -0.027 C 
ATOM      9  C   UNL     1      -5.975 -10.136   6.478  0.00  0.00    +0.028 C 
ATOM     10  C   UNL     1      -5.873 -10.109   8.045  0.00  0.00    +0.012 C 
ATOM     11  C   UNL     1      -7.241  -9.456   5.879  0.00  0.00    +0.122 C 
ATOM     12  C   UNL     1      -5.797 -11.569   4.387  0.00  0.00    +0.007 C 
ATOM     13  C   UNL     1      -4.438 -12.149   6.402  0.00  0.00    +0.009 C 
ATOM     14  C   UNL     1      -7.279  -9.527   4.334  0.00  0.00    +0.029 C 
ATOM     15  C   UNL     1      -4.529 -10.738   8.508  0.00  0.00    +0.076 C 
ATOM     16  C   UNL     1      -7.052 -10.940   3.797  0.00  0.00    +0.007 C 
ATOM     17  C   UNL     1      -4.270 -12.122   7.915  0.00  0.00    +0.023 C 
ATOM     18  C   UNL     1      -6.932 -12.543   6.412  0.00  0.00    +0.011 C 
ATOM     20  C   UNL     1      -6.004  -8.699   8.647  0.00  0.00    +0.010 C 
ENDROOT
BRANCH  15   5
ATOM      3  O   UNL     1      -2.734  -9.301  10.227  0.00  0.00    -0.270 OA
ATOM      5  N   UNL     1      -4.450 -10.835   9.950  0.00  0.00    -0.308 N 
ATOM     23  C   UNL     1      -3.545 -10.097  10.694  0.00  0.00    +0.244 C 
ATOM     37  H   UNL     1      -5.010 -11.557  10.392  0.00  0.00    +0.149 HD
BRANCH  23  24
ATOM     24  C   UNL     1      -3.573 -10.330  12.160  0.00  0.00    +0.037 A 
ATOM     26  C   UNL     1      -4.793 -10.419  12.830  0.00  0.00    +0.016 A 
ATOM     27  C   UNL     1      -2.377 -10.459  12.869  0.00  0.00    +0.016 A 
ATOM     29  C   UNL     1      -4.819 -10.634  14.208  0.00  0.00    +0.046 A 
ATOM     30  C   UNL     1      -2.403 -10.675  14.246  0.00  0.00    +0.046 A 
ATOM     31  C   UNL     1      -3.624 -10.763  14.916  0.00  0.00    +0.120 A 
BRANCH  31   4
ATOM      4  O   UNL     1      -3.648 -10.974  16.261  0.00  0.00    -0.495 OA
ATOM     36  C   UNL     1      -4.728 -10.394  16.989  0.00  0.00    +0.277 C 
ENDBRANCH  31   4
ENDBRANCH  23  24
ENDBRANCH  15   5
BRANCH  11   1
ATOM      1  O   UNL     1      -7.246  -8.070   6.224  0.00  0.00    -0.391 OA
ATOM     38  H   UNL     1      -7.126  -7.998   7.187  0.00  0.00    +0.210 HD
ENDBRANCH  11   1
BRANCH  14  19
ATOM     19  C   UNL     1      -8.592  -8.969   3.772  0.00  0.00    +0.077 C 
ATOM     21  C   UNL     1      -9.680 -10.036   3.824  0.00  0.00    +0.017 C 
BRANCH  19  22
ATOM      2  O   UNL     1      -7.420  -7.757   2.033  0.00  0.00    -0.276 OA
ATOM      6  N   UNL     1      -9.364  -8.894   1.476  0.00  0.00    -0.311 N 
ATOM     22  C   UNL     1      -8.375  -8.466   2.349  0.00  0.00    +0.216 C 
ATOM     39  H   UNL     1     -10.091  -9.521   1.803  0.00  0.00    +0.149 HD
BRANCH   6  25
ATOM     25  C   UNL     1      -9.375  -8.543   0.074  0.00  0.00    +0.141 C 
BRANCH  25  28
ATOM      7  N   UNL     1      -7.606 -11.656  -1.141  0.00  0.00    -0.263 NA
ATOM     28  C   UNL     1      -8.485  -9.442  -0.736  0.00  0.00    -0.012 A 
ATOM     32  C   UNL     1      -7.733  -8.941  -1.793  0.00  0.00    +0.008 A 
ATOM     33  C   UNL     1      -8.388 -10.794  -0.453  0.00  0.00    +0.115 A 
ATOM     34  C   UNL     1      -6.917  -9.797  -2.524  0.00  0.00    +0.020 A 
ATOM     35  C   UNL     1      -6.889 -11.134  -2.161  0.00  0.00    +0.111 A 
ENDBRANCH  25  28
ENDBRANCH   6  25
ENDBRANCH  19  22
ENDBRANCH  14  19
TORSDOF 8
ENDMDL
MODEL 10
REMARK VINA RESULT:      -6.8     20.913     25.818
REMARK  Name = 45361388
REMARK  12 active torsions:
REMARK  status: ('A' for Active; 'I' for Inactive)
REMARK    1  A    between atoms: O_1  and  C_11
REMARK    2  A    between atoms: O_4  and  C_31
REMARK    3  A    between atoms: O_4  and  C_36
REMARK    4  A    between atoms: N_5  and  C_15
REMARK    5  A    between atoms: N_6  and  C_25
REMARK    6  A    between atoms: C_8  and  C_18
REMARK    7  A    between atoms: C_10  and  C_20
REMARK    8  A    between atoms: C_14  and  C_19
REMARK    9  A    between atoms: C_19  and  C_21
REMARK   10  A    between atoms: C_19  and  C_22
REMARK   11  A    between atoms: C_23  and  C_24
REMARK   12  A    between atoms: C_25  and  C_28
REMARK                            x       y       z     vdW  Elec       q    Type
REMARK                         _______ _______ _______ _____ _____    ______ ____
ROOT
ATOM      8  C   UNL     1      -5.991 -11.232   6.129  0.00  0.00    -0.027 C 
ATOM      9  C   UNL     1      -6.078  -9.778   6.699  0.00  0.00    +0.028 C 
ATOM     10  C   UNL     1      -5.952  -9.783   8.264  0.00  0.00    +0.012 C 
ATOM     11  C   UNL     1      -7.314  -9.023   6.129  0.00  0.00    +0.122 C 
ATOM     12  C   UNL     1      -6.005 -11.183   4.582  0.00  0.00    +0.007 C 
ATOM     13  C   UNL     1      -4.651 -11.867   6.567  0.00  0.00    +0.009 C 
ATOM     14  C   UNL     1      -7.378  -9.066   4.585  0.00  0.00    +0.029 C 
ATOM     15  C   UNL     1      -4.636 -10.489   8.696  0.00  0.00    +0.076 C 
ATOM     16  C   UNL     1      -7.233 -10.479   4.022  0.00  0.00    +0.007 C 
ATOM     17  C   UNL     1      -4.460 -11.875   8.078  0.00  0.00    +0.023 C 
ATOM     18  C   UNL     1      -7.161 -12.130   6.608  0.00  0.00    +0.011 C 
ATOM     20  C   UNL     1      -6.000  -8.378   8.890  0.00  0.00    +0.010 C 
ENDROOT
BRANCH  15   5
ATOM      3  O   UNL     1      -2.536  -9.478  10.372  0.00  0.00    -0.270 OA
ATOM      5  N   UNL     1      -4.543 -10.614  10.136  0.00  0.00    -0.308 N 
ATOM     23  C   UNL     1      -3.484 -10.090  10.857  0.00  0.00    +0.244 C 
ATOM     37  H   UNL     1      -5.231 -11.206  10.590  0.00  0.00    +0.149 HD
BRANCH  23  24
ATOM     24  C   UNL     1      -3.522 -10.326  12.323  0.00  0.00    +0.037 A 
ATOM     26  C   UNL     1      -4.746 -10.379  12.990  0.00  0.00    +0.016 A 
ATOM     27  C   UNL     1      -2.332 -10.494  13.033  0.00  0.00    +0.016 A 
ATOM     29  C   UNL     1      -4.781 -10.597  14.367  0.00  0.00    +0.046 A 
ATOM     30  C   UNL     1      -2.368 -10.714  14.410  0.00  0.00    +0.046 A 
ATOM     31  C   UNL     1      -3.592 -10.765  15.077  0.00  0.00    +0.120 A 
BRANCH  31   4
ATOM      4  O   UNL     1      -3.626 -10.980  16.421  0.00  0.00    -0.495 OA
ATOM     36  C   UNL     1      -4.912 -11.108  17.026  0.00  0.00    +0.277 C 
ENDBRANCH  31   4
ENDBRANCH  23  24
ENDBRANCH  15   5
BRANCH  11   1
ATOM      1  O   UNL     1      -7.241  -7.644   6.497  0.00  0.00    -0.391 OA
ATOM     38  H   UNL     1      -6.305  -7.382   6.505  0.00  0.00    +0.210 HD
ENDBRANCH  11   1
BRANCH  14  19
ATOM     19  C   UNL     1      -8.668  -8.430   4.051  0.00  0.00    +0.077 C 
ATOM     21  C   UNL     1      -9.875  -9.263   4.469  0.00  0.00    +0.017 C 
BRANCH  19  22
ATOM      2  O   UNL     1      -7.545  -8.003   1.948  0.00  0.00    -0.276 OA
ATOM      6  N   UNL     1      -9.808  -8.514   1.914  0.00  0.00    -0.311 N 
ATOM     22  C   UNL     1      -8.588  -8.288   2.535  0.00  0.00    +0.216 C 
ATOM     39  H   UNL     1     -10.611  -8.798   2.464  0.00  0.00    +0.149 HD
BRANCH   6  25
ATOM     25  C   UNL     1      -9.982  -8.435   0.482  0.00  0.00    +0.141 C 
BRANCH  25  28
ATOM      7  N   UNL     1     -11.940  -5.973  -1.615  0.00  0.00    -0.263 NA
ATOM     28  C   UNL     1     -10.704  -7.184   0.072  0.00  0.00    -0.012 A 
ATOM     32  C   UNL     1     -10.815  -6.104   0.940  0.00  0.00    +0.008 A 
ATOM     33  C   UNL     1     -11.280  -7.070  -1.183  0.00  0.00    +0.115 A 
ATOM     34  C   UNL     1     -11.488  -4.957   0.532  0.00  0.00    +0.020 A 
ATOM     35  C   UNL     1     -12.028  -4.943  -0.744  0.00  0.00    +0.111 A 
ENDBRANCH  25  28
ENDBRANCH   6  25
ENDBRANCH  19  22
ENDBRANCH  14  19
TORSDOF 8
ENDMDL
