MODEL 1
REMARK VINA RESULT:      -7.3      0.000      0.000
REMARK  Name = 25338306
REMARK  7 active torsions:
REMARK  status: ('A' for Active; 'I' for Inactive)
REMARK    1  A    between atoms: S_1  and  N_6
REMARK    2  A    between atoms: S_1  and  C_17
REMARK    3  A    between atoms: N_5  and  C_16
REMARK    4  A    between atoms: N_6  and  C_11
REMARK    5  A    between atoms: C_12  and  C_15
REMARK    6  A    between atoms: C_18  and  C_23
REMARK    7  A    between atoms: C_24  and  C_25
REMARK                            x       y       z     vdW  Elec       q    Type
REMARK                         _______ _______ _______ _____ _____    ______ ____
ROOT
ATOM      5  N   UNL     1      11.360   6.848  21.710  0.00  0.00    -0.293 NA
ATOM     11  C   UNL     1      10.630   9.034  22.065  0.00  0.00    +0.092 C 
ATOM     12  C   UNL     1      11.629   7.526  20.427  0.00  0.00    +0.147 C 
ATOM     13  C   UNL     1      11.329   9.011  20.709  0.00  0.00    +0.050 C 
ATOM     14  C   UNL     1      10.254   7.585  22.328  0.00  0.00    +0.105 C 
ATOM     16  C   UNL     1      11.051   5.431  21.558  0.00  0.00    +0.105 C 
ENDROOT
BRANCH  12  15
ATOM      2  O   UNL     1      13.240   7.573  18.591  0.00  0.00    -0.336 OA
ATOM      7  N   UNL     1      14.097   6.883  20.543  0.00  0.00    -0.189 NA
ATOM      8  N   UNL     1      14.592   7.296  18.347  0.00  0.00    -0.054 NA
ATOM     15  C   UNL     1      13.033   7.304  19.907  0.00  0.00    +0.245 A 
ATOM     18  C   UNL     1      15.028   6.895  19.544  0.00  0.00    +0.222 A 
BRANCH  18  23
ATOM      9  N   UNL     1      16.955   5.708  18.848  0.00  0.00    -0.249 NA
ATOM     10  N   UNL     1      18.348   6.549  21.133  0.00  0.00    -0.260 NA
ATOM     23  C   UNL     1      16.387   6.500  19.779  0.00  0.00    +0.129 A 
ATOM     26  C   UNL     1      17.071   6.913  20.901  0.00  0.00    +0.142 A 
ATOM     27  C   UNL     1      18.233   5.343  19.080  0.00  0.00    +0.131 A 
ATOM     28  C   UNL     1      18.916   5.756  20.203  0.00  0.00    +0.130 A 
ENDBRANCH  18  23
ENDBRANCH  12  15
BRANCH  11   6
ATOM      6  N   UNL     1      11.571   9.514  23.110  0.00  0.00    -0.186 NA
ATOM     29  H   UNL     1      11.769   8.880  23.893  0.00  0.00    +0.148 HD
BRANCH   6   1
ATOM      1  S   UNL     1      11.950  11.164  23.208  0.00  0.00    +0.059 S 
ATOM      3  O   UNL     1      12.095  11.546  24.600  0.00  0.00    -0.153 OA
ATOM      4  O   UNL     1      11.052  11.901  22.340  0.00  0.00    -0.153 OA
BRANCH   1  17
ATOM     17  C   UNL     1      13.551  11.217  22.459  0.00  0.00    +0.105 A 
ATOM     19  C   UNL     1      14.372  10.089  22.489  0.00  0.00    +0.029 A 
ATOM     20  C   UNL     1      13.994  12.386  21.841  0.00  0.00    +0.029 A 
ATOM     21  C   UNL     1      15.636  10.131  21.901  0.00  0.00    +0.005 A 
ATOM     22  C   UNL     1      15.258  12.428  21.252  0.00  0.00    +0.005 A 
ATOM     24  C   UNL     1      16.078  11.301  21.283  0.00  0.00    -0.050 A 
ATOM     25  C   UNL     1      17.430  11.346  20.653  0.00  0.00    +0.044 C 
ENDBRANCH   1  17
ENDBRANCH   6   1
ENDBRANCH  11   6
TORSDOF 5
ENDMDL
MODEL 2
REMARK VINA RESULT:      -7.0     26.779     28.954
REMARK  Name = 25338306
REMARK  7 active torsions:
REMARK  status: ('A' for Active; 'I' for Inactive)
REMARK    1  A    between atoms: S_1  and  N_6
REMARK    2  A    between atoms: S_1  and  C_17
REMARK    3  A    between atoms: N_5  and  C_16
REMARK    4  A    between atoms: N_6  and  C_11
REMARK    5  A    between atoms: C_12  and  C_15
REMARK    6  A    between atoms: C_18  and  C_23
REMARK    7  A    between atoms: C_24  and  C_25
REMARK                            x       y       z     vdW  Elec       q    Type
REMARK                         _______ _______ _______ _____ _____    ______ ____
ROOT
ATOM      5  N   UNL     1      -6.015 -11.884  17.481  0.00  0.00    -0.293 NA
ATOM     11  C   UNL     1      -3.883 -11.152  16.881  0.00  0.00    +0.092 C 
ATOM     12  C   UNL     1      -6.119 -10.412  17.520  0.00  0.00    +0.147 C 
ATOM     13  C   UNL     1      -4.779  -9.918  16.944  0.00  0.00    +0.050 C 
ATOM     14  C   UNL     1      -4.603 -12.191  17.725  0.00  0.00    +0.105 C 
ATOM     16  C   UNL     1      -6.889 -12.548  18.440  0.00  0.00    +0.105 C 
ENDROOT
BRANCH  12  15
ATOM      2  O   UNL     1      -7.467 -10.300  15.485  0.00  0.00    -0.336 OA
ATOM      7  N   UNL     1      -8.236  -9.030  17.164  0.00  0.00    -0.189 NA
ATOM      8  N   UNL     1      -8.621  -9.670  15.001  0.00  0.00    -0.054 NA
ATOM     15  C   UNL     1      -7.313  -9.869  16.765  0.00  0.00    +0.245 A 
ATOM     18  C   UNL     1      -9.016  -8.939  16.047  0.00  0.00    +0.222 A 
BRANCH  18  23
ATOM      9  N   UNL     1      -9.991  -6.804  15.735  0.00  0.00    -0.249 NA
ATOM     10  N   UNL     1     -12.545  -7.855  16.223  0.00  0.00    -0.260 NA
ATOM     23  C   UNL     1     -10.185  -8.108  16.012  0.00  0.00    +0.129 A 
ATOM     26  C   UNL     1     -11.439  -8.624  16.252  0.00  0.00    +0.142 A 
ATOM     27  C   UNL     1     -11.097  -6.033  15.705  0.00  0.00    +0.131 A 
ATOM     28  C   UNL     1     -12.351  -6.550  15.945  0.00  0.00    +0.130 A 
ENDBRANCH  18  23
ENDBRANCH  12  15
BRANCH  11   6
ATOM      6  N   UNL     1      -3.773 -11.625  15.477  0.00  0.00    -0.186 NA
ATOM     29  H   UNL     1      -4.503 -12.261  15.134  0.00  0.00    +0.148 HD
BRANCH   6   1
ATOM      1  S   UNL     1      -2.305 -11.457  14.644  0.00  0.00    +0.059 S 
ATOM      3  O   UNL     1      -1.771 -12.769  14.334  0.00  0.00    -0.153 OA
ATOM      4  O   UNL     1      -1.485 -10.481  15.337  0.00  0.00    -0.153 OA
BRANCH   1  17
ATOM     17  C   UNL     1      -2.827 -10.710  13.129  0.00  0.00    +0.105 A 
ATOM     19  C   UNL     1      -4.184 -10.486  12.893  0.00  0.00    +0.029 A 
ATOM     20  C   UNL     1      -1.883 -10.346  12.169  0.00  0.00    +0.029 A 
ATOM     21  C   UNL     1      -4.596  -9.900  11.697  0.00  0.00    +0.005 A 
ATOM     22  C   UNL     1      -2.295  -9.759  10.972  0.00  0.00    +0.005 A 
ATOM     24  C   UNL     1      -3.651  -9.536  10.737  0.00  0.00    -0.050 A 
ATOM     25  C   UNL     1      -4.093  -8.908   9.458  0.00  0.00    +0.044 C 
ENDBRANCH   1  17
ENDBRANCH   6   1
ENDBRANCH  11   6
TORSDOF 5
ENDMDL
MODEL 3
REMARK VINA RESULT:      -6.8     28.618     31.263
REMARK  Name = 25338306
REMARK  7 active torsions:
REMARK  status: ('A' for Active; 'I' for Inactive)
REMARK    1  A    between atoms: S_1  and  N_6
REMARK    2  A    between atoms: S_1  and  C_17
REMARK    3  A    between atoms: N_5  and  C_16
REMARK    4  A    between atoms: N_6  and  C_11
REMARK    5  A    between atoms: C_12  and  C_15
REMARK    6  A    between atoms: C_18  and  C_23
REMARK    7  A    between atoms: C_24  and  C_25
REMARK                            x       y       z     vdW  Elec       q    Type
REMARK                         _______ _______ _______ _____ _____    ______ ____
ROOT
ATOM      5  N   UNL     1     -17.773   1.073  26.766  0.00  0.00    -0.293 NA
ATOM     11  C   UNL     1     -16.671   1.380  28.799  0.00  0.00    +0.092 C 
ATOM     12  C   UNL     1     -17.461   2.515  26.788  0.00  0.00    +0.147 C 
ATOM     13  C   UNL     1     -16.568   2.695  28.031  0.00  0.00    +0.050 C 
ATOM     14  C   UNL     1     -17.853   0.661  28.171  0.00  0.00    +0.105 C 
ATOM     16  C   UNL     1     -18.997   0.761  26.038  0.00  0.00    +0.105 C 
ENDROOT
BRANCH  12  15
ATOM      2  O   UNL     1     -16.675   2.109  24.510  0.00  0.00    -0.336 OA
ATOM      7  N   UNL     1     -16.316   4.195  25.244  0.00  0.00    -0.189 NA
ATOM      8  N   UNL     1     -16.042   2.788  23.460  0.00  0.00    -0.054 NA
ATOM     15  C   UNL     1     -16.798   3.010  25.520  0.00  0.00    +0.245 A 
ATOM     18  C   UNL     1     -15.863   4.010  23.969  0.00  0.00    +0.222 A 
BRANCH  18  23
ATOM      9  N   UNL     1     -14.124   4.750  22.543  0.00  0.00    -0.249 NA
ATOM     10  N   UNL     1     -15.174   7.352  22.546  0.00  0.00    -0.260 NA
ATOM     23  C   UNL     1     -15.237   5.070  23.232  0.00  0.00    +0.129 A 
ATOM     26  C   UNL     1     -15.752   6.347  23.234  0.00  0.00    +0.142 A 
ATOM     27  C   UNL     1     -13.545   5.755  21.854  0.00  0.00    +0.131 A 
ATOM     28  C   UNL     1     -14.060   7.032  21.857  0.00  0.00    +0.130 A 
ENDBRANCH  18  23
ENDBRANCH  12  15
BRANCH  11   6
ATOM      6  N   UNL     1     -15.430   0.586  28.606  0.00  0.00    -0.186 NA
ATOM     29  H   UNL     1     -15.207   0.284  27.650  0.00  0.00    +0.148 HD
BRANCH   6   1
ATOM      1  S   UNL     1     -14.672  -0.131  29.944  0.00  0.00    +0.059 S 
ATOM      3  O   UNL     1     -13.353  -0.597  29.562  0.00  0.00    -0.153 OA
ATOM      4  O   UNL     1     -15.609  -1.037  30.580  0.00  0.00    -0.153 OA
BRANCH   1  17
ATOM     17  C   UNL     1     -14.469   1.249  31.031  0.00  0.00    +0.105 A 
ATOM     19  C   UNL     1     -14.989   1.199  32.325  0.00  0.00    +0.029 A 
ATOM     20  C   UNL     1     -13.791   2.386  30.596  0.00  0.00    +0.029 A 
ATOM     21  C   UNL     1     -14.831   2.288  33.182  0.00  0.00    +0.005 A 
ATOM     22  C   UNL     1     -13.632   3.476  31.453  0.00  0.00    +0.005 A 
ATOM     24  C   UNL     1     -14.152   3.426  32.745  0.00  0.00    -0.050 A 
ATOM     25  C   UNL     1     -13.983   4.590  33.662  0.00  0.00    +0.044 C 
ENDBRANCH   1  17
ENDBRANCH   6   1
ENDBRANCH  11   6
TORSDOF 5
ENDMDL
MODEL 4
REMARK VINA RESULT:      -6.3      2.458      3.523
REMARK  Name = 25338306
REMARK  7 active torsions:
REMARK  status: ('A' for Active; 'I' for Inactive)
REMARK    1  A    between atoms: S_1  and  N_6
REMARK    2  A    between atoms: S_1  and  C_17
REMARK    3  A    between atoms: N_5  and  C_16
REMARK    4  A    between atoms: N_6  and  C_11
REMARK    5  A    between atoms: C_12  and  C_15
REMARK    6  A    between atoms: C_18  and  C_23
REMARK    7  A    between atoms: C_24  and  C_25
REMARK                            x       y       z     vdW  Elec       q    Type
REMARK                         _______ _______ _______ _____ _____    ______ ____
ROOT
ATOM      5  N   UNL     1      12.547   7.704  21.669  0.00  0.00    -0.293 NA
ATOM     11  C   UNL     1      12.496  10.020  21.943  0.00  0.00    +0.092 C 
ATOM     12  C   UNL     1      13.292   8.217  20.503  0.00  0.00    +0.147 C 
ATOM     13  C   UNL     1      13.430   9.728  20.772  0.00  0.00    +0.050 C 
ATOM     14  C   UNL     1      11.628   8.777  22.060  0.00  0.00    +0.105 C 
ATOM     16  C   UNL     1      11.840   6.458  21.396  0.00  0.00    +0.105 C 
ENDROOT
BRANCH  12  15
ATOM      2  O   UNL     1      14.701   6.645  19.271  0.00  0.00    -0.336 OA
ATOM      7  N   UNL     1      15.746   7.682  20.959  0.00  0.00    -0.189 NA
ATOM      8  N   UNL     1      16.014   6.157  19.275  0.00  0.00    -0.054 NA
ATOM     15  C   UNL     1      14.629   7.539  20.293  0.00  0.00    +0.245 A 
ATOM     18  C   UNL     1      16.567   6.815  20.298  0.00  0.00    +0.222 A 
BRANCH  18  23
ATOM      9  N   UNL     1      18.623   5.670  20.035  0.00  0.00    -0.249 NA
ATOM     10  N   UNL     1      19.797   7.235  22.045  0.00  0.00    -0.260 NA
ATOM     23  C   UNL     1      17.936   6.631  20.685  0.00  0.00    +0.129 A 
ATOM     26  C   UNL     1      18.512   7.399  21.672  0.00  0.00    +0.142 A 
ATOM     27  C   UNL     1      19.909   5.506  20.408  0.00  0.00    +0.131 A 
ATOM     28  C   UNL     1      20.484   6.275  21.395  0.00  0.00    +0.130 A 
ENDBRANCH  18  23
ENDBRANCH  12  15
BRANCH  11   6
ATOM      6  N   UNL     1      13.289  10.206  23.186  0.00  0.00    -0.186 NA
ATOM     29  H   UNL     1      13.301   9.429  23.858  0.00  0.00    +0.148 HD
BRANCH   6   1
ATOM      1  S   UNL     1      13.783  11.762  23.645  0.00  0.00    +0.059 S 
ATOM      3  O   UNL     1      14.766  12.256  22.700  0.00  0.00    -0.153 OA
ATOM      4  O   UNL     1      14.075  11.758  25.065  0.00  0.00    -0.153 OA
BRANCH   1  17
ATOM     17  C   UNL     1      12.299  12.697  23.425  0.00  0.00    +0.105 A 
ATOM     19  C   UNL     1      12.149  13.514  22.304  0.00  0.00    +0.029 A 
ATOM     20  C   UNL     1      11.279  12.619  24.373  0.00  0.00    +0.029 A 
ATOM     21  C   UNL     1      10.980  14.254  22.132  0.00  0.00    +0.005 A 
ATOM     22  C   UNL     1      10.108  13.359  24.201  0.00  0.00    +0.005 A 
ATOM     24  C   UNL     1       9.960  14.176  23.081  0.00  0.00    -0.050 A 
ATOM     25  C   UNL     1       8.708  14.967  22.896  0.00  0.00    +0.044 C 
ENDBRANCH   1  17
ENDBRANCH   6   1
ENDBRANCH  11   6
TORSDOF 5
ENDMDL
MODEL 5
REMARK VINA RESULT:      -6.2     17.566     20.079
REMARK  Name = 25338306
REMARK  7 active torsions:
REMARK  status: ('A' for Active; 'I' for Inactive)
REMARK    1  A    between atoms: S_1  and  N_6
REMARK    2  A    between atoms: S_1  and  C_17
REMARK    3  A    between atoms: N_5  and  C_16
REMARK    4  A    between atoms: N_6  and  C_11
REMARK    5  A    between atoms: C_12  and  C_15
REMARK    6  A    between atoms: C_18  and  C_23
REMARK    7  A    between atoms: C_24  and  C_25
REMARK                            x       y       z     vdW  Elec       q    Type
REMARK                         _______ _______ _______ _____ _____    ______ ____
ROOT
ATOM      5  N   UNL     1      12.041   7.800   2.626  0.00  0.00    -0.293 NA
ATOM     11  C   UNL     1      12.482   6.043   1.157  0.00  0.00    +0.092 C 
ATOM     12  C   UNL     1      10.730   7.147   2.449  0.00  0.00    +0.147 C 
ATOM     13  C   UNL     1      11.042   5.876   1.636  0.00  0.00    +0.050 C 
ATOM     14  C   UNL     1      12.801   7.507   1.407  0.00  0.00    +0.105 C 
ATOM     16  C   UNL     1      11.940   9.234   2.872  0.00  0.00    +0.105 C 
ENDROOT
BRANCH  12  15
ATOM      2  O   UNL     1       8.709   7.185   3.822  0.00  0.00    -0.336 OA
ATOM      7  N   UNL     1      10.494   6.296   4.844  0.00  0.00    -0.189 NA
ATOM      8  N   UNL     1       8.280   6.815   5.103  0.00  0.00    -0.054 NA
ATOM     15  C   UNL     1      10.023   6.844   3.753  0.00  0.00    +0.245 A 
ATOM     18  C   UNL     1       9.387   6.299   5.644  0.00  0.00    +0.222 A 
BRANCH  18  23
ATOM      9  N   UNL     1       8.991   6.595   7.960  0.00  0.00    -0.249 NA
ATOM     10  N   UNL     1       9.919   4.001   8.491  0.00  0.00    -0.260 NA
ATOM     23  C   UNL     1       9.424   5.777   6.980  0.00  0.00    +0.129 A 
ATOM     26  C   UNL     1       9.880   4.503   7.241  0.00  0.00    +0.142 A 
ATOM     27  C   UNL     1       9.030   6.093   9.211  0.00  0.00    +0.131 A 
ATOM     28  C   UNL     1       9.487   4.819   9.471  0.00  0.00    +0.130 A 
ENDBRANCH  18  23
ENDBRANCH  12  15
BRANCH  11   6
ATOM      6  N   UNL     1      13.384   5.180   1.962  0.00  0.00    -0.186 NA
ATOM     29  H   UNL     1      14.018   5.646   2.621  0.00  0.00    +0.148 HD
BRANCH   6   1
ATOM      1  S   UNL     1      13.640   3.568   1.501  0.00  0.00    +0.059 S 
ATOM      3  O   UNL     1      12.528   2.753   1.950  0.00  0.00    -0.153 OA
ATOM      4  O   UNL     1      15.000   3.196   1.842  0.00  0.00    -0.153 OA
BRANCH   1  17
ATOM     17  C   UNL     1      13.561   3.674  -0.262  0.00  0.00    +0.105 A 
ATOM     19  C   UNL     1      12.481   3.116  -0.946  0.00  0.00    +0.029 A 
ATOM     20  C   UNL     1      14.579   4.313  -0.969  0.00  0.00    +0.029 A 
ATOM     21  C   UNL     1      12.419   3.197  -2.337  0.00  0.00    +0.005 A 
ATOM     22  C   UNL     1      14.518   4.395  -2.360  0.00  0.00    +0.005 A 
ATOM     24  C   UNL     1      13.438   3.836  -3.043  0.00  0.00    -0.050 A 
ATOM     25  C   UNL     1      13.371   3.923  -4.531  0.00  0.00    +0.044 C 
ENDBRANCH   1  17
ENDBRANCH   6   1
ENDBRANCH  11   6
TORSDOF 5
ENDMDL
MODEL 6
REMARK VINA RESULT:      -6.2     26.736     28.915
REMARK  Name = 25338306
REMARK  7 active torsions:
REMARK  status: ('A' for Active; 'I' for Inactive)
REMARK    1  A    between atoms: S_1  and  N_6
REMARK    2  A    between atoms: S_1  and  C_17
REMARK    3  A    between atoms: N_5  and  C_16
REMARK    4  A    between atoms: N_6  and  C_11
REMARK    5  A    between atoms: C_12  and  C_15
REMARK    6  A    between atoms: C_18  and  C_23
REMARK    7  A    between atoms: C_24  and  C_25
REMARK                            x       y       z     vdW  Elec       q    Type
REMARK                         _______ _______ _______ _____ _____    ______ ____
ROOT
ATOM      5  N   UNL     1      -4.367 -12.670  15.708  0.00  0.00    -0.293 NA
ATOM     11  C   UNL     1      -2.660 -11.321  14.868  0.00  0.00    +0.092 C 
ATOM     12  C   UNL     1      -4.082 -11.731  16.809  0.00  0.00    +0.147 C 
ATOM     13  C   UNL     1      -3.094 -10.716  16.201  0.00  0.00    +0.050 C 
ATOM     14  C   UNL     1      -3.127 -12.765  14.932  0.00  0.00    +0.105 C 
ATOM     16  C   UNL     1      -4.820 -13.977  16.170  0.00  0.00    +0.105 C 
ENDROOT
BRANCH  12  15
ATOM      2  O   UNL     1      -5.323 -10.839  18.716  0.00  0.00    -0.336 OA
ATOM      7  N   UNL     1      -6.408 -10.679  16.763  0.00  0.00    -0.189 NA
ATOM      8  N   UNL     1      -6.552 -10.230  19.001  0.00  0.00    -0.054 NA
ATOM     15  C   UNL     1      -5.320 -11.069  17.376  0.00  0.00    +0.245 A 
ATOM     18  C   UNL     1      -7.134 -10.171  17.801  0.00  0.00    +0.222 A 
BRANCH  18  23
ATOM      9  N   UNL     1      -8.538  -8.617  16.694  0.00  0.00    -0.249 NA
ATOM     10  N   UNL     1     -10.762  -9.544  18.129  0.00  0.00    -0.260 NA
ATOM     23  C   UNL     1      -8.439  -9.609  17.602  0.00  0.00    +0.129 A 
ATOM     26  C   UNL     1      -9.532 -10.064  18.307  0.00  0.00    +0.142 A 
ATOM     27  C   UNL     1      -9.769  -8.097  16.516  0.00  0.00    +0.131 A 
ATOM     28  C   UNL     1     -10.861  -8.552  17.222  0.00  0.00    +0.130 A 
ENDBRANCH  18  23
ENDBRANCH  12  15
BRANCH  11   6
ATOM      6  N   UNL     1      -3.339 -10.616  13.750  0.00  0.00    -0.186 NA
ATOM     29  H   UNL     1      -4.309 -10.314  13.902  0.00  0.00    +0.148 HD
BRANCH   6   1
ATOM      1  S   UNL     1      -2.687 -10.692  12.186  0.00  0.00    +0.059 S 
ATOM      3  O   UNL     1      -2.621 -12.075  11.756  0.00  0.00    -0.153 OA
ATOM      4  O   UNL     1      -1.504  -9.855  12.134  0.00  0.00    -0.153 OA
BRANCH   1  17
ATOM     17  C   UNL     1      -3.935  -9.883  11.230  0.00  0.00    +0.105 A 
ATOM     19  C   UNL     1      -5.185  -9.623  11.792  0.00  0.00    +0.029 A 
ATOM     20  C   UNL     1      -3.670  -9.506   9.913  0.00  0.00    +0.029 A 
ATOM     21  C   UNL     1      -6.170  -8.988  11.037  0.00  0.00    +0.005 A 
ATOM     22  C   UNL     1      -4.655  -8.870   9.158  0.00  0.00    +0.005 A 
ATOM     24  C   UNL     1      -5.905  -8.611   9.720  0.00  0.00    -0.050 A 
ATOM     25  C   UNL     1      -6.959  -7.931   8.913  0.00  0.00    +0.044 C 
ENDBRANCH   1  17
ENDBRANCH   6   1
ENDBRANCH  11   6
TORSDOF 5
ENDMDL
MODEL 7
REMARK VINA RESULT:      -6.2     27.602     30.848
REMARK  Name = 25338306
REMARK  7 active torsions:
REMARK  status: ('A' for Active; 'I' for Inactive)
REMARK    1  A    between atoms: S_1  and  N_6
REMARK    2  A    between atoms: S_1  and  C_17
REMARK    3  A    between atoms: N_5  and  C_16
REMARK    4  A    between atoms: N_6  and  C_11
REMARK    5  A    between atoms: C_12  and  C_15
REMARK    6  A    between atoms: C_18  and  C_23
REMARK    7  A    between atoms: C_24  and  C_25
REMARK                            x       y       z     vdW  Elec       q    Type
REMARK                         _______ _______ _______ _____ _____    ______ ____
ROOT
ATOM      5  N   UNL     1     -18.025   2.911  25.426  0.00  0.00    -0.293 NA
ATOM     11  C   UNL     1     -16.580   3.206  23.619  0.00  0.00    +0.092 C 
ATOM     12  C   UNL     1     -16.708   2.502  25.953  0.00  0.00    +0.147 C 
ATOM     13  C   UNL     1     -15.716   2.872  24.833  0.00  0.00    +0.050 C 
ATOM     14  C   UNL     1     -17.963   2.688  23.978  0.00  0.00    +0.105 C 
ATOM     16  C   UNL     1     -19.136   2.193  26.038  0.00  0.00    +0.105 C 
ENDROOT
BRANCH  12  15
ATOM      2  O   UNL     1     -16.756   4.437  27.444  0.00  0.00    -0.336 OA
ATOM      7  N   UNL     1     -15.717   2.647  28.301  0.00  0.00    -0.189 NA
ATOM      8  N   UNL     1     -16.325   4.811  28.724  0.00  0.00    -0.054 NA
ATOM     15  C   UNL     1     -16.358   3.148  27.276  0.00  0.00    +0.245 A 
ATOM     18  C   UNL     1     -15.721   3.704  29.164  0.00  0.00    +0.222 A 
BRANCH  18  23
ATOM      9  N   UNL     1     -15.871   4.004  31.508  0.00  0.00    -0.249 NA
ATOM     10  N   UNL     1     -13.243   3.081  31.835  0.00  0.00    -0.260 NA
ATOM     23  C   UNL     1     -15.115   3.619  30.461  0.00  0.00    +0.129 A 
ATOM     26  C   UNL     1     -13.824   3.166  30.622  0.00  0.00    +0.142 A 
ATOM     27  C   UNL     1     -15.290   3.920  32.722  0.00  0.00    +0.131 A 
ATOM     28  C   UNL     1     -13.999   3.467  32.882  0.00  0.00    +0.130 A 
ENDBRANCH  18  23
ENDBRANCH  12  15
BRANCH  11   6
ATOM      6  N   UNL     1     -16.622   4.677  23.420  0.00  0.00    -0.186 NA
ATOM     29  H   UNL     1     -16.755   5.262  24.253  0.00  0.00    +0.148 HD
BRANCH   6   1
ATOM      1  S   UNL     1     -16.864   5.310  21.865  0.00  0.00    +0.059 S 
ATOM      3  O   UNL     1     -17.765   6.444  21.938  0.00  0.00    -0.153 OA
ATOM      4  O   UNL     1     -17.142   4.216  20.955  0.00  0.00    -0.153 OA
BRANCH   1  17
ATOM     17  C   UNL     1     -15.253   5.919  21.463  0.00  0.00    +0.105 A 
ATOM     19  C   UNL     1     -15.113   6.991  20.582  0.00  0.00    +0.029 A 
ATOM     20  C   UNL     1     -14.123   5.327  22.026  0.00  0.00    +0.029 A 
ATOM     21  C   UNL     1     -13.843   7.470  20.262  0.00  0.00    +0.005 A 
ATOM     22  C   UNL     1     -12.852   5.805  21.708  0.00  0.00    +0.005 A 
ATOM     24  C   UNL     1     -12.713   6.877  20.826  0.00  0.00    -0.050 A 
ATOM     25  C   UNL     1     -11.354   7.389  20.484  0.00  0.00    +0.044 C 
ENDBRANCH   1  17
ENDBRANCH   6   1
ENDBRANCH  11   6
TORSDOF 5
ENDMDL
MODEL 8
REMARK VINA RESULT:      -6.1     27.628     30.319
REMARK  Name = 25338306
REMARK  7 active torsions:
REMARK  status: ('A' for Active; 'I' for Inactive)
REMARK    1  A    between atoms: S_1  and  N_6
REMARK    2  A    between atoms: S_1  and  C_17
REMARK    3  A    between atoms: N_5  and  C_16
REMARK    4  A    between atoms: N_6  and  C_11
REMARK    5  A    between atoms: C_12  and  C_15
REMARK    6  A    between atoms: C_18  and  C_23
REMARK    7  A    between atoms: C_24  and  C_25
REMARK                            x       y       z     vdW  Elec       q    Type
REMARK                         _______ _______ _______ _____ _____    ______ ____
ROOT
ATOM      5  N   UNL     1     -10.324 -10.523  16.275  0.00  0.00    -0.293 NA
ATOM     11  C   UNL     1      -9.645 -10.588  18.505  0.00  0.00    +0.092 C 
ATOM     12  C   UNL     1     -11.263  -9.614  16.959  0.00  0.00    +0.147 C 
ATOM     13  C   UNL     1     -10.709  -9.499  18.392  0.00  0.00    +0.050 C 
ATOM     14  C   UNL     1      -9.876 -11.477  17.295  0.00  0.00    +0.105 C 
ATOM     16  C   UNL     1     -10.912 -11.197  15.123  0.00  0.00    +0.105 C 
ENDROOT
BRANCH  12  15
ATOM      2  O   UNL     1     -10.436  -7.352  16.544  0.00  0.00    -0.336 OA
ATOM      7  N   UNL     1     -12.339  -7.843  15.468  0.00  0.00    -0.189 NA
ATOM      8  N   UNL     1     -10.780  -6.205  15.817  0.00  0.00    -0.054 NA
ATOM     15  C   UNL     1     -11.406  -8.268  16.281  0.00  0.00    +0.245 A 
ATOM     18  C   UNL     1     -11.911  -6.572  15.209  0.00  0.00    +0.222 A 
BRANCH  18  23
ATOM      9  N   UNL     1     -11.910  -4.832  13.604  0.00  0.00    -0.249 NA
ATOM     10  N   UNL     1     -14.709  -4.924  13.443  0.00  0.00    -0.260 NA
ATOM     23  C   UNL     1     -12.639  -5.697  14.337  0.00  0.00    +0.129 A 
ATOM     26  C   UNL     1     -14.013  -5.741  14.259  0.00  0.00    +0.142 A 
ATOM     27  C   UNL     1     -12.605  -4.014  12.788  0.00  0.00    +0.131 A 
ATOM     28  C   UNL     1     -13.980  -4.059  12.710  0.00  0.00    +0.130 A 
ENDBRANCH  18  23
ENDBRANCH  12  15
BRANCH  11   6
ATOM      6  N   UNL     1      -8.292  -9.978  18.439  0.00  0.00    -0.186 NA
ATOM     29  H   UNL     1      -8.161  -9.189  17.796  0.00  0.00    +0.148 HD
BRANCH   6   1
ATOM      1  S   UNL     1      -6.959 -10.816  19.071  0.00  0.00    +0.059 S 
ATOM      3  O   UNL     1      -7.319 -12.203  19.295  0.00  0.00    -0.153 OA
ATOM      4  O   UNL     1      -6.383 -10.030  20.146  0.00  0.00    -0.153 OA
BRANCH   1  17
ATOM     17  C   UNL     1      -5.818 -10.760  17.722  0.00  0.00    +0.105 A 
ATOM     19  C   UNL     1      -6.237 -10.296  16.474  0.00  0.00    +0.029 A 
ATOM     20  C   UNL     1      -4.501 -11.180  17.904  0.00  0.00    +0.029 A 
ATOM     21  C   UNL     1      -5.338 -10.255  15.409  0.00  0.00    +0.005 A 
ATOM     22  C   UNL     1      -3.602 -11.138  16.839  0.00  0.00    +0.005 A 
ATOM     24  C   UNL     1      -4.021 -10.675  15.591  0.00  0.00    -0.050 A 
ATOM     25  C   UNL     1      -3.059 -10.630  14.452  0.00  0.00    +0.044 C 
ENDBRANCH   1  17
ENDBRANCH   6   1
ENDBRANCH  11   6
TORSDOF 5
ENDMDL
MODEL 9
REMARK VINA RESULT:      -6.0     26.891     29.067
REMARK  Name = 25338306
REMARK  7 active torsions:
REMARK  status: ('A' for Active; 'I' for Inactive)
REMARK    1  A    between atoms: S_1  and  N_6
REMARK    2  A    between atoms: S_1  and  C_17
REMARK    3  A    between atoms: N_5  and  C_16
REMARK    4  A    between atoms: N_6  and  C_11
REMARK    5  A    between atoms: C_12  and  C_15
REMARK    6  A    between atoms: C_18  and  C_23
REMARK    7  A    between atoms: C_24  and  C_25
REMARK                            x       y       z     vdW  Elec       q    Type
REMARK                         _______ _______ _______ _____ _____    ______ ____
ROOT
ATOM      5  N   UNL     1      -5.083  -9.478  11.651  0.00  0.00    -0.293 NA
ATOM     11  C   UNL     1      -3.691 -10.999  12.743  0.00  0.00    +0.092 C 
ATOM     12  C   UNL     1      -5.976 -10.607  11.979  0.00  0.00    +0.147 C 
ATOM     13  C   UNL     1      -5.117 -11.530  12.865  0.00  0.00    +0.050 C 
ATOM     14  C   UNL     1      -3.736 -10.049  11.557  0.00  0.00    +0.105 C 
ATOM     16  C   UNL     1      -5.464  -8.781  10.429  0.00  0.00    +0.105 C 
ENDROOT
BRANCH  12  15
ATOM      2  O   UNL     1      -8.404 -10.338  11.933  0.00  0.00    -0.336 OA
ATOM      7  N   UNL     1      -7.447  -9.682  13.849  0.00  0.00    -0.189 NA
ATOM      8  N   UNL     1      -9.445  -9.886  12.754  0.00  0.00    -0.054 NA
ATOM     15  C   UNL     1      -7.263 -10.184  12.655  0.00  0.00    +0.245 A 
ATOM     18  C   UNL     1      -8.801  -9.516  13.865  0.00  0.00    +0.222 A 
BRANCH  18  23
ATOM      9  N   UNL     1     -10.735  -8.528  14.809  0.00  0.00    -0.249 NA
ATOM     10  N   UNL     1      -9.501  -8.422  17.326  0.00  0.00    -0.260 NA
ATOM     23  C   UNL     1      -9.480  -8.978  15.008  0.00  0.00    +0.129 A 
ATOM     26  C   UNL     1      -8.874  -8.925  16.244  0.00  0.00    +0.142 A 
ATOM     27  C   UNL     1     -11.363  -8.025  15.891  0.00  0.00    +0.131 A 
ATOM     28  C   UNL     1     -10.756  -7.972  17.127  0.00  0.00    +0.130 A 
ENDBRANCH  18  23
ENDBRANCH  12  15
BRANCH  11   6
ATOM      6  N   UNL     1      -3.322 -10.257  13.976  0.00  0.00    -0.186 NA
ATOM     29  H   UNL     1      -3.342  -9.231  13.933  0.00  0.00    +0.148 HD
BRANCH   6   1
ATOM      1  S   UNL     1      -2.513 -11.059  15.232  0.00  0.00    +0.059 S 
ATOM      3  O   UNL     1      -1.346 -10.292  15.625  0.00  0.00    -0.153 OA
ATOM      4  O   UNL     1      -2.379 -12.460  14.879  0.00  0.00    -0.153 OA
BRANCH   1  17
ATOM     17  C   UNL     1      -3.693 -10.968  16.545  0.00  0.00    +0.105 A 
ATOM     19  C   UNL     1      -4.858 -10.218  16.384  0.00  0.00    +0.029 A 
ATOM     20  C   UNL     1      -3.459 -11.643  17.742  0.00  0.00    +0.029 A 
ATOM     21  C   UNL     1      -5.788 -10.142  17.421  0.00  0.00    +0.005 A 
ATOM     22  C   UNL     1      -4.388 -11.569  18.780  0.00  0.00    +0.005 A 
ATOM     24  C   UNL     1      -5.553 -10.818  18.618  0.00  0.00    -0.050 A 
ATOM     25  C   UNL     1      -6.548 -10.738  19.727  0.00  0.00    +0.044 C 
ENDBRANCH   1  17
ENDBRANCH   6   1
ENDBRANCH  11   6
TORSDOF 5
ENDMDL
MODEL 10
REMARK VINA RESULT:      -6.0     14.363     16.292
REMARK  Name = 25338306
REMARK  7 active torsions:
REMARK  status: ('A' for Active; 'I' for Inactive)
REMARK    1  A    between atoms: S_1  and  N_6
REMARK    2  A    between atoms: S_1  and  C_17
REMARK    3  A    between atoms: N_5  and  C_16
REMARK    4  A    between atoms: N_6  and  C_11
REMARK    5  A    between atoms: C_12  and  C_15
REMARK    6  A    between atoms: C_18  and  C_23
REMARK    7  A    between atoms: C_24  and  C_25
REMARK                            x       y       z     vdW  Elec       q    Type
REMARK                         _______ _______ _______ _____ _____    ______ ____
ROOT
ATOM      5  N   UNL     1      13.533   9.153   5.826  0.00  0.00    -0.293 NA
ATOM     11  C   UNL     1      12.588   7.143   6.538  0.00  0.00    +0.092 C 
ATOM     12  C   UNL     1      14.672   8.406   6.395  0.00  0.00    +0.147 C 
ATOM     13  C   UNL     1      14.101   7.007   6.694  0.00  0.00    +0.050 C 
ATOM     14  C   UNL     1      12.340   8.641   6.507  0.00  0.00    +0.105 C 
ATOM     16  C   UNL     1      13.663  10.598   5.970  0.00  0.00    +0.105 C 
ENDROOT
BRANCH  12  15
ATOM      2  O   UNL     1      15.638   8.122   4.169  0.00  0.00    -0.336 OA
ATOM      7  N   UNL     1      17.147   8.513   5.778  0.00  0.00    -0.189 NA
ATOM      8  N   UNL     1      16.889   8.123   3.539  0.00  0.00    -0.054 NA
ATOM     15  C   UNL     1      15.880   8.359   5.485  0.00  0.00    +0.245 A 
ATOM     18  C   UNL     1      17.727   8.360   4.552  0.00  0.00    +0.222 A 
BRANCH  18  23
ATOM      9  N   UNL     1      19.845   7.303   4.482  0.00  0.00    -0.249 NA
ATOM     10  N   UNL     1      21.095   9.755   3.943  0.00  0.00    -0.260 NA
ATOM     23  C   UNL     1      19.147   8.452   4.375  0.00  0.00    +0.129 A 
ATOM     26  C   UNL     1      19.762   9.656   4.111  0.00  0.00    +0.142 A 
ATOM     27  C   UNL     1      21.179   7.402   4.315  0.00  0.00    +0.131 A 
ATOM     28  C   UNL     1      21.793   8.607   4.050  0.00  0.00    +0.130 A 
ENDBRANCH  18  23
ENDBRANCH  12  15
BRANCH  11   6
ATOM      6  N   UNL     1      12.156   6.528   5.257  0.00  0.00    -0.186 NA
ATOM     29  H   UNL     1      12.813   6.569   4.469  0.00  0.00    +0.148 HD
BRANCH   6   1
ATOM      1  S   UNL     1      10.518   6.166   5.006  0.00  0.00    +0.059 S 
ATOM      3  O   UNL     1      10.404   4.991   4.164  0.00  0.00    -0.153 OA
ATOM      4  O   UNL     1       9.821   7.387   4.652  0.00  0.00    -0.153 OA
BRANCH   1  17
ATOM     17  C   UNL     1       9.988   5.723   6.634  0.00  0.00    +0.105 A 
ATOM     19  C   UNL     1      10.186   4.423   7.102  0.00  0.00    +0.029 A 
ATOM     20  C   UNL     1       9.371   6.671   7.449  0.00  0.00    +0.029 A 
ATOM     21  C   UNL     1       9.765   4.072   8.384  0.00  0.00    +0.005 A 
ATOM     22  C   UNL     1       8.951   6.320   8.732  0.00  0.00    +0.005 A 
ATOM     24  C   UNL     1       9.148   5.021   9.199  0.00  0.00    -0.050 A 
ATOM     25  C   UNL     1       8.699   4.646  10.571  0.00  0.00    +0.044 C 
ENDBRANCH   1  17
ENDBRANCH   6   1
ENDBRANCH  11   6
TORSDOF 5
ENDMDL
