MODEL 1
REMARK VINA RESULT:      -7.7      0.000      0.000
REMARK  Name = 11911726
REMARK  7 active torsions:
REMARK  status: ('A' for Active; 'I' for Inactive)
REMARK    1  A    between atoms: N_6  and  C_13
REMARK    2  A    between atoms: N_7  and  C_14
REMARK    3  A    between atoms: N_10  and  C_34
REMARK    4  A    between atoms: N_10  and  C_35
REMARK    5  A    between atoms: N_10  and  C_36
REMARK    6  A    between atoms: C_17  and  C_19
REMARK    7  A    between atoms: C_22  and  C_28
REMARK                            x       y       z     vdW  Elec       q    Type
REMARK                         _______ _______ _______ _____ _____    ______ ____
ROOT
ATOM      1  O   UNL     1      -6.013 -11.651  10.047  0.00  0.00    -0.370 OA
ATOM      2  O   UNL     1      -4.963  -8.713  10.127  0.00  0.00    -0.370 OA
ATOM     11  C   UNL     1      -4.530  -9.896   9.433  0.00  0.00    +0.171 C 
ATOM     12  C   UNL     1      -4.738 -11.070  10.368  0.00  0.00    +0.171 C 
ATOM     13  C   UNL     1      -5.447 -10.186   8.267  0.00  0.00    +0.130 C 
ATOM     14  C   UNL     1      -4.779 -10.445  11.743  0.00  0.00    +0.130 C 
ATOM     15  C   UNL     1      -6.580 -10.953   8.929  0.00  0.00    +0.185 C 
ATOM     16  C   UNL     1      -5.347  -9.065  11.464  0.00  0.00    +0.185 C 
ENDROOT
BRANCH  14   7
ATOM      7  N   UNL     1      -3.439 -10.336  12.277  0.00  0.00    -0.306 N 
ATOM      8  N   UNL     1      -4.169 -10.701  14.477  0.00  0.00    -0.214 NA
ATOM      9  N   UNL     1      -1.836 -10.340  13.991  0.00  0.00    -0.223 NA
ATOM     18  C   UNL     1      -3.139 -10.462  13.621  0.00  0.00    +0.216 A 
ATOM     22  C   UNL     1      -3.840 -10.819  15.780  0.00  0.00    +0.076 A 
ATOM     23  C   UNL     1      -1.579 -10.469  15.309  0.00  0.00    +0.116 A 
ATOM     24  C   UNL     1      -2.550 -10.712  16.259  0.00  0.00    +0.048 A 
ATOM     38  H   UNL     1      -2.658 -10.210  11.643  0.00  0.00    +0.149 HD
BRANCH  22  28
ATOM     28  C   UNL     1      -4.947 -11.073  16.672  0.00  0.00    +0.001 A 
ATOM     30  C   UNL     1      -4.820 -10.817  18.038  0.00  0.00    +0.012 A 
ATOM     31  C   UNL     1      -6.149 -11.577  16.169  0.00  0.00    +0.012 A 
ATOM     32  C   UNL     1      -5.889 -11.064  18.898  0.00  0.00    +0.024 A 
ATOM     33  C   UNL     1      -7.219 -11.824  17.029  0.00  0.00    +0.024 A 
ATOM     34  C   UNL     1      -7.089 -11.567  18.395  0.00  0.00    +0.029 A 
BRANCH  34  10
ATOM     10  N   UNL     1      -8.171 -11.816  19.264  0.00  0.00    -0.336 N 
ATOM     35  C   UNL     1      -8.209 -13.026  20.062  0.00  0.00    +0.129 C 
ATOM     36  C   UNL     1      -9.267 -10.872  19.361  0.00  0.00    +0.129 C 
ENDBRANCH  34  10
ENDBRANCH  22  28
ENDBRANCH  14   7
BRANCH  13   6
ATOM      3  O   UNL     1      -6.179 -10.434   5.502  0.00  0.00    -0.270 OA
ATOM      6  N   UNL     1      -4.785 -10.991   7.269  0.00  0.00    -0.304 N 
ATOM     17  C   UNL     1      -5.214 -11.047   5.951  0.00  0.00    +0.245 C 
ATOM     37  H   UNL     1      -4.051 -11.613   7.594  0.00  0.00    +0.149 HD
BRANCH  17  19
ATOM      4  O   UNL     1      -1.445 -14.016   4.937  0.00  0.00    -0.453 OA
ATOM      5  O   UNL     1      -2.225 -14.415   2.692  0.00  0.00    -0.453 OA
ATOM     19  C   UNL     1      -4.440 -11.942   5.053  0.00  0.00    +0.040 A 
ATOM     20  C   UNL     1      -3.285 -12.526   5.535  0.00  0.00    +0.062 A 
ATOM     21  C   UNL     1      -4.911 -12.155   3.761  0.00  0.00    +0.017 A 
ATOM     25  C   UNL     1      -2.600 -13.349   4.663  0.00  0.00    +0.167 A 
ATOM     26  C   UNL     1      -4.199 -12.993   2.900  0.00  0.00    +0.050 A 
ATOM     27  C   UNL     1      -3.044 -13.577   3.382  0.00  0.00    +0.166 A 
ATOM     29  C   UNL     1      -1.214 -14.690   3.683  0.00  0.00    +0.466 C 
ENDBRANCH  17  19
ENDBRANCH  13   6
TORSDOF 5
ENDMDL
MODEL 2
REMARK VINA RESULT:      -7.5      3.002     11.913
REMARK  Name = 11911726
REMARK  7 active torsions:
REMARK  status: ('A' for Active; 'I' for Inactive)
REMARK    1  A    between atoms: N_6  and  C_13
REMARK    2  A    between atoms: N_7  and  C_14
REMARK    3  A    between atoms: N_10  and  C_34
REMARK    4  A    between atoms: N_10  and  C_35
REMARK    5  A    between atoms: N_10  and  C_36
REMARK    6  A    between atoms: C_17  and  C_19
REMARK    7  A    between atoms: C_22  and  C_28
REMARK                            x       y       z     vdW  Elec       q    Type
REMARK                         _______ _______ _______ _____ _____    ______ ____
ROOT
ATOM      1  O   UNL     1      -4.131 -12.610  11.992  0.00  0.00    -0.370 OA
ATOM      2  O   UNL     1      -3.132  -9.705  11.446  0.00  0.00    -0.370 OA
ATOM     11  C   UNL     1      -4.051 -10.268  12.398  0.00  0.00    +0.171 C 
ATOM     12  C   UNL     1      -4.807 -11.377  11.695  0.00  0.00    +0.171 C 
ATOM     13  C   UNL     1      -3.297 -10.977  13.500  0.00  0.00    +0.130 C 
ATOM     14  C   UNL     1      -4.668 -11.046  10.227  0.00  0.00    +0.130 C 
ATOM     15  C   UNL     1      -3.043 -12.345  12.890  0.00  0.00    +0.185 C 
ATOM     16  C   UNL     1      -3.328 -10.335  10.172  0.00  0.00    +0.185 C 
ENDROOT
BRANCH  14   7
ATOM      7  N   UNL     1      -5.727 -10.150   9.820  0.00  0.00    -0.306 N 
ATOM      8  N   UNL     1      -5.505 -10.738   7.560  0.00  0.00    -0.214 NA
ATOM      9  N   UNL     1      -7.150  -9.122   8.261  0.00  0.00    -0.223 NA
ATOM     18  C   UNL     1      -6.139  -9.998   8.508  0.00  0.00    +0.216 A 
ATOM     22  C   UNL     1      -5.933 -10.566   6.292  0.00  0.00    +0.076 A 
ATOM     23  C   UNL     1      -7.527  -9.000   6.972  0.00  0.00    +0.116 A 
ATOM     24  C   UNL     1      -6.949  -9.704   5.935  0.00  0.00    +0.048 A 
ATOM     38  H   UNL     1      -6.241  -9.633  10.525  0.00  0.00    +0.149 HD
BRANCH  22  28
ATOM     28  C   UNL     1      -5.247 -11.361   5.300  0.00  0.00    +0.001 A 
ATOM     30  C   UNL     1      -5.876 -11.669   4.092  0.00  0.00    +0.012 A 
ATOM     31  C   UNL     1      -3.953 -11.823   5.547  0.00  0.00    +0.012 A 
ATOM     32  C   UNL     1      -5.213 -12.438   3.135  0.00  0.00    +0.024 A 
ATOM     33  C   UNL     1      -3.290 -12.592   4.589  0.00  0.00    +0.024 A 
ATOM     34  C   UNL     1      -3.920 -12.899   3.383  0.00  0.00    +0.029 A 
BRANCH  34  10
ATOM     10  N   UNL     1      -3.250 -13.676   2.415  0.00  0.00    -0.336 N 
ATOM     35  C   UNL     1      -2.457 -14.821   2.814  0.00  0.00    +0.129 C 
ATOM     36  C   UNL     1      -3.334 -13.329   1.010  0.00  0.00    +0.129 C 
ENDBRANCH  34  10
ENDBRANCH  22  28
ENDBRANCH  14   7
BRANCH  13   6
ATOM      3  O   UNL     1      -2.382 -10.656  16.202  0.00  0.00    -0.270 OA
ATOM      6  N   UNL     1      -4.095 -11.079  14.698  0.00  0.00    -0.304 N 
ATOM     17  C   UNL     1      -3.561 -10.908  15.967  0.00  0.00    +0.245 C 
ATOM     37  H   UNL     1      -5.052 -11.398  14.585  0.00  0.00    +0.149 HD
BRANCH  17  19
ATOM      4  O   UNL     1      -8.009 -10.613  18.011  0.00  0.00    -0.453 OA
ATOM      5  O   UNL     1      -7.213 -11.465  20.121  0.00  0.00    -0.453 OA
ATOM     19  C   UNL     1      -4.510 -11.070  17.099  0.00  0.00    +0.040 A 
ATOM     20  C   UNL     1      -5.834 -10.725  16.908  0.00  0.00    +0.062 A 
ATOM     21  C   UNL     1      -4.026 -11.563  18.306  0.00  0.00    +0.017 A 
ATOM     25  C   UNL     1      -6.676 -10.893  17.988  0.00  0.00    +0.167 A 
ATOM     26  C   UNL     1      -4.900 -11.724  19.383  0.00  0.00    +0.050 A 
ATOM     27  C   UNL     1      -6.223 -11.379  19.192  0.00  0.00    +0.166 A 
ATOM     29  C   UNL     1      -8.342 -10.980  19.366  0.00  0.00    +0.466 C 
ENDBRANCH  17  19
ENDBRANCH  13   6
TORSDOF 5
ENDMDL
MODEL 3
REMARK VINA RESULT:      -7.4     29.084     33.207
REMARK  Name = 11911726
REMARK  7 active torsions:
REMARK  status: ('A' for Active; 'I' for Inactive)
REMARK    1  A    between atoms: N_6  and  C_13
REMARK    2  A    between atoms: N_7  and  C_14
REMARK    3  A    between atoms: N_10  and  C_34
REMARK    4  A    between atoms: N_10  and  C_35
REMARK    5  A    between atoms: N_10  and  C_36
REMARK    6  A    between atoms: C_17  and  C_19
REMARK    7  A    between atoms: C_22  and  C_28
REMARK                            x       y       z     vdW  Elec       q    Type
REMARK                         _______ _______ _______ _____ _____    ______ ____
ROOT
ATOM      1  O   UNL     1      20.971   6.208  23.897  0.00  0.00    -0.370 OA
ATOM      2  O   UNL     1      22.287   8.520  22.267  0.00  0.00    -0.370 OA
ATOM     11  C   UNL     1      21.130   7.695  22.048  0.00  0.00    +0.171 C 
ATOM     12  C   UNL     1      21.465   6.305  22.551  0.00  0.00    +0.171 C 
ATOM     13  C   UNL     1      19.991   8.143  22.935  0.00  0.00    +0.130 C 
ATOM     14  C   UNL     1      22.975   6.264  22.543  0.00  0.00    +0.130 C 
ATOM     15  C   UNL     1      20.293   7.425  24.240  0.00  0.00    +0.185 C 
ATOM     16  C   UNL     1      23.349   7.713  22.795  0.00  0.00    +0.185 C 
ENDROOT
BRANCH  14   7
ATOM      7  N   UNL     1      23.451   5.842  21.244  0.00  0.00    -0.306 N 
ATOM      8  N   UNL     1      23.951   3.680  22.007  0.00  0.00    -0.214 NA
ATOM      9  N   UNL     1      24.347   4.304  19.714  0.00  0.00    -0.223 NA
ATOM     18  C   UNL     1      23.931   4.572  20.981  0.00  0.00    +0.216 A 
ATOM     22  C   UNL     1      24.425   2.452  21.715  0.00  0.00    +0.076 A 
ATOM     23  C   UNL     1      24.808   3.057  19.492  0.00  0.00    +0.116 A 
ATOM     24  C   UNL     1      24.871   2.078  20.464  0.00  0.00    +0.048 A 
ATOM     38  H   UNL     1      23.392   6.481  20.460  0.00  0.00    +0.149 HD
BRANCH  22  28
ATOM     28  C   UNL     1      24.437   1.520  22.819  0.00  0.00    +0.001 A 
ATOM     30  C   UNL     1      25.508   0.637  22.979  0.00  0.00    +0.012 A 
ATOM     31  C   UNL     1      23.378   1.499  23.728  0.00  0.00    +0.012 A 
ATOM     32  C   UNL     1      25.517  -0.263  24.044  0.00  0.00    +0.024 A 
ATOM     33  C   UNL     1      23.388   0.599  24.794  0.00  0.00    +0.024 A 
ATOM     34  C   UNL     1      24.458  -0.282  24.953  0.00  0.00    +0.029 A 
BRANCH  34  10
ATOM     10  N   UNL     1      24.469  -1.192  26.030  0.00  0.00    -0.336 N 
ATOM     35  C   UNL     1      24.500  -2.620  25.786  0.00  0.00    +0.129 C 
ATOM     36  C   UNL     1      24.435  -0.710  27.397  0.00  0.00    +0.129 C 
ENDBRANCH  34  10
ENDBRANCH  22  28
ENDBRANCH  14   7
BRANCH  13   6
ATOM      3  O   UNL     1      18.259   9.698  21.253  0.00  0.00    -0.270 OA
ATOM      6  N   UNL     1      18.716   7.733  22.395  0.00  0.00    -0.304 N 
ATOM     17  C   UNL     1      17.947   8.558  21.589  0.00  0.00    +0.245 C 
ATOM     37  H   UNL     1      18.343   6.848  22.725  0.00  0.00    +0.149 HD
BRANCH  17  19
ATOM      4  O   UNL     1      13.077   8.056  21.860  0.00  0.00    -0.453 OA
ATOM      5  O   UNL     1      13.023   6.532  19.994  0.00  0.00    -0.453 OA
ATOM     19  C   UNL     1      16.648   7.998  21.135  0.00  0.00    +0.040 A 
ATOM     20  C   UNL     1      15.497   8.370  21.802  0.00  0.00    +0.062 A 
ATOM     21  C   UNL     1      16.644   7.120  20.056  0.00  0.00    +0.017 A 
ATOM     25  C   UNL     1      14.316   7.823  21.345  0.00  0.00    +0.167 A 
ATOM     26  C   UNL     1      15.434   6.581  19.613  0.00  0.00    +0.050 A 
ATOM     27  C   UNL     1      14.284   6.953  20.281  0.00  0.00    +0.166 A 
ATOM     29  C   UNL     1      12.263   7.235  20.998  0.00  0.00    +0.466 C 
ENDBRANCH  17  19
ENDBRANCH  13   6
TORSDOF 5
ENDMDL
MODEL 4
REMARK VINA RESULT:      -7.2     28.546     33.283
REMARK  Name = 11911726
REMARK  7 active torsions:
REMARK  status: ('A' for Active; 'I' for Inactive)
REMARK    1  A    between atoms: N_6  and  C_13
REMARK    2  A    between atoms: N_7  and  C_14
REMARK    3  A    between atoms: N_10  and  C_34
REMARK    4  A    between atoms: N_10  and  C_35
REMARK    5  A    between atoms: N_10  and  C_36
REMARK    6  A    between atoms: C_17  and  C_19
REMARK    7  A    between atoms: C_22  and  C_28
REMARK                            x       y       z     vdW  Elec       q    Type
REMARK                         _______ _______ _______ _____ _____    ______ ____
ROOT
ATOM      1  O   UNL     1      14.202  12.260  23.838  0.00  0.00    -0.370 OA
ATOM      2  O   UNL     1      11.355  13.522  24.027  0.00  0.00    -0.370 OA
ATOM     11  C   UNL     1      12.109  12.659  24.895  0.00  0.00    +0.171 C 
ATOM     12  C   UNL     1      12.889  11.703  24.015  0.00  0.00    +0.171 C 
ATOM     13  C   UNL     1      13.177  13.446  25.619  0.00  0.00    +0.130 C 
ATOM     14  C   UNL     1      12.137  11.711  22.704  0.00  0.00    +0.130 C 
ATOM     15  C   UNL     1      14.309  13.467  24.606  0.00  0.00    +0.185 C 
ATOM     16  C   UNL     1      11.549  13.109  22.666  0.00  0.00    +0.185 C 
ENDROOT
BRANCH  14   7
ATOM      7  N   UNL     1      11.080  10.724  22.735  0.00  0.00    -0.306 N 
ATOM      8  N   UNL     1      12.490   9.029  21.930  0.00  0.00    -0.214 NA
ATOM      9  N   UNL     1      10.177   8.579  22.433  0.00  0.00    -0.223 NA
ATOM     18  C   UNL     1      11.254   9.405  22.354  0.00  0.00    +0.216 A 
ATOM     22  C   UNL     1      12.624   7.737  21.567  0.00  0.00    +0.076 A 
ATOM     23  C   UNL     1      10.382   7.301  22.055  0.00  0.00    +0.116 A 
ATOM     24  C   UNL     1      11.595   6.818  21.609  0.00  0.00    +0.048 A 
ATOM     38  H   UNL     1      10.169  10.980  23.098  0.00  0.00    +0.149 HD
BRANCH  22  28
ATOM     28  C   UNL     1      13.944   7.358  21.120  0.00  0.00    +0.001 A 
ATOM     30  C   UNL     1      15.025   7.414  22.002  0.00  0.00    +0.012 A 
ATOM     31  C   UNL     1      14.142   6.935  19.804  0.00  0.00    +0.012 A 
ATOM     32  C   UNL     1      16.300   7.049  21.568  0.00  0.00    +0.024 A 
ATOM     33  C   UNL     1      15.417   6.569  19.371  0.00  0.00    +0.024 A 
ATOM     34  C   UNL     1      16.496   6.626  20.253  0.00  0.00    +0.029 A 
BRANCH  34  10
ATOM     10  N   UNL     1      17.784   6.256  19.815  0.00  0.00    -0.336 N 
ATOM     35  C   UNL     1      18.960   6.689  20.544  0.00  0.00    +0.129 C 
ATOM     36  C   UNL     1      17.950   5.449  18.622  0.00  0.00    +0.129 C 
ENDBRANCH  34  10
ENDBRANCH  22  28
ENDBRANCH  14   7
BRANCH  13   6
ATOM      3  O   UNL     1      14.744  14.571  27.746  0.00  0.00    -0.270 OA
ATOM      6  N   UNL     1      13.577  12.785  26.838  0.00  0.00    -0.304 N 
ATOM     17  C   UNL     1      14.339  13.413  27.812  0.00  0.00    +0.245 C 
ATOM     37  H   UNL     1      13.377  11.792  26.907  0.00  0.00    +0.149 HD
BRANCH  17  19
ATOM      4  O   UNL     1      16.689   9.713  30.012  0.00  0.00    -0.453 OA
ATOM      5  O   UNL     1      15.734  10.243  32.160  0.00  0.00    -0.453 OA
ATOM     19  C   UNL     1      14.690  12.587  28.996  0.00  0.00    +0.040 A 
ATOM     20  C   UNL     1      15.563  11.529  28.830  0.00  0.00    +0.062 A 
ATOM     21  C   UNL     1      14.125  12.913  30.225  0.00  0.00    +0.017 A 
ATOM     25  C   UNL     1      15.858  10.791  29.958  0.00  0.00    +0.167 A 
ATOM     26  C   UNL     1      14.442  12.150  31.351  0.00  0.00    +0.050 A 
ATOM     27  C   UNL     1      15.314  11.093  31.184  0.00  0.00    +0.166 A 
ATOM     29  C   UNL     1      16.605   9.372  31.411  0.00  0.00    +0.466 C 
ENDBRANCH  17  19
ENDBRANCH  13   6
TORSDOF 5
ENDMDL
MODEL 5
REMARK VINA RESULT:      -7.1     23.158     27.871
REMARK  Name = 11911726
REMARK  7 active torsions:
REMARK  status: ('A' for Active; 'I' for Inactive)
REMARK    1  A    between atoms: N_6  and  C_13
REMARK    2  A    between atoms: N_7  and  C_14
REMARK    3  A    between atoms: N_10  and  C_34
REMARK    4  A    between atoms: N_10  and  C_35
REMARK    5  A    between atoms: N_10  and  C_36
REMARK    6  A    between atoms: C_17  and  C_19
REMARK    7  A    between atoms: C_22  and  C_28
REMARK                            x       y       z     vdW  Elec       q    Type
REMARK                         _______ _______ _______ _____ _____    ______ ____
ROOT
ATOM      1  O   UNL     1     -13.354   3.330  31.328  0.00  0.00    -0.370 OA
ATOM      2  O   UNL     1     -15.301   1.357  32.760  0.00  0.00    -0.370 OA
ATOM     11  C   UNL     1     -15.408   2.157  31.570  0.00  0.00    +0.171 C 
ATOM     12  C   UNL     1     -14.691   3.464  31.838  0.00  0.00    +0.171 C 
ATOM     13  C   UNL     1     -14.620   1.529  30.443  0.00  0.00    +0.130 C 
ATOM     14  C   UNL     1     -14.668   3.570  33.345  0.00  0.00    +0.130 C 
ATOM     15  C   UNL     1     -13.215   2.047  30.701  0.00  0.00    +0.185 C 
ATOM     16  C   UNL     1     -14.637   2.117  33.780  0.00  0.00    +0.185 C 
ENDROOT
BRANCH  14   7
ATOM      7  N   UNL     1     -15.878   4.209  33.814  0.00  0.00    -0.306 N 
ATOM      8  N   UNL     1     -15.230   6.302  32.977  0.00  0.00    -0.214 NA
ATOM      9  N   UNL     1     -17.331   6.025  34.123  0.00  0.00    -0.223 NA
ATOM     18  C   UNL     1     -16.154   5.552  33.633  0.00  0.00    +0.216 A 
ATOM     22  C   UNL     1     -15.531   7.607  32.817  0.00  0.00    +0.076 A 
ATOM     23  C   UNL     1     -17.568   7.339  33.928  0.00  0.00    +0.116 A 
ATOM     24  C   UNL     1     -16.697   8.187  33.275  0.00  0.00    +0.048 A 
ATOM     38  H   UNL     1     -16.597   3.648  34.259  0.00  0.00    +0.149 HD
BRANCH  22  28
ATOM     28  C   UNL     1     -14.537   8.386  32.117  0.00  0.00    +0.001 A 
ATOM     30  C   UNL     1     -13.180   8.190  32.380  0.00  0.00    +0.012 A 
ATOM     31  C   UNL     1     -14.932   9.340  31.176  0.00  0.00    +0.012 A 
ATOM     32  C   UNL     1     -12.221   8.945  31.704  0.00  0.00    +0.024 A 
ATOM     33  C   UNL     1     -13.972  10.094  30.499  0.00  0.00    +0.024 A 
ATOM     34  C   UNL     1     -12.617   9.896  30.764  0.00  0.00    +0.029 A 
BRANCH  34  10
ATOM     10  N   UNL     1     -11.647  10.658  30.080  0.00  0.00    -0.336 N 
ATOM     35  C   UNL     1     -10.881  11.670  30.779  0.00  0.00    +0.129 C 
ATOM     36  C   UNL     1     -11.415  10.449  28.664  0.00  0.00    +0.129 C 
ENDBRANCH  34  10
ENDBRANCH  22  28
ENDBRANCH  14   7
BRANCH  13   6
ATOM      3  O   UNL     1     -16.717   0.312  28.905  0.00  0.00    -0.270 OA
ATOM      6  N   UNL     1     -15.110   1.964  29.157  0.00  0.00    -0.304 N 
ATOM     17  C   UNL     1     -16.132   1.308  28.487  0.00  0.00    +0.245 C 
ATOM     37  H   UNL     1     -14.595   2.710  28.700  0.00  0.00    +0.149 HD
BRANCH  17  19
ATOM      4  O   UNL     1     -17.522   0.876  23.804  0.00  0.00    -0.453 OA
ATOM      5  O   UNL     1     -17.537   3.264  23.477  0.00  0.00    -0.453 OA
ATOM     19  C   UNL     1     -16.503   1.866  27.161  0.00  0.00    +0.040 A 
ATOM     20  C   UNL     1     -16.833   0.991  26.143  0.00  0.00    +0.062 A 
ATOM     21  C   UNL     1     -16.503   3.247  26.997  0.00  0.00    +0.017 A 
ATOM     25  C   UNL     1     -17.170   1.556  24.930  0.00  0.00    +0.167 A 
ATOM     26  C   UNL     1     -16.849   3.793  25.759  0.00  0.00    +0.050 A 
ATOM     27  C   UNL     1     -17.178   2.918  24.743  0.00  0.00    +0.166 A 
ATOM     29  C   UNL     1     -17.755   1.966  22.888  0.00  0.00    +0.466 C 
ENDBRANCH  17  19
ENDBRANCH  13   6
TORSDOF 5
ENDMDL
MODEL 6
REMARK VINA RESULT:      -7.1      3.388     11.824
REMARK  Name = 11911726
REMARK  7 active torsions:
REMARK  status: ('A' for Active; 'I' for Inactive)
REMARK    1  A    between atoms: N_6  and  C_13
REMARK    2  A    between atoms: N_7  and  C_14
REMARK    3  A    between atoms: N_10  and  C_34
REMARK    4  A    between atoms: N_10  and  C_35
REMARK    5  A    between atoms: N_10  and  C_36
REMARK    6  A    between atoms: C_17  and  C_19
REMARK    7  A    between atoms: C_22  and  C_28
REMARK                            x       y       z     vdW  Elec       q    Type
REMARK                         _______ _______ _______ _____ _____    ______ ____
ROOT
ATOM      1  O   UNL     1      -5.409 -12.016  11.357  0.00  0.00    -0.370 OA
ATOM      2  O   UNL     1      -3.573  -9.515  11.024  0.00  0.00    -0.370 OA
ATOM     11  C   UNL     1      -4.536  -9.905  12.019  0.00  0.00    +0.171 C 
ATOM     12  C   UNL     1      -5.671 -10.604  11.298  0.00  0.00    +0.171 C 
ATOM     13  C   UNL     1      -3.957 -10.973  12.918  0.00  0.00    +0.130 C 
ATOM     14  C   UNL     1      -5.564 -10.111   9.874  0.00  0.00    +0.130 C 
ATOM     15  C   UNL     1      -4.218 -12.242  12.125  0.00  0.00    +0.185 C 
ATOM     16  C   UNL     1      -4.076  -9.850   9.723  0.00  0.00    +0.185 C 
ENDROOT
BRANCH  14   7
ATOM      7  N   UNL     1      -6.306  -8.879   9.720  0.00  0.00    -0.306 N 
ATOM      8  N   UNL     1      -6.811  -9.336   7.475  0.00  0.00    -0.214 NA
ATOM      9  N   UNL     1      -7.589  -7.314   8.531  0.00  0.00    -0.223 NA
ATOM     18  C   UNL     1      -6.920  -8.498   8.541  0.00  0.00    +0.216 A 
ATOM     22  C   UNL     1      -7.421  -8.934   6.341  0.00  0.00    +0.076 A 
ATOM     23  C   UNL     1      -8.175  -6.974   7.365  0.00  0.00    +0.116 A 
ATOM     24  C   UNL     1      -8.125  -7.752   6.226  0.00  0.00    +0.048 A 
ATOM     38  H   UNL     1      -6.438  -8.273  10.522  0.00  0.00    +0.149 HD
BRANCH  22  28
ATOM     28  C   UNL     1      -7.295  -9.837   5.222  0.00  0.00    +0.001 A 
ATOM     30  C   UNL     1      -8.208  -9.779   4.167  0.00  0.00    +0.012 A 
ATOM     31  C   UNL     1      -6.258 -10.772   5.192  0.00  0.00    +0.012 A 
ATOM     32  C   UNL     1      -8.085 -10.653   3.087  0.00  0.00    +0.024 A 
ATOM     33  C   UNL     1      -6.134 -11.646   4.111  0.00  0.00    +0.024 A 
ATOM     34  C   UNL     1      -7.048 -11.586   3.058  0.00  0.00    +0.029 A 
BRANCH  34  10
ATOM     10  N   UNL     1      -6.923 -12.470   1.966  0.00  0.00    -0.336 N 
ATOM     35  C   UNL     1      -7.721 -12.277   0.772  0.00  0.00    +0.129 C 
ATOM     36  C   UNL     1      -6.005 -13.590   2.030  0.00  0.00    +0.129 C 
ENDBRANCH  34  10
ENDBRANCH  22  28
ENDBRANCH  14   7
BRANCH  13   6
ATOM      3  O   UNL     1      -2.761 -10.619  15.505  0.00  0.00    -0.270 OA
ATOM      6  N   UNL     1      -4.634 -11.005  14.193  0.00  0.00    -0.304 N 
ATOM     17  C   UNL     1      -3.968 -10.823  15.396  0.00  0.00    +0.245 C 
ATOM     37  H   UNL     1      -5.610 -11.283  14.186  0.00  0.00    +0.149 HD
BRANCH  17  19
ATOM      4  O   UNL     1      -8.212 -10.438  17.823  0.00  0.00    -0.453 OA
ATOM      5  O   UNL     1      -7.204 -11.109  19.907  0.00  0.00    -0.453 OA
ATOM     19  C   UNL     1      -4.803 -10.911  16.622  0.00  0.00    +0.040 A 
ATOM     20  C   UNL     1      -6.147 -10.603  16.531  0.00  0.00    +0.062 A 
ATOM     21  C   UNL     1      -4.197 -11.300  17.812  0.00  0.00    +0.017 A 
ATOM     25  C   UNL     1      -6.881 -10.698  17.695  0.00  0.00    +0.167 A 
ATOM     26  C   UNL     1      -4.964 -11.389  18.976  0.00  0.00    +0.050 A 
ATOM     27  C   UNL     1      -6.306 -11.081  18.884  0.00  0.00    +0.166 A 
ATOM     29  C   UNL     1      -8.408 -10.702  19.227  0.00  0.00    +0.466 C 
ENDBRANCH  17  19
ENDBRANCH  13   6
TORSDOF 5
ENDMDL
MODEL 7
REMARK VINA RESULT:      -7.0     23.502     28.790
REMARK  Name = 11911726
REMARK  7 active torsions:
REMARK  status: ('A' for Active; 'I' for Inactive)
REMARK    1  A    between atoms: N_6  and  C_13
REMARK    2  A    between atoms: N_7  and  C_14
REMARK    3  A    between atoms: N_10  and  C_34
REMARK    4  A    between atoms: N_10  and  C_35
REMARK    5  A    between atoms: N_10  and  C_36
REMARK    6  A    between atoms: C_17  and  C_19
REMARK    7  A    between atoms: C_22  and  C_28
REMARK                            x       y       z     vdW  Elec       q    Type
REMARK                         _______ _______ _______ _____ _____    ______ ____
ROOT
ATOM      1  O   UNL     1     -13.589   3.860  31.418  0.00  0.00    -0.370 OA
ATOM      2  O   UNL     1     -16.222   3.622  33.074  0.00  0.00    -0.370 OA
ATOM     11  C   UNL     1     -15.953   3.844  31.679  0.00  0.00    +0.171 C 
ATOM     12  C   UNL     1     -14.724   4.725  31.591  0.00  0.00    +0.171 C 
ATOM     13  C   UNL     1     -15.529   2.554  31.015  0.00  0.00    +0.130 C 
ATOM     14  C   UNL     1     -14.661   5.406  32.938  0.00  0.00    +0.130 C 
ATOM     15  C   UNL     1     -14.043   2.502  31.325  0.00  0.00    +0.185 C 
ATOM     16  C   UNL     1     -15.291   4.379  33.861  0.00  0.00    +0.185 C 
ENDROOT
BRANCH  14   7
ATOM      7  N   UNL     1     -15.454   6.615  32.919  0.00  0.00    -0.306 N 
ATOM      8  N   UNL     1     -13.861   7.810  34.161  0.00  0.00    -0.214 NA
ATOM      9  N   UNL     1     -15.900   8.863  33.426  0.00  0.00    -0.223 NA
ATOM     18  C   UNL     1     -15.060   7.798  33.520  0.00  0.00    +0.216 A 
ATOM     22  C   UNL     1     -13.509   8.979  34.735  0.00  0.00    +0.076 A 
ATOM     23  C   UNL     1     -15.486   9.999  34.022  0.00  0.00    +0.116 A 
ATOM     24  C   UNL     1     -14.288  10.118  34.697  0.00  0.00    +0.048 A 
ATOM     38  H   UNL     1     -16.324   6.632  32.401  0.00  0.00    +0.149 HD
BRANCH  22  28
ATOM     28  C   UNL     1     -12.232   8.972  35.410  0.00  0.00    +0.001 A 
ATOM     30  C   UNL     1     -11.156   9.688  34.882  0.00  0.00    +0.012 A 
ATOM     31  C   UNL     1     -12.071   8.247  36.592  0.00  0.00    +0.012 A 
ATOM     32  C   UNL     1      -9.924   9.679  35.534  0.00  0.00    +0.024 A 
ATOM     33  C   UNL     1     -10.837   8.238  37.245  0.00  0.00    +0.024 A 
ATOM     34  C   UNL     1      -9.764   8.955  36.716  0.00  0.00    +0.029 A 
BRANCH  34  10
ATOM     10  N   UNL     1      -8.517   8.947  37.376  0.00  0.00    -0.336 N 
ATOM     35  C   UNL     1      -8.451   8.826  38.818  0.00  0.00    +0.129 C 
ATOM     36  C   UNL     1      -7.286   9.072  36.620  0.00  0.00    +0.129 C 
ENDBRANCH  34  10
ENDBRANCH  22  28
ENDBRANCH  14   7
BRANCH  13   6
ATOM      3  O   UNL     1     -16.592   0.440  29.388  0.00  0.00    -0.270 OA
ATOM      6  N   UNL     1     -15.766   2.597  29.592  0.00  0.00    -0.304 N 
ATOM     17  C   UNL     1     -16.284   1.519  28.889  0.00  0.00    +0.245 C 
ATOM     37  H   UNL     1     -15.427   3.415  29.096  0.00  0.00    +0.149 HD
BRANCH  17  19
ATOM      4  O   UNL     1     -15.619   4.013  24.720  0.00  0.00    -0.453 OA
ATOM      5  O   UNL     1     -16.811   2.369  23.421  0.00  0.00    -0.453 OA
ATOM     19  C   UNL     1     -16.444   1.714  27.425  0.00  0.00    +0.040 A 
ATOM     20  C   UNL     1     -15.899   2.842  26.844  0.00  0.00    +0.062 A 
ATOM     21  C   UNL     1     -17.136   0.751  26.698  0.00  0.00    +0.017 A 
ATOM     25  C   UNL     1     -16.073   2.980  25.482  0.00  0.00    +0.167 A 
ATOM     26  C   UNL     1     -17.297   0.914  25.320  0.00  0.00    +0.050 A 
ATOM     27  C   UNL     1     -16.753   2.042  24.740  0.00  0.00    +0.166 A 
ATOM     29  C   UNL     1     -16.090   3.618  23.415  0.00  0.00    +0.466 C 
ENDBRANCH  17  19
ENDBRANCH  13   6
TORSDOF 5
ENDMDL
MODEL 8
REMARK VINA RESULT:      -6.8     24.859     30.302
REMARK  Name = 11911726
REMARK  7 active torsions:
REMARK  status: ('A' for Active; 'I' for Inactive)
REMARK    1  A    between atoms: N_6  and  C_13
REMARK    2  A    between atoms: N_7  and  C_14
REMARK    3  A    between atoms: N_10  and  C_34
REMARK    4  A    between atoms: N_10  and  C_35
REMARK    5  A    between atoms: N_10  and  C_36
REMARK    6  A    between atoms: C_17  and  C_19
REMARK    7  A    between atoms: C_22  and  C_28
REMARK                            x       y       z     vdW  Elec       q    Type
REMARK                         _______ _______ _______ _____ _____    ______ ____
ROOT
ATOM      1  O   UNL     1     -13.483   6.907  33.903  0.00  0.00    -0.370 OA
ATOM      2  O   UNL     1     -16.055   8.515  33.173  0.00  0.00    -0.370 OA
ATOM     11  C   UNL     1     -15.360   7.428  32.538  0.00  0.00    +0.171 C 
ATOM     12  C   UNL     1     -13.877   7.660  32.743  0.00  0.00    +0.171 C 
ATOM     13  C   UNL     1     -15.635   6.133  33.267  0.00  0.00    +0.130 C 
ATOM     14  C   UNL     1     -13.769   9.141  33.021  0.00  0.00    +0.130 C 
ATOM     15  C   UNL     1     -14.614   6.169  34.391  0.00  0.00    +0.185 C 
ATOM     16  C   UNL     1     -15.098   9.452  33.685  0.00  0.00    +0.185 C 
ENDROOT
BRANCH  14   7
ATOM      7  N   UNL     1     -13.648   9.869  31.777  0.00  0.00    -0.306 N 
ATOM      8  N   UNL     1     -11.479  10.601  32.290  0.00  0.00    -0.214 NA
ATOM      9  N   UNL     1     -12.537  11.226  30.217  0.00  0.00    -0.223 NA
ATOM     18  C   UNL     1     -12.522  10.587  31.418  0.00  0.00    +0.216 A 
ATOM     22  C   UNL     1     -10.397  11.310  31.907  0.00  0.00    +0.076 A 
ATOM     23  C   UNL     1     -11.423  11.916  29.899  0.00  0.00    +0.116 A 
ATOM     24  C   UNL     1     -10.311  11.994  30.712  0.00  0.00    +0.048 A 
ATOM     38  H   UNL     1     -14.399   9.823  31.097  0.00  0.00    +0.149 HD
BRANCH  22  28
ATOM     28  C   UNL     1      -9.300  11.312  32.847  0.00  0.00    +0.001 A 
ATOM     30  C   UNL     1      -8.277  12.255  32.729  0.00  0.00    +0.012 A 
ATOM     31  C   UNL     1      -9.260  10.369  33.877  0.00  0.00    +0.012 A 
ATOM     32  C   UNL     1      -7.217  12.254  33.636  0.00  0.00    +0.024 A 
ATOM     33  C   UNL     1      -8.200  10.369  34.785  0.00  0.00    +0.024 A 
ATOM     34  C   UNL     1      -7.179  11.312  34.664  0.00  0.00    +0.029 A 
BRANCH  34  10
ATOM     10  N   UNL     1      -6.108  11.312  35.582  0.00  0.00    -0.336 N 
ATOM     35  C   UNL     1      -4.745  11.473  35.119  0.00  0.00    +0.129 C 
ATOM     36  C   UNL     1      -6.357  11.137  36.999  0.00  0.00    +0.129 C 
ENDBRANCH  34  10
ENDBRANCH  22  28
ENDBRANCH  14   7
BRANCH  13   6
ATOM      3  O   UNL     1     -17.657   4.420  32.161  0.00  0.00    -0.270 OA
ATOM      6  N   UNL     1     -15.424   4.994  32.406  0.00  0.00    -0.304 N 
ATOM     17  C   UNL     1     -16.469   4.222  31.919  0.00  0.00    +0.245 C 
ATOM     37  H   UNL     1     -14.462   4.703  32.258  0.00  0.00    +0.149 HD
BRANCH  17  19
ATOM      4  O   UNL     1     -13.573   0.448  30.730  0.00  0.00    -0.453 OA
ATOM      5  O   UNL     1     -14.916  -0.116  28.809  0.00  0.00    -0.453 OA
ATOM     19  C   UNL     1     -16.083   3.069  31.066  0.00  0.00    +0.040 A 
ATOM     20  C   UNL     1     -14.956   2.344  31.401  0.00  0.00    +0.062 A 
ATOM     21  C   UNL     1     -16.875   2.765  29.963  0.00  0.00    +0.017 A 
ATOM     25  C   UNL     1     -14.638   1.283  30.579  0.00  0.00    +0.167 A 
ATOM     26  C   UNL     1     -16.531   1.684  29.148  0.00  0.00    +0.050 A 
ATOM     27  C   UNL     1     -15.404   0.961  29.483  0.00  0.00    +0.166 A 
ATOM     29  C   UNL     1     -13.757  -0.436  29.605  0.00  0.00    +0.466 C 
ENDBRANCH  17  19
ENDBRANCH  13   6
TORSDOF 5
ENDMDL
MODEL 9
REMARK VINA RESULT:      -6.8     26.494     29.053
REMARK  Name = 11911726
REMARK  7 active torsions:
REMARK  status: ('A' for Active; 'I' for Inactive)
REMARK    1  A    between atoms: N_6  and  C_13
REMARK    2  A    between atoms: N_7  and  C_14
REMARK    3  A    between atoms: N_10  and  C_34
REMARK    4  A    between atoms: N_10  and  C_35
REMARK    5  A    between atoms: N_10  and  C_36
REMARK    6  A    between atoms: C_17  and  C_19
REMARK    7  A    between atoms: C_22  and  C_28
REMARK                            x       y       z     vdW  Elec       q    Type
REMARK                         _______ _______ _______ _____ _____    ______ ____
ROOT
ATOM      1  O   UNL     1      13.768  10.016   4.014  0.00  0.00    -0.370 OA
ATOM      2  O   UNL     1      13.323  11.021   6.934  0.00  0.00    -0.370 OA
ATOM     11  C   UNL     1      14.224  10.067   6.348  0.00  0.00    +0.171 C 
ATOM     12  C   UNL     1      13.468   9.346   5.250  0.00  0.00    +0.171 C 
ATOM     13  C   UNL     1      15.341  10.779   5.619  0.00  0.00    +0.130 C 
ATOM     14  C   UNL     1      12.015   9.543   5.612  0.00  0.00    +0.130 C 
ATOM     15  C   UNL     1      14.715  11.065   4.265  0.00  0.00    +0.185 C 
ATOM     16  C   UNL     1      12.029  10.880   6.330  0.00  0.00    +0.185 C 
ENDROOT
BRANCH  14   7
ATOM      7  N   UNL     1      11.583   8.496   6.512  0.00  0.00    -0.306 N 
ATOM      8  N   UNL     1      10.953   7.086   4.746  0.00  0.00    -0.214 NA
ATOM      9  N   UNL     1      10.695   6.388   7.038  0.00  0.00    -0.223 NA
ATOM     18  C   UNL     1      11.061   7.288   6.086  0.00  0.00    +0.216 A 
ATOM     22  C   UNL     1      10.440   5.898   4.366  0.00  0.00    +0.076 A 
ATOM     23  C   UNL     1      10.191   5.222   6.587  0.00  0.00    +0.116 A 
ATOM     24  C   UNL     1      10.039   4.917   5.250  0.00  0.00    +0.048 A 
ATOM     38  H   UNL     1      11.707   8.615   7.511  0.00  0.00    +0.149 HD
BRANCH  22  28
ATOM     28  C   UNL     1      10.334   5.703   2.939  0.00  0.00    +0.001 A 
ATOM     30  C   UNL     1       9.952   6.762   2.113  0.00  0.00    +0.012 A 
ATOM     31  C   UNL     1      10.613   4.453   2.381  0.00  0.00    +0.012 A 
ATOM     32  C   UNL     1       9.848   6.571   0.735  0.00  0.00    +0.024 A 
ATOM     33  C   UNL     1      10.510   4.263   1.002  0.00  0.00    +0.024 A 
ATOM     34  C   UNL     1      10.128   5.323   0.179  0.00  0.00    +0.029 A 
BRANCH  34  10
ATOM     10  N   UNL     1      10.024   5.131  -1.214  0.00  0.00    -0.336 N 
ATOM     35  C   UNL     1       9.056   5.880  -1.988  0.00  0.00    +0.129 C 
ATOM     36  C   UNL     1      10.876   4.170  -1.887  0.00  0.00    +0.129 C 
ENDBRANCH  34  10
ENDBRANCH  22  28
ENDBRANCH  14   7
BRANCH  13   6
ATOM      3  O   UNL     1      17.917  11.209   6.813  0.00  0.00    -0.270 OA
ATOM      6  N   UNL     1      16.503   9.933   5.489  0.00  0.00    -0.304 N 
ATOM     17  C   UNL     1      17.711  10.225   6.106  0.00  0.00    +0.245 C 
ATOM     37  H   UNL     1      16.440   9.166   4.828  0.00  0.00    +0.149 HD
BRANCH  17  19
ATOM      4  O   UNL     1      20.457   7.402   3.185  0.00  0.00    -0.453 OA
ATOM      5  O   UNL     1      21.822   6.644   5.022  0.00  0.00    -0.453 OA
ATOM     19  C   UNL     1      18.819   9.268   5.853  0.00  0.00    +0.040 A 
ATOM     20  C   UNL     1      19.038   8.836   4.559  0.00  0.00    +0.062 A 
ATOM     21  C   UNL     1      19.591   8.846   6.930  0.00  0.00    +0.017 A 
ATOM     25  C   UNL     1      20.077   7.948   4.373  0.00  0.00    +0.167 A 
ATOM     26  C   UNL     1      20.638   7.947   6.714  0.00  0.00    +0.050 A 
ATOM     27  C   UNL     1      20.856   7.515   5.421  0.00  0.00    +0.166 A 
ATOM     29  C   UNL     1      21.564   6.577   3.605  0.00  0.00    +0.466 C 
ENDBRANCH  17  19
ENDBRANCH  13   6
TORSDOF 5
ENDMDL
MODEL 10
REMARK VINA RESULT:      -6.7      4.608      9.199
REMARK  Name = 11911726
REMARK  7 active torsions:
REMARK  status: ('A' for Active; 'I' for Inactive)
REMARK    1  A    between atoms: N_6  and  C_13
REMARK    2  A    between atoms: N_7  and  C_14
REMARK    3  A    between atoms: N_10  and  C_34
REMARK    4  A    between atoms: N_10  and  C_35
REMARK    5  A    between atoms: N_10  and  C_36
REMARK    6  A    between atoms: C_17  and  C_19
REMARK    7  A    between atoms: C_22  and  C_28
REMARK                            x       y       z     vdW  Elec       q    Type
REMARK                         _______ _______ _______ _____ _____    ______ ____
ROOT
ATOM      1  O   UNL     1      -1.481 -13.044   2.752  0.00  0.00    -0.370 OA
ATOM      2  O   UNL     1      -3.930 -14.979   2.761  0.00  0.00    -0.370 OA
ATOM     11  C   UNL     1      -3.376 -14.096   1.771  0.00  0.00    +0.171 C 
ATOM     12  C   UNL     1      -2.883 -12.858   2.493  0.00  0.00    +0.171 C 
ATOM     13  C   UNL     1      -2.124 -14.696   1.174  0.00  0.00    +0.130 C 
ATOM     14  C   UNL     1      -3.658 -12.855   3.790  0.00  0.00    +0.130 C 
ATOM     15  C   UNL     1      -1.058 -14.289   2.176  0.00  0.00    +0.185 C 
ATOM     16  C   UNL     1      -3.891 -14.334   4.042  0.00  0.00    +0.185 C 
ENDROOT
BRANCH  14   7
ATOM      7  N   UNL     1      -4.920 -12.172   3.611  0.00  0.00    -0.306 N 
ATOM      8  N   UNL     1      -4.911 -11.346   5.806  0.00  0.00    -0.214 NA
ATOM      9  N   UNL     1      -6.722 -10.836   4.301  0.00  0.00    -0.223 NA
ATOM     18  C   UNL     1      -5.536 -11.430   4.602  0.00  0.00    +0.216 A 
ATOM     22  C   UNL     1      -5.539 -10.614   6.749  0.00  0.00    +0.076 A 
ATOM     23  C   UNL     1      -7.295 -10.120   5.290  0.00  0.00    +0.116 A 
ATOM     24  C   UNL     1      -6.744  -9.971   6.546  0.00  0.00    +0.048 A 
ATOM     38  H   UNL     1      -5.369 -12.186   2.702  0.00  0.00    +0.149 HD
BRANCH  22  28
ATOM     28  C   UNL     1      -4.858 -10.536   8.021  0.00  0.00    +0.001 A 
ATOM     30  C   UNL     1      -4.547 -11.702   8.722  0.00  0.00    +0.012 A 
ATOM     31  C   UNL     1      -4.510  -9.292   8.552  0.00  0.00    +0.012 A 
ATOM     32  C   UNL     1      -3.892 -11.625   9.951  0.00  0.00    +0.024 A 
ATOM     33  C   UNL     1      -3.853  -9.215   9.781  0.00  0.00    +0.024 A 
ATOM     34  C   UNL     1      -3.544 -10.382  10.480  0.00  0.00    +0.029 A 
BRANCH  34  10
ATOM     10  N   UNL     1      -2.880 -10.305  11.722  0.00  0.00    -0.336 N 
ATOM     35  C   UNL     1      -1.488  -9.908  11.787  0.00  0.00    +0.129 C 
ATOM     36  C   UNL     1      -3.578 -10.635  12.949  0.00  0.00    +0.129 C 
ENDBRANCH  34  10
ENDBRANCH  22  28
ENDBRANCH  14   7
BRANCH  13   6
ATOM      3  O   UNL     1      -0.357 -15.783  -0.812  0.00  0.00    -0.270 OA
ATOM      6  N   UNL     1      -1.851 -14.145  -0.132  0.00  0.00    -0.304 N 
ATOM     17  C   UNL     1      -0.977 -14.744  -1.027  0.00  0.00    +0.245 C 
ATOM     37  H   UNL     1      -2.239 -13.229  -0.332  0.00  0.00    +0.149 HD
BRANCH  17  19
ATOM      4  O   UNL     1       1.777 -12.504  -4.411  0.00  0.00    -0.453 OA
ATOM      5  O   UNL     1      -0.122 -12.091  -5.837  0.00  0.00    -0.453 OA
ATOM     19  C   UNL     1      -0.785 -14.038  -2.320  0.00  0.00    +0.040 A 
ATOM     20  C   UNL     1       0.489 -13.635  -2.672  0.00  0.00    +0.062 A 
ATOM     21  C   UNL     1      -1.897 -13.811  -3.125  0.00  0.00    +0.017 A 
ATOM     25  C   UNL     1       0.617 -12.983  -3.881  0.00  0.00    +0.167 A 
ATOM     26  C   UNL     1      -1.739 -13.149  -4.345  0.00  0.00    +0.050 A 
ATOM     27  C   UNL     1      -0.466 -12.747  -4.695  0.00  0.00    +0.166 A 
ATOM     29  C   UNL     1       1.300 -11.942  -5.650  0.00  0.00    +0.466 C 
ENDBRANCH  17  19
ENDBRANCH  13   6
TORSDOF 5
ENDMDL
