MODEL 1
REMARK VINA RESULT:      -7.9      0.000      0.000
REMARK  Name = 45360523
REMARK  8 active torsions:
REMARK  status: ('A' for Active; 'I' for Inactive)
REMARK    1  A    between atoms: O_4  and  C_33
REMARK    2  A    between atoms: O_4  and  C_34
REMARK    3  A    between atoms: N_7  and  C_15
REMARK    4  A    between atoms: C_10  and  C_13
REMARK    5  A    between atoms: C_11  and  C_17
REMARK    6  A    between atoms: C_13  and  C_22
REMARK    7  A    between atoms: C_17  and  C_23
REMARK    8  A    between atoms: C_29  and  C_33
REMARK                            x       y       z     vdW  Elec       q    Type
REMARK                         _______ _______ _______ _____ _____    ______ ____
ROOT
ATOM      6  N   UNL     1     -19.457   4.486  23.590  0.00  0.00    -0.316 NA
ATOM     10  C   UNL     1     -16.535   4.136  23.391  0.00  0.00    +0.004 C 
ATOM     11  C   UNL     1     -17.316   3.908  24.707  0.00  0.00    +0.012 C 
ATOM     12  C   UNL     1     -17.488   3.944  22.200  0.00  0.00    +0.019 C 
ATOM     14  C   UNL     1     -18.607   4.743  24.752  0.00  0.00    +0.085 C 
ATOM     16  C   UNL     1     -18.765   4.773  22.335  0.00  0.00    +0.081 C 
ATOM     40  H   UNL     1     -20.296   5.062  23.652  0.00  0.00    +0.122 HD
ENDROOT
BRANCH  10  13
ATOM     13  C   UNL     1     -15.830   5.495  23.312  0.00  0.00    +0.100 C 
BRANCH  13  22
ATOM      1  O   UNL     1     -13.657   4.706  23.825  0.00  0.00    -0.276 OA
ATOM      5  N   UNL     1     -13.902   5.818  21.801  0.00  0.00    -0.301 N 
ATOM     15  C   UNL     1     -12.682   7.754  20.028  0.00  0.00    +0.095 C 
ATOM     18  C   UNL     1     -14.153   7.860  20.442  0.00  0.00    +0.044 C 
ATOM     19  C   UNL     1     -11.869   7.023  21.102  0.00  0.00    +0.044 C 
ATOM     20  C   UNL     1     -14.730   6.489  20.792  0.00  0.00    +0.110 C 
ATOM     21  C   UNL     1     -12.491   5.671  21.438  0.00  0.00    +0.110 C 
ATOM     22  C   UNL     1     -14.366   5.299  23.009  0.00  0.00    +0.216 C 
BRANCH  15   7
ATOM      3  O   UNL     1     -12.749  10.237  21.738  0.00  0.00    -0.247 OA
ATOM      7  N   UNL     1     -12.126   9.060  19.769  0.00  0.00    -0.289 N 
ATOM      8  N   UNL     1     -11.525  11.233  19.976  0.00  0.00    -0.306 N 
ATOM     24  C   UNL     1     -11.418   9.424  18.617  0.00  0.00    +0.070 A 
ATOM     25  C   UNL     1     -12.209  10.176  20.642  0.00  0.00    +0.328 A 
ATOM     26  C   UNL     1     -11.052  10.762  18.751  0.00  0.00    +0.067 A 
ATOM     28  C   UNL     1     -11.083   8.694  17.497  0.00  0.00    +0.028 A 
ATOM     30  C   UNL     1     -10.340  11.434  17.783  0.00  0.00    +0.028 A 
ATOM     31  C   UNL     1     -10.358   9.354  16.498  0.00  0.00    +0.002 A 
ATOM     32  C   UNL     1      -9.991  10.708  16.640  0.00  0.00    +0.002 A 
ATOM     41  H   UNL     1     -11.398  12.176  20.323  0.00  0.00    +0.170 HD
ENDBRANCH  15   7
ENDBRANCH  13  22
ENDBRANCH  10  13
BRANCH  11  17
ATOM     17  C   UNL     1     -16.471   4.156  25.957  0.00  0.00    +0.064 C 
BRANCH  17  23
ATOM      2  O   UNL     1     -16.476   0.815  27.301  0.00  0.00    -0.356 OA
ATOM      9  N   UNL     1     -16.706   1.731  26.281  0.00  0.00    -0.083 NA
ATOM     23  C   UNL     1     -16.355   2.914  26.794  0.00  0.00    +0.084 A 
ATOM     27  C   UNL     1     -15.900   2.808  28.119  0.00  0.00    +0.074 A 
ATOM     29  C   UNL     1     -15.995   1.469  28.390  0.00  0.00    +0.175 A 
BRANCH  29  33
ATOM     33  C   UNL     1     -15.696   0.645  29.567  0.00  0.00    +0.306 C 
BRANCH  33   4
ATOM      4  O   UNL     1     -14.377   0.925  30.047  0.00  0.00    -0.484 OA
BRANCH   4  34
ATOM     34  C   UNL     1     -14.288   1.716  31.158  0.00  0.00    +0.121 A 
ATOM     35  C   UNL     1     -13.677   2.967  31.076  0.00  0.00    +0.045 A 
ATOM     36  C   UNL     1     -14.810   1.272  32.374  0.00  0.00    +0.045 A 
ATOM     37  C   UNL     1     -13.587   3.774  32.211  0.00  0.00    +0.004 A 
ATOM     38  C   UNL     1     -14.720   2.080  33.507  0.00  0.00    +0.004 A 
ATOM     39  C   UNL     1     -14.109   3.331  33.426  0.00  0.00    +0.000 A 
ENDBRANCH   4  34
ENDBRANCH  33   4
ENDBRANCH  29  33
ENDBRANCH  17  23
ENDBRANCH  11  17
TORSDOF 8
ENDMDL
MODEL 2
REMARK VINA RESULT:      -7.8     26.216     31.015
REMARK  Name = 45360523
REMARK  8 active torsions:
REMARK  status: ('A' for Active; 'I' for Inactive)
REMARK    1  A    between atoms: O_4  and  C_33
REMARK    2  A    between atoms: O_4  and  C_34
REMARK    3  A    between atoms: N_7  and  C_15
REMARK    4  A    between atoms: C_10  and  C_13
REMARK    5  A    between atoms: C_11  and  C_17
REMARK    6  A    between atoms: C_13  and  C_22
REMARK    7  A    between atoms: C_17  and  C_23
REMARK    8  A    between atoms: C_29  and  C_33
REMARK                            x       y       z     vdW  Elec       q    Type
REMARK                         _______ _______ _______ _____ _____    ______ ____
ROOT
ATOM      6  N   UNL     1      16.387  14.816  15.088  0.00  0.00    -0.316 NA
ATOM     10  C   UNL     1      16.822  12.923  17.309  0.00  0.00    +0.004 C 
ATOM     11  C   UNL     1      15.530  12.930  16.457  0.00  0.00    +0.012 C 
ATOM     12  C   UNL     1      17.968  13.534  16.487  0.00  0.00    +0.019 C 
ATOM     14  C   UNL     1      15.249  14.321  15.863  0.00  0.00    +0.085 C 
ATOM     16  C   UNL     1      17.603  14.894  15.896  0.00  0.00    +0.081 C 
ATOM     40  H   UNL     1      16.167  15.741  14.719  0.00  0.00    +0.122 HD
ENDROOT
BRANCH  10  13
ATOM     13  C   UNL     1      16.681  13.632  18.660  0.00  0.00    +0.100 C 
BRANCH  13  22
ATOM      1  O   UNL     1      18.018  11.928  19.621  0.00  0.00    -0.276 OA
ATOM      5  N   UNL     1      16.287  12.749  20.934  0.00  0.00    -0.301 N 
ATOM     15  C   UNL     1      14.173  11.997  22.764  0.00  0.00    +0.095 C 
ATOM     18  C   UNL     1      13.910  12.918  21.568  0.00  0.00    +0.044 C 
ATOM     19  C   UNL     1      15.360  11.070  22.481  0.00  0.00    +0.044 C 
ATOM     20  C   UNL     1      15.173  13.677  21.165  0.00  0.00    +0.110 C 
ATOM     21  C   UNL     1      16.592  11.866  22.061  0.00  0.00    +0.110 C 
ATOM     22  C   UNL     1      17.062  12.692  19.777  0.00  0.00    +0.216 C 
BRANCH  15   7
ATOM      3  O   UNL     1      12.538  11.991  25.297  0.00  0.00    -0.247 OA
ATOM      7  N   UNL     1      12.995  11.232  23.091  0.00  0.00    -0.289 N 
ATOM      8  N   UNL     1      11.209  10.377  24.190  0.00  0.00    -0.306 N 
ATOM     24  C   UNL     1      12.369  10.307  22.246  0.00  0.00    +0.070 A 
ATOM     25  C   UNL     1      12.288  11.298  24.321  0.00  0.00    +0.328 A 
ATOM     26  C   UNL     1      11.272   9.786  22.928  0.00  0.00    +0.067 A 
ATOM     28  C   UNL     1      12.681   9.903  20.965  0.00  0.00    +0.028 A 
ATOM     30  C   UNL     1      10.437   8.842  22.373  0.00  0.00    +0.028 A 
ATOM     31  C   UNL     1      11.847   8.945  20.378  0.00  0.00    +0.002 A 
ATOM     32  C   UNL     1      10.738   8.421  21.074  0.00  0.00    +0.002 A 
ATOM     41  H   UNL     1      10.506  10.175  24.891  0.00  0.00    +0.170 HD
ENDBRANCH  15   7
ENDBRANCH  13  22
ENDBRANCH  10  13
BRANCH  11  17
ATOM     17  C   UNL     1      14.307  12.414  17.218  0.00  0.00    +0.064 C 
BRANCH  17  23
ATOM      2  O   UNL     1      13.581   9.049  16.162  0.00  0.00    -0.356 OA
ATOM      9  N   UNL     1      13.547  10.428  15.987  0.00  0.00    -0.083 NA
ATOM     23  C   UNL     1      14.156  10.928  17.066  0.00  0.00    +0.084 A 
ATOM     27  C   UNL     1      14.590   9.923  17.948  0.00  0.00    +0.074 A 
ATOM     29  C   UNL     1      14.205   8.762  17.333  0.00  0.00    +0.175 A 
BRANCH  29  33
ATOM     33  C   UNL     1      14.329   7.340  17.677  0.00  0.00    +0.306 C 
BRANCH  33   4
ATOM      4  O   UNL     1      14.479   7.182  19.091  0.00  0.00    -0.484 OA
BRANCH   4  34
ATOM     34  C   UNL     1      15.735   6.885  19.540  0.00  0.00    +0.121 A 
ATOM     35  C   UNL     1      16.175   7.389  20.763  0.00  0.00    +0.045 A 
ATOM     36  C   UNL     1      16.576   6.076  18.776  0.00  0.00    +0.045 A 
ATOM     37  C   UNL     1      17.458   7.086  21.222  0.00  0.00    +0.004 A 
ATOM     38  C   UNL     1      17.857   5.772  19.235  0.00  0.00    +0.004 A 
ATOM     39  C   UNL     1      18.299   6.276  20.458  0.00  0.00    +0.000 A 
ENDBRANCH   4  34
ENDBRANCH  33   4
ENDBRANCH  29  33
ENDBRANCH  17  23
ENDBRANCH  11  17
TORSDOF 8
ENDMDL
MODEL 3
REMARK VINA RESULT:      -7.8     19.189     21.250
REMARK  Name = 45360523
REMARK  8 active torsions:
REMARK  status: ('A' for Active; 'I' for Inactive)
REMARK    1  A    between atoms: O_4  and  C_33
REMARK    2  A    between atoms: O_4  and  C_34
REMARK    3  A    between atoms: N_7  and  C_15
REMARK    4  A    between atoms: C_10  and  C_13
REMARK    5  A    between atoms: C_11  and  C_17
REMARK    6  A    between atoms: C_13  and  C_22
REMARK    7  A    between atoms: C_17  and  C_23
REMARK    8  A    between atoms: C_29  and  C_33
REMARK                            x       y       z     vdW  Elec       q    Type
REMARK                         _______ _______ _______ _____ _____    ______ ____
ROOT
ATOM      6  N   UNL     1      -5.955 -12.244  18.724  0.00  0.00    -0.316 NA
ATOM     10  C   UNL     1      -4.210 -10.851  16.794  0.00  0.00    +0.004 C 
ATOM     11  C   UNL     1      -5.725 -10.558  16.915  0.00  0.00    +0.012 C 
ATOM     12  C   UNL     1      -3.702 -11.424  18.127  0.00  0.00    +0.019 C 
ATOM     14  C   UNL     1      -6.498 -11.776  17.448  0.00  0.00    +0.085 C 
ATOM     16  C   UNL     1      -4.542 -12.604  18.614  0.00  0.00    +0.081 C 
ATOM     40  H   UNL     1      -6.486 -13.055  19.040  0.00  0.00    +0.122 HD
ENDROOT
BRANCH  10  13
ATOM     13  C   UNL     1      -3.845 -11.777  15.628  0.00  0.00    +0.100 C 
BRANCH  13  22
ATOM      1  O   UNL     1      -2.003 -10.344  15.220  0.00  0.00    -0.276 OA
ATOM      5  N   UNL     1      -2.947 -11.371  13.362  0.00  0.00    -0.301 N 
ATOM     15  C   UNL     1      -3.763 -10.955  10.616  0.00  0.00    +0.095 C 
ATOM     18  C   UNL     1      -4.698 -11.602  11.643  0.00  0.00    +0.044 C 
ATOM     19  C   UNL     1      -2.764 -10.022  11.308  0.00  0.00    +0.044 C 
ATOM     20  C   UNL     1      -3.909 -12.296  12.751  0.00  0.00    +0.110 C 
ATOM     21  C   UNL     1      -2.014 -10.747  12.422  0.00  0.00    +0.110 C 
ATOM     22  C   UNL     1      -2.846 -11.098  14.726  0.00  0.00    +0.216 C 
BRANCH  15   7
ATOM      3  O   UNL     1      -5.123  -8.270  10.794  0.00  0.00    -0.247 OA
ATOM      7  N   UNL     1      -4.516 -10.242   9.613  0.00  0.00    -0.289 N 
ATOM      8  N   UNL     1      -5.747  -8.669   8.547  0.00  0.00    -0.306 N 
ATOM     24  C   UNL     1      -4.760 -10.694   8.311  0.00  0.00    +0.070 A 
ATOM     25  C   UNL     1      -5.124  -8.971   9.792  0.00  0.00    +0.328 A 
ATOM     26  C   UNL     1      -5.518  -9.722   7.661  0.00  0.00    +0.067 A 
ATOM     28  C   UNL     1      -4.379 -11.856   7.674  0.00  0.00    +0.028 A 
ATOM     30  C   UNL     1      -5.932  -9.859   6.355  0.00  0.00    +0.028 A 
ATOM     31  C   UNL     1      -4.787 -12.019   6.346  0.00  0.00    +0.002 A 
ATOM     32  C   UNL     1      -5.555 -11.032   5.694  0.00  0.00    +0.002 A 
ATOM     41  H   UNL     1      -6.275  -7.833   8.329  0.00  0.00    +0.170 HD
ENDBRANCH  15   7
ENDBRANCH  13  22
ENDBRANCH  10  13
BRANCH  11  17
ATOM     17  C   UNL     1      -6.345 -10.058  15.609  0.00  0.00    +0.064 C 
BRANCH  17  23
ATOM      2  O   UNL     1      -9.873  -9.385  15.356  0.00  0.00    -0.356 OA
ATOM      9  N   UNL     1      -8.679  -9.894  14.859  0.00  0.00    -0.083 NA
ATOM     23  C   UNL     1      -7.773  -9.639  15.807  0.00  0.00    +0.084 A 
ATOM     27  C   UNL     1      -8.331  -8.978  16.914  0.00  0.00    +0.074 A 
ATOM     29  C   UNL     1      -9.653  -8.842  16.581  0.00  0.00    +0.175 A 
BRANCH  29  33
ATOM     33  C   UNL     1     -10.816  -8.254  17.255  0.00  0.00    +0.306 C 
BRANCH  33   4
ATOM      4  O   UNL     1     -10.931  -6.866  16.929  0.00  0.00    -0.484 OA
BRANCH   4  34
ATOM     34  C   UNL     1     -11.846  -6.540  15.967  0.00  0.00    +0.121 A 
ATOM     35  C   UNL     1     -13.135  -7.067  16.024  0.00  0.00    +0.045 A 
ATOM     36  C   UNL     1     -11.489  -5.679  14.929  0.00  0.00    +0.045 A 
ATOM     37  C   UNL     1     -14.069  -6.734  15.042  0.00  0.00    +0.004 A 
ATOM     38  C   UNL     1     -12.423  -5.345  13.949  0.00  0.00    +0.004 A 
ATOM     39  C   UNL     1     -13.713  -5.872  14.005  0.00  0.00    +0.000 A 
ENDBRANCH   4  34
ENDBRANCH  33   4
ENDBRANCH  29  33
ENDBRANCH  17  23
ENDBRANCH  11  17
TORSDOF 8
ENDMDL
MODEL 4
REMARK VINA RESULT:      -7.6     17.498     20.037
REMARK  Name = 45360523
REMARK  8 active torsions:
REMARK  status: ('A' for Active; 'I' for Inactive)
REMARK    1  A    between atoms: O_4  and  C_33
REMARK    2  A    between atoms: O_4  and  C_34
REMARK    3  A    between atoms: N_7  and  C_15
REMARK    4  A    between atoms: C_10  and  C_13
REMARK    5  A    between atoms: C_11  and  C_17
REMARK    6  A    between atoms: C_13  and  C_22
REMARK    7  A    between atoms: C_17  and  C_23
REMARK    8  A    between atoms: C_29  and  C_33
REMARK                            x       y       z     vdW  Elec       q    Type
REMARK                         _______ _______ _______ _____ _____    ______ ____
ROOT
ATOM      6  N   UNL     1     -11.943 -11.966  18.481  0.00  0.00    -0.316 NA
ATOM     10  C   UNL     1      -9.299 -11.159  19.511  0.00  0.00    +0.004 C 
ATOM     11  C   UNL     1     -10.022 -10.397  18.374  0.00  0.00    +0.012 C 
ATOM     12  C   UNL     1     -10.343 -11.900  20.361  0.00  0.00    +0.019 C 
ATOM     14  C   UNL     1     -10.979 -11.315  17.594  0.00  0.00    +0.085 C 
ATOM     16  C   UNL     1     -11.282 -12.759  19.516  0.00  0.00    +0.081 C 
ATOM     40  H   UNL     1     -12.553 -12.571  17.930  0.00  0.00    +0.122 HD
ENDROOT
BRANCH  10  13
ATOM     13  C   UNL     1      -8.211 -12.121  19.022  0.00  0.00    +0.100 C 
BRANCH  13  22
ATOM      1  O   UNL     1      -6.691 -10.580  19.985  0.00  0.00    -0.276 OA
ATOM      5  N   UNL     1      -5.857 -11.935  18.293  0.00  0.00    -0.301 N 
ATOM     15  C   UNL     1      -4.181 -11.973  15.933  0.00  0.00    +0.095 C 
ATOM     18  C   UNL     1      -5.593 -12.567  15.924  0.00  0.00    +0.044 C 
ATOM     19  C   UNL     1      -4.069 -10.861  16.981  0.00  0.00    +0.044 C 
ATOM     20  C   UNL     1      -6.010 -13.025  17.321  0.00  0.00    +0.110 C 
ATOM     21  C   UNL     1      -4.515 -11.352  18.355  0.00  0.00    +0.110 C 
ATOM     22  C   UNL     1      -6.855 -11.473  19.150  0.00  0.00    +0.216 C 
BRANCH  15   7
ATOM      3  O   UNL     1      -1.614 -12.322  14.390  0.00  0.00    -0.247 OA
ATOM      7  N   UNL     1      -3.824 -11.479  14.625  0.00  0.00    -0.289 N 
ATOM      8  N   UNL     1      -2.683 -11.030  12.722  0.00  0.00    -0.306 N 
ATOM     24  C   UNL     1      -4.650 -10.709  13.797  0.00  0.00    +0.070 A 
ATOM     25  C   UNL     1      -2.580 -11.697  13.976  0.00  0.00    +0.328 A 
ATOM     26  C   UNL     1      -3.943 -10.437  12.628  0.00  0.00    +0.067 A 
ATOM     28  C   UNL     1      -5.935 -10.246  13.986  0.00  0.00    +0.028 A 
ATOM     30  C   UNL     1      -4.474  -9.694  11.598  0.00  0.00    +0.028 A 
ATOM     31  C   UNL     1      -6.499  -9.489  12.954  0.00  0.00    +0.002 A 
ATOM     32  C   UNL     1      -5.777  -9.216  11.773  0.00  0.00    +0.002 A 
ATOM     41  H   UNL     1      -1.966 -10.984  12.008  0.00  0.00    +0.170 HD
ENDBRANCH  15   7
ENDBRANCH  13  22
ENDBRANCH  10  13
BRANCH  11  17
ATOM     17  C   UNL     1      -9.059  -9.689  17.419  0.00  0.00    +0.064 C 
BRANCH  17  23
ATOM      2  O   UNL     1     -10.527  -7.771  14.749  0.00  0.00    -0.356 OA
ATOM      9  N   UNL     1      -9.786  -8.845  15.229  0.00  0.00    -0.083 NA
ATOM     23  C   UNL     1      -9.778  -8.693  16.556  0.00  0.00    +0.084 A 
ATOM     27  C   UNL     1     -10.491  -7.554  16.967  0.00  0.00    +0.074 A 
ATOM     29  C   UNL     1     -10.942  -7.010  15.794  0.00  0.00    +0.175 A 
BRANCH  29  33
ATOM     33  C   UNL     1     -11.743  -5.826  15.463  0.00  0.00    +0.306 C 
BRANCH  33   4
ATOM      4  O   UNL     1     -12.768  -6.166  14.524  0.00  0.00    -0.484 OA
BRANCH   4  34
ATOM     34  C   UNL     1     -13.132  -5.190  13.639  0.00  0.00    +0.121 A 
ATOM     35  C   UNL     1     -14.480  -4.892  13.445  0.00  0.00    +0.045 A 
ATOM     36  C   UNL     1     -12.154  -4.491  12.932  0.00  0.00    +0.045 A 
ATOM     37  C   UNL     1     -14.851  -3.895  12.541  0.00  0.00    +0.004 A 
ATOM     38  C   UNL     1     -12.524  -3.494  12.030  0.00  0.00    +0.004 A 
ATOM     39  C   UNL     1     -13.873  -3.196  11.834  0.00  0.00    +0.000 A 
ENDBRANCH   4  34
ENDBRANCH  33   4
ENDBRANCH  29  33
ENDBRANCH  17  23
ENDBRANCH  11  17
TORSDOF 8
ENDMDL
MODEL 5
REMARK VINA RESULT:      -7.6     17.391     19.732
REMARK  Name = 45360523
REMARK  8 active torsions:
REMARK  status: ('A' for Active; 'I' for Inactive)
REMARK    1  A    between atoms: O_4  and  C_33
REMARK    2  A    between atoms: O_4  and  C_34
REMARK    3  A    between atoms: N_7  and  C_15
REMARK    4  A    between atoms: C_10  and  C_13
REMARK    5  A    between atoms: C_11  and  C_17
REMARK    6  A    between atoms: C_13  and  C_22
REMARK    7  A    between atoms: C_17  and  C_23
REMARK    8  A    between atoms: C_29  and  C_33
REMARK                            x       y       z     vdW  Elec       q    Type
REMARK                         _______ _______ _______ _____ _____    ______ ____
ROOT
ATOM      6  N   UNL     1     -11.973 -13.659  18.839  0.00  0.00    -0.316 NA
ATOM     10  C   UNL     1      -9.720 -11.792  19.215  0.00  0.00    +0.004 C 
ATOM     11  C   UNL     1     -10.659 -11.733  17.986  0.00  0.00    +0.012 C 
ATOM     12  C   UNL     1     -10.463 -12.460  20.383  0.00  0.00    +0.019 C 
ATOM     14  C   UNL     1     -11.276 -13.107  17.677  0.00  0.00    +0.085 C 
ATOM     16  C   UNL     1     -11.083 -13.800  19.990  0.00  0.00    +0.081 C 
ATOM     40  H   UNL     1     -12.360 -14.571  18.598  0.00  0.00    +0.122 HD
ENDROOT
BRANCH  10  13
ATOM     13  C   UNL     1      -8.384 -12.493  18.945  0.00  0.00    +0.100 C 
BRANCH  13  22
ATOM      1  O   UNL     1      -7.171 -10.619  19.736  0.00  0.00    -0.276 OA
ATOM      5  N   UNL     1      -6.429 -11.568  17.751  0.00  0.00    -0.301 N 
ATOM     15  C   UNL     1      -5.438 -10.974  15.096  0.00  0.00    +0.095 C 
ATOM     18  C   UNL     1      -6.584 -11.965  15.322  0.00  0.00    +0.044 C 
ATOM     19  C   UNL     1      -5.390  -9.937  16.223  0.00  0.00    +0.044 C 
ATOM     20  C   UNL     1      -6.502 -12.600  16.709  0.00  0.00    +0.110 C 
ATOM     21  C   UNL     1      -5.332 -10.612  17.590  0.00  0.00    +0.110 C 
ATOM     22  C   UNL     1      -7.276 -11.474  18.853  0.00  0.00    +0.216 C 
BRANCH  15   7
ATOM      3  O   UNL     1      -7.818  -9.578  13.881  0.00  0.00    -0.247 OA
ATOM      7  N   UNL     1      -5.563 -10.327  13.813  0.00  0.00    -0.289 N 
ATOM      8  N   UNL     1      -6.393  -9.202  12.032  0.00  0.00    -0.306 N 
ATOM     24  C   UNL     1      -4.548 -10.227  12.854  0.00  0.00    +0.070 A 
ATOM     25  C   UNL     1      -6.735  -9.692  13.325  0.00  0.00    +0.328 A 
ATOM     26  C   UNL     1      -5.065  -9.534  11.761  0.00  0.00    +0.067 A 
ATOM     28  C   UNL     1      -3.247 -10.684  12.868  0.00  0.00    +0.028 A 
ATOM     30  C   UNL     1      -4.318  -9.263  10.637  0.00  0.00    +0.028 A 
ATOM     31  C   UNL     1      -2.466 -10.421  11.737  0.00  0.00    +0.002 A 
ATOM     32  C   UNL     1      -2.996  -9.719  10.634  0.00  0.00    +0.002 A 
ATOM     41  H   UNL     1      -7.004  -8.696  11.402  0.00  0.00    +0.170 HD
ENDBRANCH  15   7
ENDBRANCH  13  22
ENDBRANCH  10  13
BRANCH  11  17
ATOM     17  C   UNL     1      -9.983 -11.155  16.741  0.00  0.00    +0.064 C 
BRANCH  17  23
ATOM      2  O   UNL     1      -9.427  -7.602  16.911  0.00  0.00    -0.356 OA
ATOM      9  N   UNL     1      -9.006  -8.921  17.039  0.00  0.00    -0.083 NA
ATOM     23  C   UNL     1     -10.073  -9.657  16.716  0.00  0.00    +0.084 A 
ATOM     27  C   UNL     1     -11.185  -8.866  16.378  0.00  0.00    +0.074 A 
ATOM     29  C   UNL     1     -10.726  -7.583  16.517  0.00  0.00    +0.175 A 
BRANCH  29  33
ATOM     33  C   UNL     1     -11.334  -6.260  16.332  0.00  0.00    +0.306 C 
BRANCH  33   4
ATOM      4  O   UNL     1     -11.262  -5.867  14.958  0.00  0.00    -0.484 OA
BRANCH   4  34
ATOM     34  C   UNL     1     -12.446  -5.549  14.353  0.00  0.00    +0.121 A 
ATOM     35  C   UNL     1     -13.620  -6.197  14.736  0.00  0.00    +0.045 A 
ATOM     36  C   UNL     1     -12.479  -4.578  13.353  0.00  0.00    +0.045 A 
ATOM     37  C   UNL     1     -14.828  -5.872  14.118  0.00  0.00    +0.004 A 
ATOM     38  C   UNL     1     -13.686  -4.252  12.737  0.00  0.00    +0.004 A 
ATOM     39  C   UNL     1     -14.861  -4.899  13.118  0.00  0.00    +0.000 A 
ENDBRANCH   4  34
ENDBRANCH  33   4
ENDBRANCH  29  33
ENDBRANCH  17  23
ENDBRANCH  11  17
TORSDOF 8
ENDMDL
MODEL 6
REMARK VINA RESULT:      -7.5     18.383     20.698
REMARK  Name = 45360523
REMARK  8 active torsions:
REMARK  status: ('A' for Active; 'I' for Inactive)
REMARK    1  A    between atoms: O_4  and  C_33
REMARK    2  A    between atoms: O_4  and  C_34
REMARK    3  A    between atoms: N_7  and  C_15
REMARK    4  A    between atoms: C_10  and  C_13
REMARK    5  A    between atoms: C_11  and  C_17
REMARK    6  A    between atoms: C_13  and  C_22
REMARK    7  A    between atoms: C_17  and  C_23
REMARK    8  A    between atoms: C_29  and  C_33
REMARK                            x       y       z     vdW  Elec       q    Type
REMARK                         _______ _______ _______ _____ _____    ______ ____
ROOT
ATOM      6  N   UNL     1      -7.910 -11.413  19.694  0.00  0.00    -0.316 NA
ATOM     10  C   UNL     1      -6.169 -10.310  17.583  0.00  0.00    +0.004 C 
ATOM     11  C   UNL     1      -7.684 -10.006  17.661  0.00  0.00    +0.012 C 
ATOM     12  C   UNL     1      -5.659 -10.684  18.984  0.00  0.00    +0.019 C 
ATOM     14  C   UNL     1      -8.455 -11.135  18.365  0.00  0.00    +0.085 C 
ATOM     16  C   UNL     1      -6.497 -11.783  19.636  0.00  0.00    +0.081 C 
ATOM     40  H   UNL     1      -8.440 -12.170  20.125  0.00  0.00    +0.122 HD
ENDROOT
BRANCH  10  13
ATOM     13  C   UNL     1      -5.803 -11.394  16.562  0.00  0.00    +0.100 C 
BRANCH  13  22
ATOM      1  O   UNL     1      -3.678 -10.357  16.428  0.00  0.00    -0.276 OA
ATOM      5  N   UNL     1      -4.430 -11.425  14.508  0.00  0.00    -0.301 N 
ATOM     15  C   UNL     1      -4.616 -11.213  11.626  0.00  0.00    +0.095 C 
ATOM     18  C   UNL     1      -5.835 -11.562  12.486  0.00  0.00    +0.044 C 
ATOM     19  C   UNL     1      -3.606 -10.387  12.431  0.00  0.00    +0.044 C 
ATOM     20  C   UNL     1      -5.418 -12.240  13.789  0.00  0.00    +0.110 C 
ATOM     21  C   UNL     1      -3.234 -11.088  13.734  0.00  0.00    +0.110 C 
ATOM     22  C   UNL     1      -4.540 -11.010  15.834  0.00  0.00    +0.216 C 
BRANCH  15   7
ATOM      3  O   UNL     1      -5.864  -8.483  11.340  0.00  0.00    -0.247 OA
ATOM      7  N   UNL     1      -5.014 -10.509  10.432  0.00  0.00    -0.289 N 
ATOM      8  N   UNL     1      -5.818  -8.934   9.018  0.00  0.00    -0.306 N 
ATOM     24  C   UNL     1      -4.883 -10.994   9.125  0.00  0.00    +0.070 A 
ATOM     25  C   UNL     1      -5.598  -9.215  10.397  0.00  0.00    +0.328 A 
ATOM     26  C   UNL     1      -5.379 -10.020   8.260  0.00  0.00    +0.067 A 
ATOM     28  C   UNL     1      -4.377 -12.186   8.653  0.00  0.00    +0.028 A 
ATOM     30  C   UNL     1      -5.397 -10.185   6.894  0.00  0.00    +0.028 A 
ATOM     31  C   UNL     1      -4.384 -12.379   7.267  0.00  0.00    +0.002 A 
ATOM     32  C   UNL     1      -4.888 -11.389   6.397  0.00  0.00    +0.002 A 
ATOM     41  H   UNL     1      -6.226  -8.089   8.637  0.00  0.00    +0.170 HD
ENDBRANCH  15   7
ENDBRANCH  13  22
ENDBRANCH  10  13
BRANCH  11  17
ATOM     17  C   UNL     1      -8.306  -9.700  16.297  0.00  0.00    +0.064 C 
BRANCH  17  23
ATOM      2  O   UNL     1     -10.502  -7.027  17.295  0.00  0.00    -0.356 OA
ATOM      9  N   UNL     1      -9.602  -8.049  17.574  0.00  0.00    -0.083 NA
ATOM     23  C   UNL     1      -9.277  -8.558  16.382  0.00  0.00    +0.084 A 
ATOM     27  C   UNL     1      -9.933  -7.905  15.326  0.00  0.00    +0.074 A 
ATOM     29  C   UNL     1     -10.690  -6.951  15.952  0.00  0.00    +0.175 A 
BRANCH  29  33
ATOM     33  C   UNL     1     -11.618  -5.916  15.480  0.00  0.00    +0.306 C 
BRANCH  33   4
ATOM      4  O   UNL     1     -12.323  -6.373  14.322  0.00  0.00    -0.484 OA
BRANCH   4  34
ATOM     34  C   UNL     1     -12.936  -5.414  13.565  0.00  0.00    +0.121 A 
ATOM     35  C   UNL     1     -12.172  -4.450  12.908  0.00  0.00    +0.045 A 
ATOM     36  C   UNL     1     -14.326  -5.400  13.448  0.00  0.00    +0.045 A 
ATOM     37  C   UNL     1     -12.798  -3.471  12.135  0.00  0.00    +0.004 A 
ATOM     38  C   UNL     1     -14.952  -4.423  12.675  0.00  0.00    +0.004 A 
ATOM     39  C   UNL     1     -14.188  -3.458  12.018  0.00  0.00    +0.000 A 
ENDBRANCH   4  34
ENDBRANCH  33   4
ENDBRANCH  29  33
ENDBRANCH  17  23
ENDBRANCH  11  17
TORSDOF 8
ENDMDL
MODEL 7
REMARK VINA RESULT:      -7.4     20.132     21.830
REMARK  Name = 45360523
REMARK  8 active torsions:
REMARK  status: ('A' for Active; 'I' for Inactive)
REMARK    1  A    between atoms: O_4  and  C_33
REMARK    2  A    between atoms: O_4  and  C_34
REMARK    3  A    between atoms: N_7  and  C_15
REMARK    4  A    between atoms: C_10  and  C_13
REMARK    5  A    between atoms: C_11  and  C_17
REMARK    6  A    between atoms: C_13  and  C_22
REMARK    7  A    between atoms: C_17  and  C_23
REMARK    8  A    between atoms: C_29  and  C_33
REMARK                            x       y       z     vdW  Elec       q    Type
REMARK                         _______ _______ _______ _____ _____    ______ ____
ROOT
ATOM      6  N   UNL     1      -2.665 -14.942  14.825  0.00  0.00    -0.316 NA
ATOM     10  C   UNL     1      -2.199 -12.292  13.614  0.00  0.00    +0.004 C 
ATOM     11  C   UNL     1      -3.205 -12.519  14.767  0.00  0.00    +0.012 C 
ATOM     12  C   UNL     1      -1.133 -13.399  13.652  0.00  0.00    +0.019 C 
ATOM     14  C   UNL     1      -3.747 -13.958  14.774  0.00  0.00    +0.085 C 
ATOM     16  C   UNL     1      -1.746 -14.798  13.698  0.00  0.00    +0.081 C 
ATOM     40  H   UNL     1      -3.063 -15.881  14.819  0.00  0.00    +0.122 HD
ENDROOT
BRANCH  10  13
ATOM     13  C   UNL     1      -2.849 -12.208  12.228  0.00  0.00    +0.100 C 
BRANCH  13  22
ATOM      1  O   UNL     1      -1.959 -10.013  12.258  0.00  0.00    -0.276 OA
ATOM      5  N   UNL     1      -3.341 -10.545  10.469  0.00  0.00    -0.301 N 
ATOM     15  C   UNL     1      -5.480  -9.558   8.785  0.00  0.00    +0.095 C 
ATOM     18  C   UNL     1      -5.553 -10.935   9.452  0.00  0.00    +0.044 C 
ATOM     19  C   UNL     1      -4.595  -8.609   9.601  0.00  0.00    +0.044 C 
ATOM     20  C   UNL     1      -4.158 -11.501   9.711  0.00  0.00    +0.110 C 
ATOM     21  C   UNL     1      -3.221  -9.221   9.856  0.00  0.00    +0.110 C 
ATOM     22  C   UNL     1      -2.671 -10.823  11.659  0.00  0.00    +0.216 C 
BRANCH  15   7
ATOM      3  O   UNL     1      -7.535  -8.815  10.862  0.00  0.00    -0.247 OA
ATOM      7  N   UNL     1      -6.799  -9.001   8.610  0.00  0.00    -0.289 N 
ATOM      8  N   UNL     1      -8.863  -8.165   9.016  0.00  0.00    -0.306 N 
ATOM     24  C   UNL     1      -7.389  -8.689   7.379  0.00  0.00    +0.070 A 
ATOM     25  C   UNL     1      -7.701  -8.682   9.658  0.00  0.00    +0.328 A 
ATOM     26  C   UNL     1      -8.658  -8.175   7.636  0.00  0.00    +0.067 A 
ATOM     28  C   UNL     1      -6.911  -8.818   6.092  0.00  0.00    +0.028 A 
ATOM     30  C   UNL     1      -9.508  -7.768   6.632  0.00  0.00    +0.028 A 
ATOM     31  C   UNL     1      -7.755  -8.411   5.053  0.00  0.00    +0.002 A 
ATOM     32  C   UNL     1      -9.039  -7.892   5.321  0.00  0.00    +0.002 A 
ATOM     41  H   UNL     1      -9.706  -7.841   9.474  0.00  0.00    +0.170 HD
ENDBRANCH  15   7
ENDBRANCH  13  22
ENDBRANCH  10  13
BRANCH  11  17
ATOM     17  C   UNL     1      -4.356 -11.511  14.766  0.00  0.00    +0.064 C 
BRANCH  17  23
ATOM      2  O   UNL     1      -4.654 -10.811  18.285  0.00  0.00    -0.356 OA
ATOM      9  N   UNL     1      -3.912 -11.112  17.149  0.00  0.00    -0.083 NA
ATOM     23  C   UNL     1      -4.809 -11.196  16.163  0.00  0.00    +0.084 A 
ATOM     27  C   UNL     1      -6.119 -10.959  16.611  0.00  0.00    +0.074 A 
ATOM     29  C   UNL     1      -5.967 -10.721  17.951  0.00  0.00    +0.175 A 
BRANCH  29  33
ATOM     33  C   UNL     1      -6.899 -10.406  19.041  0.00  0.00    +0.306 C 
BRANCH  33   4
ATOM      4  O   UNL     1      -8.024 -11.289  19.002  0.00  0.00    -0.484 OA
BRANCH   4  34
ATOM     34  C   UNL     1      -9.258 -10.701  18.971  0.00  0.00    +0.121 A 
ATOM     35  C   UNL     1      -9.638  -9.936  17.869  0.00  0.00    +0.045 A 
ATOM     36  C   UNL     1     -10.138 -10.868  20.040  0.00  0.00    +0.045 A 
ATOM     37  C   UNL     1     -10.898  -9.336  17.837  0.00  0.00    +0.004 A 
ATOM     38  C   UNL     1     -11.397 -10.270  20.008  0.00  0.00    +0.004 A 
ATOM     39  C   UNL     1     -11.777  -9.504  18.906  0.00  0.00    +0.000 A 
ENDBRANCH   4  34
ENDBRANCH  33   4
ENDBRANCH  29  33
ENDBRANCH  17  23
ENDBRANCH  11  17
TORSDOF 8
ENDMDL
MODEL 8
REMARK VINA RESULT:      -7.4     30.459     35.869
REMARK  Name = 45360523
REMARK  8 active torsions:
REMARK  status: ('A' for Active; 'I' for Inactive)
REMARK    1  A    between atoms: O_4  and  C_33
REMARK    2  A    between atoms: O_4  and  C_34
REMARK    3  A    between atoms: N_7  and  C_15
REMARK    4  A    between atoms: C_10  and  C_13
REMARK    5  A    between atoms: C_11  and  C_17
REMARK    6  A    between atoms: C_13  and  C_22
REMARK    7  A    between atoms: C_17  and  C_23
REMARK    8  A    between atoms: C_29  and  C_33
REMARK                            x       y       z     vdW  Elec       q    Type
REMARK                         _______ _______ _______ _____ _____    ______ ____
ROOT
ATOM      6  N   UNL     1       6.762   8.643  -2.994  0.00  0.00    -0.316 NA
ATOM     10  C   UNL     1       8.012   5.976  -3.156  0.00  0.00    +0.004 C 
ATOM     11  C   UNL     1       8.415   7.025  -2.092  0.00  0.00    +0.012 C 
ATOM     12  C   UNL     1       6.577   6.262  -3.625  0.00  0.00    +0.019 C 
ATOM     14  C   UNL     1       8.153   8.459  -2.581  0.00  0.00    +0.085 C 
ATOM     16  C   UNL     1       6.382   7.715  -4.057  0.00  0.00    +0.081 C 
ATOM     40  H   UNL     1       6.630   9.601  -3.319  0.00  0.00    +0.122 HD
ENDROOT
BRANCH  10  13
ATOM     13  C   UNL     1       8.971   5.899  -4.349  0.00  0.00    +0.100 C 
BRANCH  13  22
ATOM      1  O   UNL     1       8.950   3.530  -4.353  0.00  0.00    -0.276 OA
ATOM      5  N   UNL     1      11.037   4.546  -4.442  0.00  0.00    -0.301 N 
ATOM     15  C   UNL     1      13.745   4.430  -3.427  0.00  0.00    +0.095 C 
ATOM     18  C   UNL     1      12.939   5.733  -3.417  0.00  0.00    +0.044 C 
ATOM     19  C   UNL     1      12.812   3.216  -3.368  0.00  0.00    +0.044 C 
ATOM     20  C   UNL     1      11.886   5.741  -4.523  0.00  0.00    +0.110 C 
ATOM     21  C   UNL     1      11.762   3.275  -4.474  0.00  0.00    +0.110 C 
ATOM     22  C   UNL     1       9.644   4.550  -4.382  0.00  0.00    +0.216 C 
BRANCH  15   7
ATOM      3  O   UNL     1      16.674   5.146  -3.408  0.00  0.00    -0.247 OA
ATOM      7  N   UNL     1      14.688   4.401  -2.336  0.00  0.00    -0.289 N 
ATOM      8  N   UNL     1      16.587   4.577  -1.114  0.00  0.00    -0.306 N 
ATOM     24  C   UNL     1      14.395   4.015  -1.022  0.00  0.00    +0.070 A 
ATOM     25  C   UNL     1      16.059   4.760  -2.425  0.00  0.00    +0.328 A 
ATOM     26  C   UNL     1      15.567   4.125  -0.276  0.00  0.00    +0.067 A 
ATOM     28  C   UNL     1      13.214   3.588  -0.451  0.00  0.00    +0.028 A 
ATOM     30  C   UNL     1      15.621   3.818   1.065  0.00  0.00    +0.028 A 
ATOM     31  C   UNL     1      13.243   3.270   0.912  0.00  0.00    +0.002 A 
ATOM     32  C   UNL     1      14.433   3.383   1.660  0.00  0.00    +0.002 A 
ATOM     41  H   UNL     1      17.544   4.741  -0.826  0.00  0.00    +0.170 HD
ENDBRANCH  15   7
ENDBRANCH  13  22
ENDBRANCH  10  13
BRANCH  11  17
ATOM     17  C   UNL     1       9.861   6.874  -1.618  0.00  0.00    +0.064 C 
BRANCH  17  23
ATOM      2  O   UNL     1       9.957   4.060   0.626  0.00  0.00    -0.356 OA
ATOM      9  N   UNL     1       9.807   4.623  -0.636  0.00  0.00    -0.083 NA
ATOM     23  C   UNL     1       9.959   5.937  -0.449  0.00  0.00    +0.084 A 
ATOM     27  C   UNL     1      10.205   6.259   0.896  0.00  0.00    +0.074 A 
ATOM     29  C   UNL     1      10.194   5.045   1.530  0.00  0.00    +0.175 A 
BRANCH  29  33
ATOM     33  C   UNL     1      10.378   4.624   2.924  0.00  0.00    +0.306 C 
BRANCH  33   4
ATOM      4  O   UNL     1      10.900   5.703   3.704  0.00  0.00    -0.484 OA
BRANCH   4  34
ATOM     34  C   UNL     1      10.121   6.139   4.739  0.00  0.00    +0.121 A 
ATOM     35  C   UNL     1       9.097   7.056   4.502  0.00  0.00    +0.045 A 
ATOM     36  C   UNL     1      10.349   5.667   6.032  0.00  0.00    +0.045 A 
ATOM     37  C   UNL     1       8.302   7.502   5.558  0.00  0.00    +0.004 A 
ATOM     38  C   UNL     1       9.554   6.112   7.087  0.00  0.00    +0.004 A 
ATOM     39  C   UNL     1       8.530   7.029   6.851  0.00  0.00    +0.000 A 
ENDBRANCH   4  34
ENDBRANCH  33   4
ENDBRANCH  29  33
ENDBRANCH  17  23
ENDBRANCH  11  17
TORSDOF 8
ENDMDL
MODEL 9
REMARK VINA RESULT:      -7.3     19.488     21.146
REMARK  Name = 45360523
REMARK  8 active torsions:
REMARK  status: ('A' for Active; 'I' for Inactive)
REMARK    1  A    between atoms: O_4  and  C_33
REMARK    2  A    between atoms: O_4  and  C_34
REMARK    3  A    between atoms: N_7  and  C_15
REMARK    4  A    between atoms: C_10  and  C_13
REMARK    5  A    between atoms: C_11  and  C_17
REMARK    6  A    between atoms: C_13  and  C_22
REMARK    7  A    between atoms: C_17  and  C_23
REMARK    8  A    between atoms: C_29  and  C_33
REMARK                            x       y       z     vdW  Elec       q    Type
REMARK                         _______ _______ _______ _____ _____    ______ ____
ROOT
ATOM      6  N   UNL     1      -5.938 -12.226  18.855  0.00  0.00    -0.316 NA
ATOM     10  C   UNL     1      -4.197 -10.869  16.898  0.00  0.00    +0.004 C 
ATOM     11  C   UNL     1      -5.705 -10.552  17.036  0.00  0.00    +0.012 C 
ATOM     12  C   UNL     1      -3.681 -11.443  18.227  0.00  0.00    +0.019 C 
ATOM     14  C   UNL     1      -6.490 -11.756  17.584  0.00  0.00    +0.085 C 
ATOM     16  C   UNL     1      -4.533 -12.608  18.730  0.00  0.00    +0.081 C 
ATOM     40  H   UNL     1      -6.478 -13.028  19.181  0.00  0.00    +0.122 HD
ENDROOT
BRANCH  10  13
ATOM     13  C   UNL     1      -3.860 -11.804  15.732  0.00  0.00    +0.100 C 
BRANCH  13  22
ATOM      1  O   UNL     1      -1.987 -10.415  15.316  0.00  0.00    -0.276 OA
ATOM      5  N   UNL     1      -2.948 -11.436  13.465  0.00  0.00    -0.301 N 
ATOM     15  C   UNL     1      -3.750 -11.024  10.714  0.00  0.00    +0.095 C 
ATOM     18  C   UNL     1      -4.701 -11.643  11.743  0.00  0.00    +0.044 C 
ATOM     19  C   UNL     1      -2.732 -10.107  11.401  0.00  0.00    +0.044 C 
ATOM     20  C   UNL     1      -3.929 -12.345  12.859  0.00  0.00    +0.110 C 
ATOM     21  C   UNL     1      -2.001 -10.839  12.522  0.00  0.00    +0.110 C 
ATOM     22  C   UNL     1      -2.844 -11.154  14.826  0.00  0.00    +0.216 C 
BRANCH  15   7
ATOM      3  O   UNL     1      -5.097  -8.331  10.883  0.00  0.00    -0.247 OA
ATOM      7  N   UNL     1      -4.485 -10.303   9.704  0.00  0.00    -0.289 N 
ATOM      8  N   UNL     1      -5.693  -8.719   8.627  0.00  0.00    -0.306 N 
ATOM     24  C   UNL     1      -4.715 -10.748   8.396  0.00  0.00    +0.070 A 
ATOM     25  C   UNL     1      -5.088  -9.029   9.879  0.00  0.00    +0.328 A 
ATOM     26  C   UNL     1      -5.459  -9.770   7.740  0.00  0.00    +0.067 A 
ATOM     28  C   UNL     1      -4.333 -11.911   7.761  0.00  0.00    +0.028 A 
ATOM     30  C   UNL     1      -5.856  -9.899   6.428  0.00  0.00    +0.028 A 
ATOM     31  C   UNL     1      -4.724 -12.067   6.426  0.00  0.00    +0.002 A 
ATOM     32  C   UNL     1      -5.477 -11.072   5.768  0.00  0.00    +0.002 A 
ATOM     41  H   UNL     1      -6.213  -7.878   8.406  0.00  0.00    +0.170 HD
ENDBRANCH  15   7
ENDBRANCH  13  22
ENDBRANCH  10  13
BRANCH  11  17
ATOM     17  C   UNL     1      -6.334 -10.049  15.735  0.00  0.00    +0.064 C 
BRANCH  17  23
ATOM      2  O   UNL     1      -9.882  -9.475  15.524  0.00  0.00    -0.356 OA
ATOM      9  N   UNL     1      -8.688  -9.990  15.034  0.00  0.00    -0.083 NA
ATOM     23  C   UNL     1      -7.767  -9.649  15.939  0.00  0.00    +0.084 A 
ATOM     27  C   UNL     1      -8.315  -8.926  17.012  0.00  0.00    +0.074 A 
ATOM     29  C   UNL     1      -9.647  -8.844  16.703  0.00  0.00    +0.175 A 
BRANCH  29  33
ATOM     33  C   UNL     1     -10.809  -8.237  17.364  0.00  0.00    +0.306 C 
BRANCH  33   4
ATOM      4  O   UNL     1     -11.915  -9.144  17.354  0.00  0.00    -0.484 OA
BRANCH   4  34
ATOM     34  C   UNL     1     -11.991 -10.023  18.398  0.00  0.00    +0.121 A 
ATOM     35  C   UNL     1     -12.694  -9.678  19.551  0.00  0.00    +0.045 A 
ATOM     36  C   UNL     1     -11.365 -11.267  18.308  0.00  0.00    +0.045 A 
ATOM     37  C   UNL     1     -12.772 -10.576  20.616  0.00  0.00    +0.004 A 
ATOM     38  C   UNL     1     -11.444 -12.165  19.372  0.00  0.00    +0.004 A 
ATOM     39  C   UNL     1     -12.147 -11.820  20.526  0.00  0.00    +0.000 A 
ENDBRANCH   4  34
ENDBRANCH  33   4
ENDBRANCH  29  33
ENDBRANCH  17  23
ENDBRANCH  11  17
TORSDOF 8
ENDMDL
MODEL 10
REMARK VINA RESULT:      -7.2     29.575     34.405
REMARK  Name = 45360523
REMARK  8 active torsions:
REMARK  status: ('A' for Active; 'I' for Inactive)
REMARK    1  A    between atoms: O_4  and  C_33
REMARK    2  A    between atoms: O_4  and  C_34
REMARK    3  A    between atoms: N_7  and  C_15
REMARK    4  A    between atoms: C_10  and  C_13
REMARK    5  A    between atoms: C_11  and  C_17
REMARK    6  A    between atoms: C_13  and  C_22
REMARK    7  A    between atoms: C_17  and  C_23
REMARK    8  A    between atoms: C_29  and  C_33
REMARK                            x       y       z     vdW  Elec       q    Type
REMARK                         _______ _______ _______ _____ _____    ______ ____
ROOT
ATOM      6  N   UNL     1      10.274  12.057   7.096  0.00  0.00    -0.316 NA
ATOM     10  C   UNL     1      10.095   9.228   7.914  0.00  0.00    +0.004 C 
ATOM     11  C   UNL     1      11.245   9.772   7.034  0.00  0.00    +0.012 C 
ATOM     12  C   UNL     1       9.506  10.382   8.741  0.00  0.00    +0.019 C 
ATOM     14  C   UNL     1      10.808  11.007   6.228  0.00  0.00    +0.085 C 
ATOM     16  C   UNL     1       9.133  11.587   7.879  0.00  0.00    +0.081 C 
ATOM     40  H   UNL     1       9.988  12.852   6.526  0.00  0.00    +0.122 HD
ENDROOT
BRANCH  10  13
ATOM     13  C   UNL     1       8.996   8.504   7.127  0.00  0.00    +0.100 C 
BRANCH  13  22
ATOM      1  O   UNL     1       9.674   6.425   8.037  0.00  0.00    -0.276 OA
ATOM      5  N   UNL     1       9.192   6.452   5.765  0.00  0.00    -0.301 N 
ATOM     15  C   UNL     1      10.061   5.499   3.173  0.00  0.00    +0.095 C 
ATOM     18  C   UNL     1       9.736   6.976   3.418  0.00  0.00    +0.044 C 
ATOM     19  C   UNL     1      10.513   4.822   4.472  0.00  0.00    +0.044 C 
ATOM     20  C   UNL     1       8.729   7.141   4.554  0.00  0.00    +0.110 C 
ATOM     21  C   UNL     1       9.490   5.030   5.585  0.00  0.00    +0.110 C 
ATOM     22  C   UNL     1       9.318   7.035   7.025  0.00  0.00    +0.216 C 
BRANCH  15   7
ATOM      3  O   UNL     1       9.911   4.048   0.534  0.00  0.00    -0.247 OA
ATOM      7  N   UNL     1      11.066   5.356   2.148  0.00  0.00    -0.289 N 
ATOM      8  N   UNL     1      12.142   4.778   0.241  0.00  0.00    -0.306 N 
ATOM     24  C   UNL     1      12.357   5.896   2.199  0.00  0.00    +0.070 A 
ATOM     25  C   UNL     1      10.901   4.648   0.928  0.00  0.00    +0.328 A 
ATOM     26  C   UNL     1      13.013   5.536   1.024  0.00  0.00    +0.067 A 
ATOM     28  C   UNL     1      12.978   6.654   3.169  0.00  0.00    +0.028 A 
ATOM     30  C   UNL     1      14.311   5.910   0.758  0.00  0.00    +0.028 A 
ATOM     31  C   UNL     1      14.298   7.047   2.923  0.00  0.00    +0.002 A 
ATOM     32  C   UNL     1      14.957   6.680   1.731  0.00  0.00    +0.002 A 
ATOM     41  H   UNL     1      12.368   4.387  -0.665  0.00  0.00    +0.170 HD
ENDBRANCH  15   7
ENDBRANCH  13  22
ENDBRANCH  10  13
BRANCH  11  17
ATOM     17  C   UNL     1      11.847   8.712   6.109  0.00  0.00    +0.064 C 
BRANCH  17  23
ATOM      2  O   UNL     1      15.357   8.050   6.561  0.00  0.00    -0.356 OA
ATOM      9  N   UNL     1      14.015   7.708   6.681  0.00  0.00    -0.083 NA
ATOM     23  C   UNL     1      13.347   8.737   6.152  0.00  0.00    +0.084 A 
ATOM     27  C   UNL     1      14.206   9.747   5.686  0.00  0.00    +0.074 A 
ATOM     29  C   UNL     1      15.457   9.266   5.966  0.00  0.00    +0.175 A 
BRANCH  29  33
ATOM     33  C   UNL     1      16.815   9.783   5.760  0.00  0.00    +0.306 C 
BRANCH  33   4
ATOM      4  O   UNL     1      17.744   9.089   6.598  0.00  0.00    -0.484 OA
BRANCH   4  34
ATOM     34  C   UNL     1      18.823   8.527   5.976  0.00  0.00    +0.121 A 
ATOM     35  C   UNL     1      19.992   8.280   6.696  0.00  0.00    +0.045 A 
ATOM     36  C   UNL     1      18.755   8.199   4.622  0.00  0.00    +0.045 A 
ATOM     37  C   UNL     1      21.094   7.705   6.061  0.00  0.00    +0.004 A 
ATOM     38  C   UNL     1      19.856   7.624   3.988  0.00  0.00    +0.004 A 
ATOM     39  C   UNL     1      21.025   7.377   4.707  0.00  0.00    +0.000 A 
ENDBRANCH   4  34
ENDBRANCH  33   4
ENDBRANCH  29  33
ENDBRANCH  17  23
ENDBRANCH  11  17
TORSDOF 8
ENDMDL
