MODEL 1
REMARK VINA RESULT:      -7.7      0.000      0.000
REMARK  Name = 11886217
REMARK  5 active torsions:
REMARK  status: ('A' for Active; 'I' for Inactive)
REMARK    1  A    between atoms: O_3  and  C_19
REMARK    2  A    between atoms: O_3  and  C_21
REMARK    3  A    between atoms: N_7  and  C_15
REMARK    4  A    between atoms: N_8  and  C_16
REMARK    5  A    between atoms: N_12  and  C_22
REMARK                            x       y       z     vdW  Elec       q    Type
REMARK                         _______ _______ _______ _____ _____    ______ ____
ROOT
ATOM      1  O   UNL     1      16.010  12.608  23.227  0.00  0.00    -0.370 OA
ATOM      2  O   UNL     1      14.923  10.921  20.805  0.00  0.00    -0.370 OA
ATOM     13  C   UNL     1      14.612  10.965  22.211  0.00  0.00    +0.176 C 
ATOM     14  C   UNL     1      15.914  11.202  22.949  0.00  0.00    +0.172 C 
ATOM     15  C   UNL     1      13.769  12.190  22.512  0.00  0.00    +0.171 C 
ATOM     16  C   UNL     1      16.984  10.789  21.964  0.00  0.00    +0.131 C 
ATOM     17  C   UNL     1      14.814  13.267  22.785  0.00  0.00    +0.190 C 
ATOM     18  C   UNL     1      16.334  11.105  20.630  0.00  0.00    +0.185 C 
ENDROOT
BRANCH  16   8
ATOM      4  O   UNL     1      19.492   9.523  21.405  0.00  0.00    -0.252 OA
ATOM      8  N   UNL     1      17.285   9.383  22.079  0.00  0.00    -0.292 N 
ATOM     12  N   UNL     1      18.538   7.459  21.986  0.00  0.00    -0.269 N 
ATOM     20  C   UNL     1      18.543   8.842  21.785  0.00  0.00    +0.304 C 
ATOM     34  H   UNL     1      16.571   8.765  22.451  0.00  0.00    +0.151 HD
ATOM     35  H   UNL     1      17.663   7.049  22.304  0.00  0.00    +0.156 HD
BRANCH  12  22
ATOM     22  C   UNL     1      19.606   6.551  21.802  0.00  0.00    +0.035 A 
ATOM     25  C   UNL     1      19.683   5.825  20.625  0.00  0.00    +0.023 A 
ATOM     26  C   UNL     1      20.554   6.407  22.802  0.00  0.00    +0.023 A 
ATOM     30  C   UNL     1      20.737   4.929  20.442  0.00  0.00    +0.002 A 
ATOM     31  C   UNL     1      21.607   5.511  22.619  0.00  0.00    +0.002 A 
ATOM     33  C   UNL     1      21.699   4.772  21.439  0.00  0.00    +0.000 A 
ENDBRANCH  12  22
ENDBRANCH  16   8
BRANCH  15   7
ATOM      7  N   UNL     1      12.816  11.961  23.602  0.00  0.00    -0.187 N 
ATOM      9  N   UNL     1      13.145  12.229  24.869  0.00  0.00    -0.041 NA
ATOM     10  N   UNL     1      11.063  11.441  24.753  0.00  0.00    -0.071 NA
ATOM     11  N   UNL     1      12.065  11.909  25.572  0.00  0.00    -0.020 NA
ATOM     19  C   UNL     1      11.551  11.483  23.535  0.00  0.00    +0.342 A 
BRANCH  19   3
ATOM      3  O   UNL     1      10.935  11.125  22.424  0.00  0.00    -0.423 OA
BRANCH   3  21
ATOM      5  O   UNL     1      12.489   8.463  18.715  0.00  0.00    -0.452 OA
ATOM      6  O   UNL     1      11.929   6.409  19.844  0.00  0.00    -0.453 OA
ATOM     21  C   UNL     1      11.174   9.910  21.796  0.00  0.00    +0.136 A 
ATOM     23  C   UNL     1      11.734   9.911  20.529  0.00  0.00    +0.096 A 
ATOM     24  C   UNL     1      10.842   8.734  22.466  0.00  0.00    +0.050 A 
ATOM     27  C   UNL     1      11.953   8.680  19.947  0.00  0.00    +0.170 A 
ATOM     28  C   UNL     1      11.633   7.506  20.591  0.00  0.00    +0.166 A 
ATOM     29  C   UNL     1      11.076   7.500  21.854  0.00  0.00    +0.053 A 
ATOM     32  C   UNL     1      12.472   7.022  18.657  0.00  0.00    +0.466 C 
ENDBRANCH   3  21
ENDBRANCH  19   3
ENDBRANCH  15   7
TORSDOF 5
ENDMDL
MODEL 2
REMARK VINA RESULT:      -7.6     29.215     32.358
REMARK  Name = 11886217
REMARK  5 active torsions:
REMARK  status: ('A' for Active; 'I' for Inactive)
REMARK    1  A    between atoms: O_3  and  C_19
REMARK    2  A    between atoms: O_3  and  C_21
REMARK    3  A    between atoms: N_7  and  C_15
REMARK    4  A    between atoms: N_8  and  C_16
REMARK    5  A    between atoms: N_12  and  C_22
REMARK                            x       y       z     vdW  Elec       q    Type
REMARK                         _______ _______ _______ _____ _____    ______ ____
ROOT
ATOM      1  O   UNL     1     -17.299   3.224  28.069  0.00  0.00    -0.370 OA
ATOM      2  O   UNL     1     -17.280   0.707  26.183  0.00  0.00    -0.370 OA
ATOM     13  C   UNL     1     -16.322   1.281  27.092  0.00  0.00    +0.176 C 
ATOM     14  C   UNL     1     -16.456   2.787  26.992  0.00  0.00    +0.172 C 
ATOM     15  C   UNL     1     -16.710   0.954  28.522  0.00  0.00    +0.171 C 
ATOM     16  C   UNL     1     -17.143   3.015  25.664  0.00  0.00    +0.131 C 
ATOM     17  C   UNL     1     -17.642   2.101  28.896  0.00  0.00    +0.190 C 
ATOM     18  C   UNL     1     -17.989   1.762  25.520  0.00  0.00    +0.185 C 
ENDROOT
BRANCH  16   8
ATOM      4  O   UNL     1     -16.317   5.418  24.343  0.00  0.00    -0.252 OA
ATOM      8  N   UNL     1     -16.185   3.123  24.591  0.00  0.00    -0.292 N 
ATOM     12  N   UNL     1     -14.888   4.139  22.990  0.00  0.00    -0.269 N 
ATOM     20  C   UNL     1     -15.835   4.342  23.998  0.00  0.00    +0.304 C 
ATOM     34  H   UNL     1     -15.693   2.286  24.297  0.00  0.00    +0.151 HD
ATOM     35  H   UNL     1     -14.593   3.179  22.830  0.00  0.00    +0.156 HD
BRANCH  12  22
ATOM     22  C   UNL     1     -14.282   5.110  22.159  0.00  0.00    +0.035 A 
ATOM     25  C   UNL     1     -15.081   5.908  21.357  0.00  0.00    +0.023 A 
ATOM     26  C   UNL     1     -12.904   5.243  22.165  0.00  0.00    +0.023 A 
ATOM     30  C   UNL     1     -14.486   6.866  20.537  0.00  0.00    +0.002 A 
ATOM     31  C   UNL     1     -12.308   6.201  21.345  0.00  0.00    +0.002 A 
ATOM     33  C   UNL     1     -13.099   7.013  20.531  0.00  0.00    +0.000 A 
ENDBRANCH  12  22
ENDBRANCH  16   8
BRANCH  15   7
ATOM      7  N   UNL     1     -15.545   0.790  29.396  0.00  0.00    -0.187 N 
ATOM      9  N   UNL     1     -14.594  -0.105  29.111  0.00  0.00    -0.041 NA
ATOM     10  N   UNL     1     -14.105   0.981  30.996  0.00  0.00    -0.071 NA
ATOM     11  N   UNL     1     -13.712   0.017  30.096  0.00  0.00    -0.020 NA
ATOM     19  C   UNL     1     -15.245   1.448  30.540  0.00  0.00    +0.342 A 
BRANCH  19   3
ATOM      3  O   UNL     1     -15.987   2.392  31.089  0.00  0.00    -0.423 OA
BRANCH   3  21
ATOM      5  O   UNL     1     -14.384   4.188  35.267  0.00  0.00    -0.452 OA
ATOM      6  O   UNL     1     -13.867   6.313  34.254  0.00  0.00    -0.453 OA
ATOM     21  C   UNL     1     -15.449   3.409  31.865  0.00  0.00    +0.136 A 
ATOM     23  C   UNL     1     -15.219   3.173  33.210  0.00  0.00    +0.096 A 
ATOM     24  C   UNL     1     -15.158   4.630  31.259  0.00  0.00    +0.050 A 
ATOM     27  C   UNL     1     -14.682   4.214  33.939  0.00  0.00    +0.170 A 
ATOM     28  C   UNL     1     -14.387   5.428  33.361  0.00  0.00    +0.166 A 
ATOM     29  C   UNL     1     -14.613   5.667  32.021  0.00  0.00    +0.053 A 
ATOM     32  C   UNL     1     -13.867   5.521  35.459  0.00  0.00    +0.466 C 
ENDBRANCH   3  21
ENDBRANCH  19   3
ENDBRANCH  15   7
TORSDOF 5
ENDMDL
MODEL 3
REMARK VINA RESULT:      -7.5     27.981     30.601
REMARK  Name = 11886217
REMARK  5 active torsions:
REMARK  status: ('A' for Active; 'I' for Inactive)
REMARK    1  A    between atoms: O_3  and  C_19
REMARK    2  A    between atoms: O_3  and  C_21
REMARK    3  A    between atoms: N_7  and  C_15
REMARK    4  A    between atoms: N_8  and  C_16
REMARK    5  A    between atoms: N_12  and  C_22
REMARK                            x       y       z     vdW  Elec       q    Type
REMARK                         _______ _______ _______ _____ _____    ______ ____
ROOT
ATOM      1  O   UNL     1      -4.923 -10.535  18.144  0.00  0.00    -0.370 OA
ATOM      2  O   UNL     1      -6.386 -11.830  15.679  0.00  0.00    -0.370 OA
ATOM     13  C   UNL     1      -5.277 -10.922  15.818  0.00  0.00    +0.176 C 
ATOM     14  C   UNL     1      -5.590 -10.009  16.986  0.00  0.00    +0.172 C 
ATOM     15  C   UNL     1      -4.038 -11.686  16.247  0.00  0.00    +0.171 C 
ATOM     16  C   UNL     1      -7.089 -10.113  17.153  0.00  0.00    +0.131 C 
ATOM     17  C   UNL     1      -4.140 -11.678  17.768  0.00  0.00    +0.190 C 
ATOM     18  C   UNL     1      -7.368 -11.528  16.679  0.00  0.00    +0.185 C 
ENDROOT
BRANCH  16   8
ATOM      4  O   UNL     1      -9.913  -9.646  17.054  0.00  0.00    -0.252 OA
ATOM      8  N   UNL     1      -7.775  -9.144  16.333  0.00  0.00    -0.292 N 
ATOM     12  N   UNL     1      -9.543  -7.971  15.453  0.00  0.00    -0.269 N 
ATOM     20  C   UNL     1      -9.165  -8.978  16.345  0.00  0.00    +0.304 C 
ATOM     34  H   UNL     1      -7.219  -8.508  15.770  0.00  0.00    +0.151 HD
ATOM     35  H   UNL     1      -8.794  -7.514  14.939  0.00  0.00    +0.156 HD
BRANCH  12  22
ATOM     22  C   UNL     1     -10.848  -7.503  15.174  0.00  0.00    +0.035 A 
ATOM     25  C   UNL     1     -11.319  -6.376  15.828  0.00  0.00    +0.023 A 
ATOM     26  C   UNL     1     -11.629  -8.180  14.252  0.00  0.00    +0.023 A 
ATOM     30  C   UNL     1     -12.605  -5.913  15.553  0.00  0.00    +0.002 A 
ATOM     31  C   UNL     1     -12.915  -7.718  13.977  0.00  0.00    +0.002 A 
ATOM     33  C   UNL     1     -13.404  -6.584  14.628  0.00  0.00    +0.000 A 
ENDBRANCH  12  22
ENDBRANCH  16   8
BRANCH  15   7
ATOM      7  N   UNL     1      -2.806 -11.107  15.704  0.00  0.00    -0.187 N 
ATOM      9  N   UNL     1      -1.898 -10.548  16.511  0.00  0.00    -0.041 NA
ATOM     10  N   UNL     1      -1.230 -10.436  14.386  0.00  0.00    -0.071 NA
ATOM     11  N   UNL     1      -0.933 -10.137  15.696  0.00  0.00    -0.020 NA
ATOM     19  C   UNL     1      -2.397 -11.038  14.416  0.00  0.00    +0.342 A 
BRANCH  19   3
ATOM      3  O   UNL     1      -3.073 -11.502  13.381  0.00  0.00    -0.423 OA
BRANCH   3  21
ATOM      5  O   UNL     1      -6.441  -9.115  10.887  0.00  0.00    -0.452 OA
ATOM      6  O   UNL     1      -4.816  -8.309   9.300  0.00  0.00    -0.453 OA
ATOM     21  C   UNL     1      -3.483 -10.690  12.332  0.00  0.00    +0.136 A 
ATOM     23  C   UNL     1      -4.824 -10.360  12.227  0.00  0.00    +0.096 A 
ATOM     24  C   UNL     1      -2.528 -10.235  11.426  0.00  0.00    +0.050 A 
ATOM     27  C   UNL     1      -5.183  -9.550  11.169  0.00  0.00    +0.170 A 
ATOM     28  C   UNL     1      -4.255  -9.090  10.262  0.00  0.00    +0.166 A 
ATOM     29  C   UNL     1      -2.917  -9.415  10.364  0.00  0.00    +0.053 A 
ATOM     32  C   UNL     1      -6.200  -8.328   9.702  0.00  0.00    +0.466 C 
ENDBRANCH   3  21
ENDBRANCH  19   3
ENDBRANCH  15   7
TORSDOF 5
ENDMDL
MODEL 4
REMARK VINA RESULT:      -7.1      3.967      7.729
REMARK  Name = 11886217
REMARK  5 active torsions:
REMARK  status: ('A' for Active; 'I' for Inactive)
REMARK    1  A    between atoms: O_3  and  C_19
REMARK    2  A    between atoms: O_3  and  C_21
REMARK    3  A    between atoms: N_7  and  C_15
REMARK    4  A    between atoms: N_8  and  C_16
REMARK    5  A    between atoms: N_12  and  C_22
REMARK                            x       y       z     vdW  Elec       q    Type
REMARK                         _______ _______ _______ _____ _____    ______ ____
ROOT
ATOM      1  O   UNL     1      14.381  11.803  17.315  0.00  0.00    -0.370 OA
ATOM      2  O   UNL     1      15.346   9.662  19.408  0.00  0.00    -0.370 OA
ATOM     13  C   UNL     1      14.084   9.938  18.770  0.00  0.00    +0.176 C 
ATOM     14  C   UNL     1      13.967  11.444  18.642  0.00  0.00    +0.172 C 
ATOM     15  C   UNL     1      14.109   9.431  17.340  0.00  0.00    +0.171 C 
ATOM     16  C   UNL     1      14.946  11.984  19.661  0.00  0.00    +0.131 C 
ATOM     17  C   UNL     1      14.675  10.615  16.566  0.00  0.00    +0.190 C 
ATOM     18  C   UNL     1      16.010  10.902  19.691  0.00  0.00    +0.185 C 
ENDROOT
BRANCH  16   8
ATOM      4  O   UNL     1      13.080  14.016  20.428  0.00  0.00    -0.252 OA
ATOM      8  N   UNL     1      14.324  12.139  20.952  0.00  0.00    -0.292 N 
ATOM     12  N   UNL     1      12.981  13.064  22.571  0.00  0.00    -0.269 N 
ATOM     20  C   UNL     1      13.417  13.165  21.247  0.00  0.00    +0.304 C 
ATOM     34  H   UNL     1      14.501  11.435  21.662  0.00  0.00    +0.151 HD
ATOM     35  H   UNL     1      13.362  12.296  23.118  0.00  0.00    +0.156 HD
BRANCH  12  22
ATOM     22  C   UNL     1      12.068  13.903  23.251  0.00  0.00    +0.035 A 
ATOM     25  C   UNL     1      12.535  14.748  24.245  0.00  0.00    +0.023 A 
ATOM     26  C   UNL     1      10.727  13.864  22.909  0.00  0.00    +0.023 A 
ATOM     30  C   UNL     1      11.636  15.576  24.916  0.00  0.00    +0.002 A 
ATOM     31  C   UNL     1       9.827  14.693  23.580  0.00  0.00    +0.002 A 
ATOM     33  C   UNL     1      10.282  15.549  24.583  0.00  0.00    +0.000 A 
ENDBRANCH  12  22
ENDBRANCH  16   8
BRANCH  15   7
ATOM      7  N   UNL     1      12.795   8.964  16.888  0.00  0.00    -0.187 N 
ATOM      9  N   UNL     1      12.210   9.499  15.812  0.00  0.00    -0.041 NA
ATOM     10  N   UNL     1      10.917   7.911  16.695  0.00  0.00    -0.071 NA
ATOM     11  N   UNL     1      11.058   8.849  15.698  0.00  0.00    -0.020 NA
ATOM     19  C   UNL     1      12.009   8.000  17.421  0.00  0.00    +0.342 A 
BRANCH  19   3
ATOM      3  O   UNL     1      12.306   7.285  18.490  0.00  0.00    -0.423 OA
BRANCH   3  21
ATOM      5  O   UNL     1      11.072  10.547  21.822  0.00  0.00    -0.452 OA
ATOM      6  O   UNL     1      10.694   8.837  23.478  0.00  0.00    -0.453 OA
ATOM     21  C   UNL     1      11.897   7.646  19.767  0.00  0.00    +0.136 A 
ATOM     23  C   UNL     1      11.713   8.988  20.056  0.00  0.00    +0.096 A 
ATOM     24  C   UNL     1      11.685   6.642  20.710  0.00  0.00    +0.050 A 
ATOM     27  C   UNL     1      11.306   9.296  21.337  0.00  0.00    +0.170 A 
ATOM     28  C   UNL     1      11.090   8.320  22.284  0.00  0.00    +0.166 A 
ATOM     29  C   UNL     1      11.270   6.982  22.001  0.00  0.00    +0.053 A 
ATOM     32  C   UNL     1      10.684  10.248  23.178  0.00  0.00    +0.466 C 
ENDBRANCH   3  21
ENDBRANCH  19   3
ENDBRANCH  15   7
TORSDOF 5
ENDMDL
MODEL 5
REMARK VINA RESULT:      -7.0      3.943      7.811
REMARK  Name = 11886217
REMARK  5 active torsions:
REMARK  status: ('A' for Active; 'I' for Inactive)
REMARK    1  A    between atoms: O_3  and  C_19
REMARK    2  A    between atoms: O_3  and  C_21
REMARK    3  A    between atoms: N_7  and  C_15
REMARK    4  A    between atoms: N_8  and  C_16
REMARK    5  A    between atoms: N_12  and  C_22
REMARK                            x       y       z     vdW  Elec       q    Type
REMARK                         _______ _______ _______ _____ _____    ______ ____
ROOT
ATOM      1  O   UNL     1      14.872  13.130  17.590  0.00  0.00    -0.370 OA
ATOM      2  O   UNL     1      15.677  10.830  19.579  0.00  0.00    -0.370 OA
ATOM     13  C   UNL     1      14.603  11.004  18.635  0.00  0.00    +0.176 C 
ATOM     14  C   UNL     1      14.205  12.465  18.674  0.00  0.00    +0.172 C 
ATOM     15  C   UNL     1      15.118  10.783  17.225  0.00  0.00    +0.171 C 
ATOM     16  C   UNL     1      14.735  12.963  20.000  0.00  0.00    +0.131 C 
ATOM     17  C   UNL     1      15.603  12.169  16.815  0.00  0.00    +0.190 C 
ATOM     18  C   UNL     1      15.959  12.089  20.206  0.00  0.00    +0.185 C 
ENDROOT
BRANCH  16   8
ATOM      4  O   UNL     1      14.071  14.822  22.075  0.00  0.00    -0.252 OA
ATOM      8  N   UNL     1      13.771  12.769  21.055  0.00  0.00    -0.292 N 
ATOM     12  N   UNL     1      12.528  13.269  22.921  0.00  0.00    -0.269 N 
ATOM     20  C   UNL     1      13.504  13.733  22.034  0.00  0.00    +0.304 C 
ATOM     34  H   UNL     1      13.213  11.921  21.050  0.00  0.00    +0.151 HD
ATOM     35  H   UNL     1      12.161  12.337  22.746  0.00  0.00    +0.156 HD
BRANCH  12  22
ATOM     22  C   UNL     1      11.984  13.939  24.042  0.00  0.00    +0.035 A 
ATOM     25  C   UNL     1      10.938  14.828  23.859  0.00  0.00    +0.023 A 
ATOM     26  C   UNL     1      12.509  13.691  25.300  0.00  0.00    +0.023 A 
ATOM     30  C   UNL     1      10.401  15.488  24.964  0.00  0.00    +0.002 A 
ATOM     31  C   UNL     1      11.972  14.351  26.405  0.00  0.00    +0.002 A 
ATOM     33  C   UNL     1      10.918  15.250  26.237  0.00  0.00    +0.000 A 
ENDBRANCH  12  22
ENDBRANCH  16   8
BRANCH  15   7
ATOM      7  N   UNL     1      14.106  10.194  16.344  0.00  0.00    -0.187 N 
ATOM      9  N   UNL     1      13.454  10.945  15.450  0.00  0.00    -0.041 NA
ATOM     10  N   UNL     1      12.762   8.828  15.344  0.00  0.00    -0.071 NA
ATOM     11  N   UNL     1      12.631  10.102  14.838  0.00  0.00    -0.020 NA
ATOM     19  C   UNL     1      13.684   8.910  16.276  0.00  0.00    +0.342 A 
BRANCH  19   3
ATOM      3  O   UNL     1      14.133   7.924  17.030  0.00  0.00    -0.423 OA
BRANCH   3  21
ATOM      5  O   UNL     1      10.600   7.936  20.313  0.00  0.00    -0.452 OA
ATOM      6  O   UNL     1      12.031   6.949  21.981  0.00  0.00    -0.453 OA
ATOM     21  C   UNL     1      13.631   7.664  18.298  0.00  0.00    +0.136 A 
ATOM     23  C   UNL     1      12.310   7.980  18.571  0.00  0.00    +0.096 A 
ATOM     24  C   UNL     1      14.475   7.094  19.248  0.00  0.00    +0.050 A 
ATOM     27  C   UNL     1      11.857   7.703  19.844  0.00  0.00    +0.170 A 
ATOM     28  C   UNL     1      12.674   7.139  20.797  0.00  0.00    +0.166 A 
ATOM     29  C   UNL     1      13.990   6.822  20.530  0.00  0.00    +0.053 A 
ATOM     32  C   UNL     1      10.718   7.455  21.667  0.00  0.00    +0.466 C 
ENDBRANCH   3  21
ENDBRANCH  19   3
ENDBRANCH  15   7
TORSDOF 5
ENDMDL
MODEL 6
REMARK VINA RESULT:      -6.9      4.700      7.152
REMARK  Name = 11886217
REMARK  5 active torsions:
REMARK  status: ('A' for Active; 'I' for Inactive)
REMARK    1  A    between atoms: O_3  and  C_19
REMARK    2  A    between atoms: O_3  and  C_21
REMARK    3  A    between atoms: N_7  and  C_15
REMARK    4  A    between atoms: N_8  and  C_16
REMARK    5  A    between atoms: N_12  and  C_22
REMARK                            x       y       z     vdW  Elec       q    Type
REMARK                         _______ _______ _______ _____ _____    ______ ____
ROOT
ATOM      1  O   UNL     1      13.349  10.409  18.141  0.00  0.00    -0.370 OA
ATOM      2  O   UNL     1      13.111   8.431  15.706  0.00  0.00    -0.370 OA
ATOM     13  C   UNL     1      13.970   8.496  16.861  0.00  0.00    +0.176 C 
ATOM     14  C   UNL     1      14.257   9.960  17.123  0.00  0.00    +0.172 C 
ATOM     15  C   UNL     1      13.214   8.025  18.090  0.00  0.00    +0.171 C 
ATOM     16  C   UNL     1      13.952  10.643  15.810  0.00  0.00    +0.131 C 
ATOM     17  C   UNL     1      12.557   9.303  18.599  0.00  0.00    +0.190 C 
ATOM     18  C   UNL     1      12.859   9.761  15.233  0.00  0.00    +0.185 C 
ENDROOT
BRANCH  16   8
ATOM      4  O   UNL     1      16.262  12.313  16.095  0.00  0.00    -0.252 OA
ATOM      8  N   UNL     1      15.110  10.667  14.951  0.00  0.00    -0.292 N 
ATOM     12  N   UNL     1      17.172  11.318  14.174  0.00  0.00    -0.269 N 
ATOM     20  C   UNL     1      16.203  11.517  15.162  0.00  0.00    +0.304 C 
ATOM     34  H   UNL     1      15.166   9.990  14.196  0.00  0.00    +0.151 HD
ATOM     35  H   UNL     1      16.964  10.617  13.467  0.00  0.00    +0.156 HD
BRANCH  12  22
ATOM     22  C   UNL     1      18.416  11.977  14.033  0.00  0.00    +0.035 A 
ATOM     25  C   UNL     1      18.460  13.216  13.415  0.00  0.00    +0.023 A 
ATOM     26  C   UNL     1      19.563  11.370  14.517  0.00  0.00    +0.023 A 
ATOM     30  C   UNL     1      19.686  13.866  13.276  0.00  0.00    +0.002 A 
ATOM     31  C   UNL     1      20.789  12.021  14.378  0.00  0.00    +0.002 A 
ATOM     33  C   UNL     1      20.851  13.269  13.758  0.00  0.00    +0.000 A 
ENDBRANCH  12  22
ENDBRANCH  16   8
BRANCH  15   7
ATOM      7  N   UNL     1      14.083   7.346  19.056  0.00  0.00    -0.187 N 
ATOM      9  N   UNL     1      15.341   7.023  18.739  0.00  0.00    -0.041 NA
ATOM     10  N   UNL     1      14.872   6.385  20.823  0.00  0.00    -0.071 NA
ATOM     11  N   UNL     1      15.821   6.434  19.828  0.00  0.00    -0.020 NA
ATOM     19  C   UNL     1      13.802   6.957  20.322  0.00  0.00    +0.342 A 
BRANCH  19   3
ATOM      3  O   UNL     1      12.642   7.132  20.928  0.00  0.00    -0.423 OA
BRANCH   3  21
ATOM      5  O   UNL     1      13.854  11.253  23.120  0.00  0.00    -0.452 OA
ATOM      6  O   UNL     1      11.561  11.720  23.696  0.00  0.00    -0.453 OA
ATOM     21  C   UNL     1      12.334   8.288  21.631  0.00  0.00    +0.136 A 
ATOM     23  C   UNL     1      13.359   9.150  21.984  0.00  0.00    +0.096 A 
ATOM     24  C   UNL     1      11.002   8.539  21.955  0.00  0.00    +0.050 A 
ATOM     27  C   UNL     1      13.003  10.286  22.681  0.00  0.00    +0.170 A 
ATOM     28  C   UNL     1      11.693  10.553  23.011  0.00  0.00    +0.166 A 
ATOM     29  C   UNL     1      10.668   9.698  22.661  0.00  0.00    +0.053 A 
ATOM     32  C   UNL     1      12.933  12.159  23.761  0.00  0.00    +0.466 C 
ENDBRANCH   3  21
ENDBRANCH  19   3
ENDBRANCH  15   7
TORSDOF 5
ENDMDL
MODEL 7
REMARK VINA RESULT:      -6.8     15.414     18.635
REMARK  Name = 11886217
REMARK  5 active torsions:
REMARK  status: ('A' for Active; 'I' for Inactive)
REMARK    1  A    between atoms: O_3  and  C_19
REMARK    2  A    between atoms: O_3  and  C_21
REMARK    3  A    between atoms: N_7  and  C_15
REMARK    4  A    between atoms: N_8  and  C_16
REMARK    5  A    between atoms: N_12  and  C_22
REMARK                            x       y       z     vdW  Elec       q    Type
REMARK                         _______ _______ _______ _____ _____    ______ ____
ROOT
ATOM      1  O   UNL     1       8.741   7.415   6.677  0.00  0.00    -0.370 OA
ATOM      2  O   UNL     1      10.900   5.627   8.104  0.00  0.00    -0.370 OA
ATOM     13  C   UNL     1      10.968   6.761   7.220  0.00  0.00    +0.176 C 
ATOM     14  C   UNL     1       9.842   6.616   6.217  0.00  0.00    +0.172 C 
ATOM     15  C   UNL     1      10.642   8.030   7.985  0.00  0.00    +0.171 C 
ATOM     16  C   UNL     1       9.482   5.148   6.267  0.00  0.00    +0.131 C 
ATOM     17  C   UNL     1       9.125   8.122   7.865  0.00  0.00    +0.190 C 
ATOM     18  C   UNL     1       9.809   4.785   7.705  0.00  0.00    +0.185 C 
ENDROOT
BRANCH  16   8
ATOM      4  O   UNL     1       9.910   5.723   3.494  0.00  0.00    -0.252 OA
ATOM      8  N   UNL     1      10.278   4.382   5.341  0.00  0.00    -0.292 N 
ATOM     12  N   UNL     1      11.261   3.809   3.345  0.00  0.00    -0.269 N 
ATOM     20  C   UNL     1      10.438   4.733   3.995  0.00  0.00    +0.304 C 
ATOM     34  H   UNL     1      10.801   3.587   5.696  0.00  0.00    +0.151 HD
ATOM     35  H   UNL     1      11.617   3.041   3.909  0.00  0.00    +0.156 HD
BRANCH  12  22
ATOM     22  C   UNL     1      11.664   3.808   1.989  0.00  0.00    +0.035 A 
ATOM     25  C   UNL     1      10.783   4.262   1.020  0.00  0.00    +0.023 A 
ATOM     26  C   UNL     1      12.930   3.355   1.658  0.00  0.00    +0.023 A 
ATOM     30  C   UNL     1      11.180   4.262  -0.317  0.00  0.00    +0.002 A 
ATOM     31  C   UNL     1      13.326   3.355   0.321  0.00  0.00    +0.002 A 
ATOM     33  C   UNL     1      12.451   3.808  -0.667  0.00  0.00    +0.000 A 
ENDBRANCH  12  22
ENDBRANCH  16   8
BRANCH  15   7
ATOM      7  N   UNL     1      11.377   9.194   7.481  0.00  0.00    -0.187 N 
ATOM      9  N   UNL     1      10.827  10.413   7.500  0.00  0.00    -0.041 NA
ATOM     10  N   UNL     1      12.880  10.495   6.634  0.00  0.00    -0.071 NA
ATOM     11  N   UNL     1      11.755  11.208   6.980  0.00  0.00    -0.020 NA
ATOM     19  C   UNL     1      12.623   9.247   6.956  0.00  0.00    +0.342 A 
BRANCH  19   3
ATOM      3  O   UNL     1      13.424   8.210   6.799  0.00  0.00    -0.423 OA
BRANCH   3  21
ATOM      5  O   UNL     1      13.095   7.008   2.140  0.00  0.00    -0.452 OA
ATOM      6  O   UNL     1      15.491   6.884   1.915  0.00  0.00    -0.453 OA
ATOM     21  C   UNL     1      13.981   7.875   5.573  0.00  0.00    +0.136 A 
ATOM     23  C   UNL     1      13.139   7.622   4.503  0.00  0.00    +0.096 A 
ATOM     24  C   UNL     1      15.369   7.808   5.464  0.00  0.00    +0.050 A 
ATOM     27  C   UNL     1      13.740   7.293   3.305  0.00  0.00    +0.170 A 
ATOM     28  C   UNL     1      15.108   7.222   3.176  0.00  0.00    +0.166 A 
ATOM     29  C   UNL     1      15.951   7.475   4.239  0.00  0.00    +0.053 A 
ATOM     32  C   UNL     1      14.212   6.751   1.265  0.00  0.00    +0.466 C 
ENDBRANCH   3  21
ENDBRANCH  19   3
ENDBRANCH  15   7
TORSDOF 5
ENDMDL
MODEL 8
REMARK VINA RESULT:      -6.7     28.560     31.673
REMARK  Name = 11886217
REMARK  5 active torsions:
REMARK  status: ('A' for Active; 'I' for Inactive)
REMARK    1  A    between atoms: O_3  and  C_19
REMARK    2  A    between atoms: O_3  and  C_21
REMARK    3  A    between atoms: N_7  and  C_15
REMARK    4  A    between atoms: N_8  and  C_16
REMARK    5  A    between atoms: N_12  and  C_22
REMARK                            x       y       z     vdW  Elec       q    Type
REMARK                         _______ _______ _______ _____ _____    ______ ____
ROOT
ATOM      1  O   UNL     1      -6.242 -10.154  16.683  0.00  0.00    -0.370 OA
ATOM      2  O   UNL     1      -5.374 -11.811  19.211  0.00  0.00    -0.370 OA
ATOM     13  C   UNL     1      -5.598 -12.143  17.828  0.00  0.00    +0.176 C 
ATOM     14  C   UNL     1      -6.770 -11.309  17.352  0.00  0.00    +0.172 C 
ATOM     15  C   UNL     1      -4.424 -11.673  16.990  0.00  0.00    +0.171 C 
ATOM     16  C   UNL     1      -7.480 -10.899  18.623  0.00  0.00    +0.131 C 
ATOM     17  C   UNL     1      -4.810 -10.242  16.632  0.00  0.00    +0.190 C 
ATOM     18  C   UNL     1      -6.339 -10.833  19.622  0.00  0.00    +0.185 C 
ENDROOT
BRANCH  16   8
ATOM      4  O   UNL     1      -9.686 -10.502  20.406  0.00  0.00    -0.252 OA
ATOM      8  N   UNL     1      -8.460 -11.882  19.014  0.00  0.00    -0.292 N 
ATOM     12  N   UNL     1     -10.299 -12.745  20.087  0.00  0.00    -0.269 N 
ATOM     20  C   UNL     1      -9.513 -11.605  19.894  0.00  0.00    +0.304 C 
ATOM     34  H   UNL     1      -8.424 -12.800  18.581  0.00  0.00    +0.151 HD
ATOM     35  H   UNL     1     -10.015 -13.583  19.587  0.00  0.00    +0.156 HD
BRANCH  12  22
ATOM     22  C   UNL     1     -11.450 -12.879  20.899  0.00  0.00    +0.035 A 
ATOM     25  C   UNL     1     -11.441 -13.788  21.943  0.00  0.00    +0.023 A 
ATOM     26  C   UNL     1     -12.562 -12.096  20.633  0.00  0.00    +0.023 A 
ATOM     30  C   UNL     1     -12.575 -13.921  22.744  0.00  0.00    +0.002 A 
ATOM     31  C   UNL     1     -13.696 -12.229  21.434  0.00  0.00    +0.002 A 
ATOM     33  C   UNL     1     -13.703 -13.141  22.490  0.00  0.00    +0.000 A 
ENDBRANCH  12  22
ENDBRANCH  16   8
BRANCH  15   7
ATOM      7  N   UNL     1      -4.165 -12.550  15.845  0.00  0.00    -0.187 N 
ATOM      9  N   UNL     1      -4.556 -13.829  15.858  0.00  0.00    -0.041 NA
ATOM     10  N   UNL     1      -3.531 -13.345  13.938  0.00  0.00    -0.071 NA
ATOM     11  N   UNL     1      -4.164 -14.312  14.685  0.00  0.00    -0.020 NA
ATOM     19  C   UNL     1      -3.544 -12.260  14.678  0.00  0.00    +0.342 A 
BRANCH  19   3
ATOM      3  O   UNL     1      -3.041 -11.081  14.360  0.00  0.00    -0.423 OA
BRANCH   3  21
ATOM      5  O   UNL     1      -5.640  -9.272  10.723  0.00  0.00    -0.452 OA
ATOM      6  O   UNL     1      -3.671  -8.917   9.380  0.00  0.00    -0.453 OA
ATOM     21  C   UNL     1      -3.167 -10.534  13.090  0.00  0.00    +0.136 A 
ATOM     23  C   UNL     1      -4.429 -10.203  12.627  0.00  0.00    +0.096 A 
ATOM     24  C   UNL     1      -2.016 -10.338  12.330  0.00  0.00    +0.050 A 
ATOM     27  C   UNL     1      -4.503  -9.662  11.360  0.00  0.00    +0.170 A 
ATOM     28  C   UNL     1      -3.378  -9.459  10.592  0.00  0.00    +0.166 A 
ATOM     29  C   UNL     1      -2.118  -9.787  11.050  0.00  0.00    +0.053 A 
ATOM     32  C   UNL     1      -5.106  -8.801   9.469  0.00  0.00    +0.466 C 
ENDBRANCH   3  21
ENDBRANCH  19   3
ENDBRANCH  15   7
TORSDOF 5
ENDMDL
MODEL 9
REMARK VINA RESULT:      -6.7     27.897     32.272
REMARK  Name = 11886217
REMARK  5 active torsions:
REMARK  status: ('A' for Active; 'I' for Inactive)
REMARK    1  A    between atoms: O_3  and  C_19
REMARK    2  A    between atoms: O_3  and  C_21
REMARK    3  A    between atoms: N_7  and  C_15
REMARK    4  A    between atoms: N_8  and  C_16
REMARK    5  A    between atoms: N_12  and  C_22
REMARK                            x       y       z     vdW  Elec       q    Type
REMARK                         _______ _______ _______ _____ _____    ______ ____
ROOT
ATOM      1  O   UNL     1      -9.245 -11.344  16.306  0.00  0.00    -0.370 OA
ATOM      2  O   UNL     1      -8.911  -8.339  17.172  0.00  0.00    -0.370 OA
ATOM     13  C   UNL     1      -8.466  -9.593  17.724  0.00  0.00    +0.176 C 
ATOM     14  C   UNL     1      -9.573 -10.602  17.490  0.00  0.00    +0.172 C 
ATOM     15  C   UNL     1      -7.290 -10.119  16.922  0.00  0.00    +0.171 C 
ATOM     16  C   UNL     1     -10.806  -9.758  17.255  0.00  0.00    +0.131 C 
ATOM     17  C   UNL     1      -7.961 -10.927  15.818  0.00  0.00    +0.190 C 
ATOM     18  C   UNL     1     -10.225  -8.507  16.622  0.00  0.00    +0.185 C 
ENDROOT
BRANCH  16   8
ATOM      4  O   UNL     1     -13.349 -10.753  18.119  0.00  0.00    -0.252 OA
ATOM      8  N   UNL     1     -11.475  -9.453  18.496  0.00  0.00    -0.292 N 
ATOM     12  N   UNL     1     -13.119  -9.513  20.099  0.00  0.00    -0.269 N 
ATOM     20  C   UNL     1     -12.722  -9.985  18.845  0.00  0.00    +0.304 C 
ATOM     34  H   UNL     1     -10.989  -8.878  19.178  0.00  0.00    +0.151 HD
ATOM     35  H   UNL     1     -12.480  -8.877  20.570  0.00  0.00    +0.156 HD
BRANCH  12  22
ATOM     22  C   UNL     1     -14.309  -9.812  20.802  0.00  0.00    +0.035 A 
ATOM     25  C   UNL     1     -15.313  -8.860  20.873  0.00  0.00    +0.023 A 
ATOM     26  C   UNL     1     -14.448 -11.052  21.405  0.00  0.00    +0.023 A 
ATOM     30  C   UNL     1     -16.487  -9.154  21.566  0.00  0.00    +0.002 A 
ATOM     31  C   UNL     1     -15.622 -11.347  22.097  0.00  0.00    +0.002 A 
ATOM     33  C   UNL     1     -16.641 -10.398  22.178  0.00  0.00    +0.000 A 
ENDBRANCH  12  22
ENDBRANCH  16   8
BRANCH  15   7
ATOM      7  N   UNL     1      -6.338 -10.867  17.748  0.00  0.00    -0.187 N 
ATOM      9  N   UNL     1      -6.764 -11.764  18.644  0.00  0.00    -0.041 NA
ATOM     10  N   UNL     1      -4.538 -11.644  18.657  0.00  0.00    -0.071 NA
ATOM     11  N   UNL     1      -5.655 -12.238  19.198  0.00  0.00    -0.020 NA
ATOM     19  C   UNL     1      -4.987 -10.797  17.758  0.00  0.00    +0.342 A 
BRANCH  19   3
ATOM      3  O   UNL     1      -4.263 -10.005  16.989  0.00  0.00    -0.423 OA
BRANCH   3  21
ATOM      5  O   UNL     1      -4.034 -11.315  12.354  0.00  0.00    -0.452 OA
ATOM      6  O   UNL     1      -1.683 -11.815  12.523  0.00  0.00    -0.453 OA
ATOM     21  C   UNL     1      -3.578 -10.467  15.874  0.00  0.00    +0.136 A 
ATOM     23  C   UNL     1      -4.269 -10.627  14.684  0.00  0.00    +0.096 A 
ATOM     24  C   UNL     1      -2.220 -10.752  15.994  0.00  0.00    +0.050 A 
ATOM     27  C   UNL     1      -3.546 -11.089  13.604  0.00  0.00    +0.170 A 
ATOM     28  C   UNL     1      -2.203 -11.375  13.700  0.00  0.00    +0.166 A 
ATOM     29  C   UNL     1      -1.510 -11.216  14.883  0.00  0.00    +0.053 A 
ATOM     32  C   UNL     1      -2.848 -11.774  11.675  0.00  0.00    +0.466 C 
ENDBRANCH   3  21
ENDBRANCH  19   3
ENDBRANCH  15   7
TORSDOF 5
ENDMDL
MODEL 10
REMARK VINA RESULT:      -6.7     28.789     32.248
REMARK  Name = 11886217
REMARK  5 active torsions:
REMARK  status: ('A' for Active; 'I' for Inactive)
REMARK    1  A    between atoms: O_3  and  C_19
REMARK    2  A    between atoms: O_3  and  C_21
REMARK    3  A    between atoms: N_7  and  C_15
REMARK    4  A    between atoms: N_8  and  C_16
REMARK    5  A    between atoms: N_12  and  C_22
REMARK                            x       y       z     vdW  Elec       q    Type
REMARK                         _______ _______ _______ _____ _____    ______ ____
ROOT
ATOM      1  O   UNL     1     -11.372 -11.571  16.306  0.00  0.00    -0.370 OA
ATOM      2  O   UNL     1      -9.201 -10.207  14.485  0.00  0.00    -0.370 OA
ATOM     13  C   UNL     1      -9.461 -10.205  15.901  0.00  0.00    +0.176 C 
ATOM     14  C   UNL     1     -10.966 -10.213  16.080  0.00  0.00    +0.172 C 
ATOM     15  C   UNL     1      -8.993 -11.513  16.511  0.00  0.00    +0.171 C 
ATOM     16  C   UNL     1     -11.503  -9.719  14.756  0.00  0.00    +0.131 C 
ATOM     17  C   UNL     1     -10.213 -12.416  16.364  0.00  0.00    +0.190 C 
ATOM     18  C   UNL     1     -10.449 -10.205  13.778  0.00  0.00    +0.185 C 
ENDROOT
BRANCH  16   8
ATOM      4  O   UNL     1     -13.008  -8.135  12.904  0.00  0.00    -0.252 OA
ATOM      8  N   UNL     1     -11.608  -8.280  14.738  0.00  0.00    -0.292 N 
ATOM     12  N   UNL     1     -12.282  -6.203  14.023  0.00  0.00    -0.269 N 
ATOM     20  C   UNL     1     -12.369  -7.580  13.794  0.00  0.00    +0.304 C 
ATOM     34  H   UNL     1     -11.162  -7.754  15.483  0.00  0.00    +0.151 HD
ATOM     35  H   UNL     1     -11.705  -5.908  14.807  0.00  0.00    +0.156 HD
BRANCH  12  22
ATOM     22  C   UNL     1     -12.901  -5.161  13.295  0.00  0.00    +0.035 A 
ATOM     25  C   UNL     1     -14.227  -4.852  13.549  0.00  0.00    +0.023 A 
ATOM     26  C   UNL     1     -12.168  -4.471  12.344  0.00  0.00    +0.023 A 
ATOM     30  C   UNL     1     -14.838  -3.824  12.831  0.00  0.00    +0.002 A 
ATOM     31  C   UNL     1     -12.779  -3.443  11.626  0.00  0.00    +0.002 A 
ATOM     33  C   UNL     1     -14.115  -3.119  11.870  0.00  0.00    +0.000 A 
ENDBRANCH  12  22
ENDBRANCH  16   8
BRANCH  15   7
ATOM      7  N   UNL     1      -8.505 -11.349  17.883  0.00  0.00    -0.187 N 
ATOM      9  N   UNL     1      -9.041 -12.046  18.891  0.00  0.00    -0.041 NA
ATOM     10  N   UNL     1      -7.416 -10.715  19.640  0.00  0.00    -0.071 NA
ATOM     11  N   UNL     1      -8.369 -11.653  19.966  0.00  0.00    -0.020 NA
ATOM     19  C   UNL     1      -7.519 -10.543  18.341  0.00  0.00    +0.342 A 
BRANCH  19   3
ATOM      3  O   UNL     1      -6.797  -9.728  17.594  0.00  0.00    -0.423 OA
BRANCH   3  21
ATOM      5  O   UNL     1      -4.366 -10.388  13.481  0.00  0.00    -0.452 OA
ATOM      6  O   UNL     1      -2.501 -11.376  14.643  0.00  0.00    -0.453 OA
ATOM     21  C   UNL     1      -5.691 -10.158  16.874  0.00  0.00    +0.136 A 
ATOM     23  C   UNL     1      -5.688 -10.004  15.497  0.00  0.00    +0.096 A 
ATOM     24  C   UNL     1      -4.623 -10.728  17.565  0.00  0.00    +0.050 A 
ATOM     27  C   UNL     1      -4.566 -10.446  14.826  0.00  0.00    +0.170 A 
ATOM     28  C   UNL     1      -3.501 -11.010  15.489  0.00  0.00    +0.166 A 
ATOM     29  C   UNL     1      -3.499 -11.165  16.861  0.00  0.00    +0.053 A 
ATOM     32  C   UNL     1      -3.055 -10.979  13.373  0.00  0.00    +0.466 C 
ENDBRANCH   3  21
ENDBRANCH  19   3
ENDBRANCH  15   7
TORSDOF 5
ENDMDL
