MODEL 1
REMARK VINA RESULT:      -6.8      0.000      0.000
REMARK  Name = 45361691
REMARK  11 active torsions:
REMARK  status: ('A' for Active; 'I' for Inactive)
REMARK    1  A    between atoms: O_1  and  C_14
REMARK    2  A    between atoms: O_1  and  C_23
REMARK    3  A    between atoms: O_2  and  C_15
REMARK    4  A    between atoms: O_3  and  C_19
REMARK    5  A    between atoms: N_7  and  C_28
REMARK    6  A    between atoms: C_8  and  C_18
REMARK    7  A    between atoms: C_10  and  C_19
REMARK    8  A    between atoms: C_10  and  C_21
REMARK    9  A    between atoms: C_11  and  C_20
REMARK   10  A    between atoms: C_20  and  C_22
REMARK   11  A    between atoms: C_33  and  C_34
REMARK                            x       y       z     vdW  Elec       q    Type
REMARK                         _______ _______ _______ _____ _____    ______ ____
ROOT
ATOM      8  C   UNL     1      -4.130 -11.837  14.672  0.00  0.00    -0.023 C 
ATOM      9  C   UNL     1      -4.210 -11.112  16.072  0.00  0.00    +0.007 C 
ATOM     10  C   UNL     1      -5.420 -11.506  17.004  0.00  0.00    +0.031 C 
ATOM     11  C   UNL     1      -3.051 -11.059  13.809  0.00  0.00    +0.032 C 
ATOM     12  C   UNL     1      -5.515 -11.724  13.980  0.00  0.00    +0.011 C 
ATOM     13  C   UNL     1      -2.833 -11.109  16.770  0.00  0.00    +0.007 C 
ATOM     14  C   UNL     1      -6.739 -11.431  16.177  0.00  0.00    +0.186 C 
ATOM     15  C   UNL     1      -1.673 -10.948  14.502  0.00  0.00    +0.119 C 
ATOM     16  C   UNL     1      -6.679 -12.184  14.852  0.00  0.00    +0.046 C 
ATOM     17  C   UNL     1      -1.782 -10.394  15.920  0.00  0.00    +0.032 C 
ATOM     18  C   UNL     1      -3.767 -13.339  14.772  0.00  0.00    +0.012 C 
ATOM     21  C   UNL     1      -5.533 -10.465  18.155  0.00  0.00    +0.017 C 
ENDROOT
BRANCH  15   2
ATOM      2  O   UNL     1      -1.014 -12.210  14.529  0.00  0.00    -0.391 OA
ATOM     35  H   UNL     1      -0.122 -12.085  14.162  0.00  0.00    +0.210 HD
ENDBRANCH  15   2
BRANCH  14   1
ATOM      1  O   UNL     1      -7.852 -11.952  16.904  0.00  0.00    -0.446 OA
BRANCH   1  23
ATOM      5  O   UNL     1     -10.136 -11.871  16.837  0.00  0.00    -0.226 OA
ATOM      7  N   UNL     1      -8.810  -9.999  16.371  0.00  0.00    -0.251 N 
ATOM     23  C   UNL     1      -9.051 -11.317  16.712  0.00  0.00    +0.405 C 
ATOM     37  H   UNL     1      -7.833  -9.721  16.318  0.00  0.00    +0.158 HD
BRANCH   7  28
ATOM     28  C   UNL     1      -9.754  -8.987  16.086  0.00  0.00    +0.036 A 
ATOM     29  C   UNL     1     -10.018  -7.993  17.029  0.00  0.00    +0.023 A 
ATOM     30  C   UNL     1     -10.424  -8.982  14.863  0.00  0.00    +0.023 A 
ATOM     31  C   UNL     1     -10.949  -6.994  16.747  0.00  0.00    +0.005 A 
ATOM     32  C   UNL     1     -11.356  -7.984  14.581  0.00  0.00    +0.005 A 
ATOM     33  C   UNL     1     -11.618  -6.990  15.524  0.00  0.00    -0.050 A 
ATOM     34  C   UNL     1     -12.614  -5.921  15.222  0.00  0.00    +0.044 C 
ENDBRANCH   7  28
ENDBRANCH   1  23
ENDBRANCH  14   1
BRANCH  10  19
ATOM     19  C   UNL     1      -5.264 -12.876  17.693  0.00  0.00    +0.166 C 
BRANCH  19   3
ATOM      3  O   UNL     1      -6.083 -12.880  18.840  0.00  0.00    -0.394 OA
ATOM     36  H   UNL     1      -6.033 -11.992  19.236  0.00  0.00    +0.209 HD
ENDBRANCH  19   3
ENDBRANCH  10  19
BRANCH  11  20
ATOM     20  C   UNL     1      -2.873 -11.581  12.374  0.00  0.00    +0.102 C 
BRANCH  20  22
ATOM      4  O   UNL     1      -1.628  -9.759  11.479  0.00  0.00    -0.276 OA
ATOM      6  N   UNL     1      -3.705 -10.172  10.555  0.00  0.00    -0.301 N 
ATOM     22  C   UNL     1      -2.666 -10.421  11.433  0.00  0.00    +0.216 C 
ATOM     24  C   UNL     1      -3.662  -9.085   9.589  0.00  0.00    +0.108 C 
ATOM     25  C   UNL     1      -4.954 -10.919  10.448  0.00  0.00    +0.108 C 
ATOM     26  C   UNL     1      -4.815  -9.372   8.641  0.00  0.00    +0.020 C 
ATOM     27  C   UNL     1      -5.829 -10.065   9.541  0.00  0.00    +0.020 C 
ENDBRANCH  20  22
ENDBRANCH  11  20
TORSDOF 8
ENDMDL
MODEL 2
REMARK VINA RESULT:      -6.8      2.029      7.593
REMARK  Name = 45361691
REMARK  11 active torsions:
REMARK  status: ('A' for Active; 'I' for Inactive)
REMARK    1  A    between atoms: O_1  and  C_14
REMARK    2  A    between atoms: O_1  and  C_23
REMARK    3  A    between atoms: O_2  and  C_15
REMARK    4  A    between atoms: O_3  and  C_19
REMARK    5  A    between atoms: N_7  and  C_28
REMARK    6  A    between atoms: C_8  and  C_18
REMARK    7  A    between atoms: C_10  and  C_19
REMARK    8  A    between atoms: C_10  and  C_21
REMARK    9  A    between atoms: C_11  and  C_20
REMARK   10  A    between atoms: C_20  and  C_22
REMARK   11  A    between atoms: C_33  and  C_34
REMARK                            x       y       z     vdW  Elec       q    Type
REMARK                         _______ _______ _______ _____ _____    ______ ____
ROOT
ATOM      8  C   UNL     1      -7.482 -10.544  18.155  0.00  0.00    -0.023 C 
ATOM      9  C   UNL     1      -6.923 -12.017  18.250  0.00  0.00    +0.007 C 
ATOM     10  C   UNL     1      -5.379 -12.205  17.992  0.00  0.00    +0.031 C 
ATOM     11  C   UNL     1      -9.064 -10.651  18.126  0.00  0.00    +0.032 C 
ATOM     12  C   UNL     1      -6.990  -9.917  16.822  0.00  0.00    +0.011 C 
ATOM     13  C   UNL     1      -7.458 -12.729  19.511  0.00  0.00    +0.007 C 
ATOM     14  C   UNL     1      -4.993 -11.467  16.675  0.00  0.00    +0.186 C 
ATOM     15  C   UNL     1      -9.649 -11.435  19.325  0.00  0.00    +0.119 C 
ATOM     16  C   UNL     1      -5.483 -10.024  16.612  0.00  0.00    +0.046 C 
ATOM     17  C   UNL     1      -8.985 -12.797  19.505  0.00  0.00    +0.032 C 
ATOM     18  C   UNL     1      -7.019  -9.629  19.314  0.00  0.00    +0.012 C 
ATOM     21  C   UNL     1      -5.080 -13.718  17.782  0.00  0.00    +0.017 C 
ENDROOT
BRANCH  15   2
ATOM      2  O   UNL     1      -9.536 -10.682  20.528  0.00  0.00    -0.391 OA
ATOM     35  H   UNL     1     -10.435 -10.493  20.845  0.00  0.00    +0.210 HD
ENDBRANCH  15   2
BRANCH  14   1
ATOM      1  O   UNL     1      -3.579 -11.438  16.477  0.00  0.00    -0.446 OA
BRANCH   1  23
ATOM      5  O   UNL     1      -2.062 -10.243  15.252  0.00  0.00    -0.226 OA
ATOM      7  N   UNL     1      -4.101 -10.959  14.352  0.00  0.00    -0.251 N 
ATOM     23  C   UNL     1      -3.141 -10.817  15.336  0.00  0.00    +0.405 C 
ATOM     37  H   UNL     1      -4.939 -11.474  14.613  0.00  0.00    +0.158 HD
BRANCH   7  28
ATOM     28  C   UNL     1      -4.065 -10.476  13.024  0.00  0.00    +0.036 A 
ATOM     29  C   UNL     1      -2.940 -10.705  12.230  0.00  0.00    +0.023 A 
ATOM     30  C   UNL     1      -5.150  -9.770  12.508  0.00  0.00    +0.023 A 
ATOM     31  C   UNL     1      -2.904 -10.229  10.920  0.00  0.00    +0.005 A 
ATOM     32  C   UNL     1      -5.115  -9.294  11.197  0.00  0.00    +0.005 A 
ATOM     33  C   UNL     1      -3.991  -9.523  10.404  0.00  0.00    -0.050 A 
ATOM     34  C   UNL     1      -3.953  -9.015   9.002  0.00  0.00    +0.044 C 
ENDBRANCH   7  28
ENDBRANCH   1  23
ENDBRANCH  14   1
BRANCH  10  19
ATOM     19  C   UNL     1      -4.486 -11.762  19.168  0.00  0.00    +0.166 C 
BRANCH  19   3
ATOM      3  O   UNL     1      -3.293 -12.512  19.115  0.00  0.00    -0.394 OA
ATOM     36  H   UNL     1      -3.408 -13.191  18.426  0.00  0.00    +0.209 HD
ENDBRANCH  19   3
ENDBRANCH  10  19
BRANCH  11  20
ATOM     20  C   UNL     1      -9.799  -9.310  17.970  0.00  0.00    +0.102 C 
BRANCH  20  22
ATOM      4  O   UNL     1     -11.127 -10.493  16.386  0.00  0.00    -0.276 OA
ATOM      6  N   UNL     1     -11.226  -8.186  16.331  0.00  0.00    -0.301 N 
ATOM     22  C   UNL     1     -10.778  -9.397  16.826  0.00  0.00    +0.216 C 
ATOM     24  C   UNL     1     -12.166  -8.099  15.224  0.00  0.00    +0.108 C 
ATOM     25  C   UNL     1     -10.856  -6.858  16.809  0.00  0.00    +0.108 C 
ATOM     26  C   UNL     1     -12.625  -6.649  15.228  0.00  0.00    +0.020 C 
ATOM     27  C   UNL     1     -11.403  -5.908  15.753  0.00  0.00    +0.020 C 
ENDBRANCH  20  22
ENDBRANCH  11  20
TORSDOF 8
ENDMDL
MODEL 3
REMARK VINA RESULT:      -6.6     27.488     31.005
REMARK  Name = 45361691
REMARK  11 active torsions:
REMARK  status: ('A' for Active; 'I' for Inactive)
REMARK    1  A    between atoms: O_1  and  C_14
REMARK    2  A    between atoms: O_1  and  C_23
REMARK    3  A    between atoms: O_2  and  C_15
REMARK    4  A    between atoms: O_3  and  C_19
REMARK    5  A    between atoms: N_7  and  C_28
REMARK    6  A    between atoms: C_8  and  C_18
REMARK    7  A    between atoms: C_10  and  C_19
REMARK    8  A    between atoms: C_10  and  C_21
REMARK    9  A    between atoms: C_11  and  C_20
REMARK   10  A    between atoms: C_20  and  C_22
REMARK   11  A    between atoms: C_33  and  C_34
REMARK                            x       y       z     vdW  Elec       q    Type
REMARK                         _______ _______ _______ _____ _____    ______ ____
ROOT
ATOM      8  C   UNL     1      12.647  10.182  21.698  0.00  0.00    -0.023 C 
ATOM      9  C   UNL     1      13.372  10.538  20.342  0.00  0.00    +0.007 C 
ATOM     10  C   UNL     1      13.731   9.331  19.394  0.00  0.00    +0.031 C 
ATOM     11  C   UNL     1      12.686  11.485  22.599  0.00  0.00    +0.032 C 
ATOM     12  C   UNL     1      13.447   9.052  22.400  0.00  0.00    +0.011 C 
ATOM     13  C   UNL     1      12.675  11.724  19.640  0.00  0.00    +0.007 C 
ATOM     14  C   UNL     1      14.457   8.232  20.228  0.00  0.00    +0.186 C 
ATOM     15  C   UNL     1      12.079  12.729  21.908  0.00  0.00    +0.119 C 
ATOM     16  C   UNL     1      13.722   7.846  21.508  0.00  0.00    +0.046 C 
ATOM     17  C   UNL     1      12.676  12.971  20.525  0.00  0.00    +0.032 C 
ATOM     18  C   UNL     1      11.190   9.692  21.512  0.00  0.00    +0.012 C 
ATOM     21  C   UNL     1      14.728   9.821  18.303  0.00  0.00    +0.017 C 
ENDROOT
BRANCH  15   2
ATOM      2  O   UNL     1      10.663  12.615  21.808  0.00  0.00    -0.391 OA
ATOM     35  H   UNL     1      10.448  12.400  20.885  0.00  0.00    +0.210 HD
ENDBRANCH  15   2
BRANCH  14   1
ATOM      1  O   UNL     1      14.646   7.033  19.476  0.00  0.00    -0.446 OA
BRANCH   1  23
ATOM      5  O   UNL     1      16.308   5.802  18.501  0.00  0.00    -0.226 OA
ATOM      7  N   UNL     1      16.697   7.164  20.365  0.00  0.00    -0.251 N 
ATOM     23  C   UNL     1      15.938   6.586  19.366  0.00  0.00    +0.405 C 
ATOM     37  H   UNL     1      16.207   7.796  20.993  0.00  0.00    +0.158 HD
BRANCH   7  28
ATOM     28  C   UNL     1      18.075   6.985  20.624  0.00  0.00    +0.036 A 
ATOM     29  C   UNL     1      18.710   5.805  20.235  0.00  0.00    +0.023 A 
ATOM     30  C   UNL     1      18.801   7.987  21.268  0.00  0.00    +0.023 A 
ATOM     31  C   UNL     1      20.070   5.629  20.489  0.00  0.00    +0.005 A 
ATOM     32  C   UNL     1      20.161   7.811  21.523  0.00  0.00    +0.005 A 
ATOM     33  C   UNL     1      20.794   6.631  21.134  0.00  0.00    -0.050 A 
ATOM     34  C   UNL     1      22.249   6.443  21.405  0.00  0.00    +0.044 C 
ENDBRANCH   7  28
ENDBRANCH   1  23
ENDBRANCH  14   1
BRANCH  10  19
ATOM     19  C   UNL     1      12.525   8.751  18.627  0.00  0.00    +0.166 C 
BRANCH  19   3
ATOM      3  O   UNL     1      13.020   8.018  17.529  0.00  0.00    -0.394 OA
ATOM     36  H   UNL     1      13.990   7.989  17.613  0.00  0.00    +0.209 HD
ENDBRANCH  19   3
ENDBRANCH  10  19
BRANCH  11  20
ATOM     20  C   UNL     1      12.079  11.319  24.002  0.00  0.00    +0.102 C 
BRANCH  20  22
ATOM      4  O   UNL     1      14.079  11.549  25.274  0.00  0.00    -0.276 OA
ATOM      6  N   UNL     1      12.418  13.116  25.627  0.00  0.00    -0.301 N 
ATOM     22  C   UNL     1      12.959  11.997  25.021  0.00  0.00    +0.216 C 
ATOM     24  C   UNL     1      13.138  13.877  26.637  0.00  0.00    +0.108 C 
ATOM     25  C   UNL     1      11.105  13.698  25.370  0.00  0.00    +0.108 C 
ATOM     26  C   UNL     1      12.343  15.165  26.782  0.00  0.00    +0.020 C 
ATOM     27  C   UNL     1      10.917  14.718  26.484  0.00  0.00    +0.020 C 
ENDBRANCH  20  22
ENDBRANCH  11  20
TORSDOF 8
ENDMDL
MODEL 4
REMARK VINA RESULT:      -6.5      2.160      2.514
REMARK  Name = 45361691
REMARK  11 active torsions:
REMARK  status: ('A' for Active; 'I' for Inactive)
REMARK    1  A    between atoms: O_1  and  C_14
REMARK    2  A    between atoms: O_1  and  C_23
REMARK    3  A    between atoms: O_2  and  C_15
REMARK    4  A    between atoms: O_3  and  C_19
REMARK    5  A    between atoms: N_7  and  C_28
REMARK    6  A    between atoms: C_8  and  C_18
REMARK    7  A    between atoms: C_10  and  C_19
REMARK    8  A    between atoms: C_10  and  C_21
REMARK    9  A    between atoms: C_11  and  C_20
REMARK   10  A    between atoms: C_20  and  C_22
REMARK   11  A    between atoms: C_33  and  C_34
REMARK                            x       y       z     vdW  Elec       q    Type
REMARK                         _______ _______ _______ _____ _____    ______ ____
ROOT
ATOM      8  C   UNL     1      -4.404 -11.554  14.634  0.00  0.00    -0.023 C 
ATOM      9  C   UNL     1      -4.236 -10.910  16.065  0.00  0.00    +0.007 C 
ATOM     10  C   UNL     1      -5.334 -11.273  17.137  0.00  0.00    +0.031 C 
ATOM     11  C   UNL     1      -3.396 -10.803  13.667  0.00  0.00    +0.032 C 
ATOM     12  C   UNL     1      -5.858 -11.303  14.150  0.00  0.00    +0.011 C 
ATOM     13  C   UNL     1      -2.780 -11.046  16.562  0.00  0.00    +0.007 C 
ATOM     14  C   UNL     1      -6.744 -11.057  16.509  0.00  0.00    +0.186 C 
ATOM     15  C   UNL     1      -1.932 -10.831  14.165  0.00  0.00    +0.119 C 
ATOM     16  C   UNL     1      -6.924 -11.731  15.152  0.00  0.00    +0.046 C 
ATOM     17  C   UNL     1      -1.802 -10.357  15.609  0.00  0.00    +0.032 C 
ATOM     18  C   UNL     1      -4.149 -13.081  14.607  0.00  0.00    +0.012 C 
ATOM     21  C   UNL     1      -5.207 -10.298  18.343  0.00  0.00    +0.017 C 
ENDROOT
BRANCH  15   2
ATOM      2  O   UNL     1      -1.375 -12.135  14.035  0.00  0.00    -0.391 OA
ATOM     35  H   UNL     1      -1.482 -12.412  13.109  0.00  0.00    +0.210 HD
ENDBRANCH  15   2
BRANCH  14   1
ATOM      1  O   UNL     1      -7.784 -11.541  17.359  0.00  0.00    -0.446 OA
BRANCH   1  23
ATOM      5  O   UNL     1      -8.711  -9.451  17.409  0.00  0.00    -0.226 OA
ATOM      7  N   UNL     1      -9.790 -11.315  18.327  0.00  0.00    -0.251 N 
ATOM     23  C   UNL     1      -8.771 -10.645  17.678  0.00  0.00    +0.405 C 
ATOM     37  H   UNL     1      -9.657 -12.314  18.460  0.00  0.00    +0.158 HD
BRANCH   7  28
ATOM     28  C   UNL     1     -10.999 -10.782  18.831  0.00  0.00    +0.036 A 
ATOM     29  C   UNL     1     -12.086 -10.591  17.977  0.00  0.00    +0.023 A 
ATOM     30  C   UNL     1     -11.105 -10.447  20.180  0.00  0.00    +0.023 A 
ATOM     31  C   UNL     1     -13.279 -10.067  18.474  0.00  0.00    +0.005 A 
ATOM     32  C   UNL     1     -12.298  -9.922  20.677  0.00  0.00    +0.005 A 
ATOM     33  C   UNL     1     -13.384  -9.732  19.823  0.00  0.00    -0.050 A 
ATOM     34  C   UNL     1     -14.660  -9.171  20.356  0.00  0.00    +0.044 C 
ENDBRANCH   7  28
ENDBRANCH   1  23
ENDBRANCH  14   1
BRANCH  10  19
ATOM     19  C   UNL     1      -5.193 -12.690  17.728  0.00  0.00    +0.166 C 
BRANCH  19   3
ATOM      3  O   UNL     1      -5.873 -12.715  18.963  0.00  0.00    -0.394 OA
ATOM     36  H   UNL     1      -5.428 -13.372  19.527  0.00  0.00    +0.209 HD
ENDBRANCH  19   3
ENDBRANCH  10  19
BRANCH  11  20
ATOM     20  C   UNL     1      -3.457 -11.249  12.198  0.00  0.00    +0.102 C 
BRANCH  20  22
ATOM      4  O   UNL     1      -2.214  -9.547  11.089  0.00  0.00    -0.276 OA
ATOM      6  N   UNL     1      -4.500  -9.576  10.749  0.00  0.00    -0.301 N 
ATOM     22  C   UNL     1      -3.320 -10.049  11.296  0.00  0.00    +0.216 C 
ATOM     24  C   UNL     1      -4.537  -8.422   9.864  0.00  0.00    +0.108 C 
ATOM     25  C   UNL     1      -5.836 -10.126  10.950  0.00  0.00    +0.108 C 
ATOM     26  C   UNL     1      -5.930  -8.455   9.254  0.00  0.00    +0.020 C 
ATOM     27  C   UNL     1      -6.770  -9.078  10.362  0.00  0.00    +0.020 C 
ENDBRANCH  20  22
ENDBRANCH  11  20
TORSDOF 8
ENDMDL
MODEL 5
REMARK VINA RESULT:      -6.4      5.006     10.771
REMARK  Name = 45361691
REMARK  11 active torsions:
REMARK  status: ('A' for Active; 'I' for Inactive)
REMARK    1  A    between atoms: O_1  and  C_14
REMARK    2  A    between atoms: O_1  and  C_23
REMARK    3  A    between atoms: O_2  and  C_15
REMARK    4  A    between atoms: O_3  and  C_19
REMARK    5  A    between atoms: N_7  and  C_28
REMARK    6  A    between atoms: C_8  and  C_18
REMARK    7  A    between atoms: C_10  and  C_19
REMARK    8  A    between atoms: C_10  and  C_21
REMARK    9  A    between atoms: C_11  and  C_20
REMARK   10  A    between atoms: C_20  and  C_22
REMARK   11  A    between atoms: C_33  and  C_34
REMARK                            x       y       z     vdW  Elec       q    Type
REMARK                         _______ _______ _______ _____ _____    ______ ____
ROOT
ATOM      8  C   UNL     1     -11.588  -6.457   9.758  0.00  0.00    -0.023 C 
ATOM      9  C   UNL     1     -10.300  -5.767   9.162  0.00  0.00    +0.007 C 
ATOM     10  C   UNL     1      -9.402  -6.647   8.210  0.00  0.00    +0.031 C 
ATOM     11  C   UNL     1     -12.131  -5.510  10.907  0.00  0.00    +0.032 C 
ATOM     12  C   UNL     1     -11.174  -7.821  10.374  0.00  0.00    +0.011 C 
ATOM     13  C   UNL     1     -10.631  -4.361   8.617  0.00  0.00    +0.007 C 
ATOM     14  C   UNL     1      -9.122  -8.015   8.904  0.00  0.00    +0.186 C 
ATOM     15  C   UNL     1     -12.395  -4.061  10.435  0.00  0.00    +0.119 C 
ATOM     16  C   UNL     1     -10.376  -8.709   9.425  0.00  0.00    +0.046 C 
ATOM     17  C   UNL     1     -11.193  -3.458   9.715  0.00  0.00    +0.032 C 
ATOM     18  C   UNL     1     -12.691  -6.724   8.705  0.00  0.00    +0.012 C 
ATOM     21  C   UNL     1      -8.030  -5.939   8.009  0.00  0.00    +0.017 C 
ENDROOT
BRANCH  15   2
ATOM      2  O   UNL     1     -13.540  -4.002   9.591  0.00  0.00    -0.391 OA
ATOM     35  H   UNL     1     -13.656  -3.077   9.313  0.00  0.00    +0.210 HD
ENDBRANCH  15   2
BRANCH  14   1
ATOM      1  O   UNL     1      -8.471  -8.932   8.024  0.00  0.00    -0.446 OA
BRANCH   1  23
ATOM      5  O   UNL     1      -7.446 -10.926   8.478  0.00  0.00    -0.226 OA
ATOM      7  N   UNL     1      -6.590  -8.885   9.240  0.00  0.00    -0.251 N 
ATOM     23  C   UNL     1      -7.485  -9.706   8.580  0.00  0.00    +0.405 C 
ATOM     37  H   UNL     1      -6.792  -7.888   9.213  0.00  0.00    +0.158 HD
BRANCH   7  28
ATOM     28  C   UNL     1      -5.427  -9.259   9.950  0.00  0.00    +0.036 A 
ATOM     29  C   UNL     1      -4.167  -8.963   9.429  0.00  0.00    +0.023 A 
ATOM     30  C   UNL     1      -5.538  -9.924  11.170  0.00  0.00    +0.023 A 
ATOM     31  C   UNL     1      -3.019  -9.331  10.130  0.00  0.00    +0.005 A 
ATOM     32  C   UNL     1      -4.389 -10.292  11.872  0.00  0.00    +0.005 A 
ATOM     33  C   UNL     1      -3.130  -9.996  11.350  0.00  0.00    -0.050 A 
ATOM     34  C   UNL     1      -1.903 -10.389  12.101  0.00  0.00    +0.044 C 
ENDBRANCH   7  28
ENDBRANCH   1  23
ENDBRANCH  14   1
BRANCH  10  19
ATOM     19  C   UNL     1      -9.984  -6.842   6.796  0.00  0.00    +0.166 C 
BRANCH  19   3
ATOM      3  O   UNL     1      -8.910  -7.073   5.912  0.00  0.00    -0.394 OA
ATOM     36  H   UNL     1      -8.710  -8.025   5.941  0.00  0.00    +0.209 HD
ENDBRANCH  19   3
ENDBRANCH  10  19
BRANCH  11  20
ATOM     20  C   UNL     1     -13.359  -6.046  11.660  0.00  0.00    +0.102 C 
BRANCH  20  22
ATOM      4  O   UNL     1     -13.792  -4.450  13.374  0.00  0.00    -0.276 OA
ATOM      6  N   UNL     1     -12.769  -6.424  14.004  0.00  0.00    -0.301 N 
ATOM     22  C   UNL     1     -13.334  -5.557  13.086  0.00  0.00    +0.216 C 
ATOM     24  C   UNL     1     -12.664  -6.097  15.419  0.00  0.00    +0.108 C 
ATOM     25  C   UNL     1     -12.216  -7.746  13.730  0.00  0.00    +0.108 C 
ATOM     26  C   UNL     1     -12.302  -7.414  16.088  0.00  0.00    +0.020 C 
ATOM     27  C   UNL     1     -11.492  -8.129  15.013  0.00  0.00    +0.020 C 
ENDBRANCH  20  22
ENDBRANCH  11  20
TORSDOF 8
ENDMDL
MODEL 6
REMARK VINA RESULT:      -6.4      2.152      7.780
REMARK  Name = 45361691
REMARK  11 active torsions:
REMARK  status: ('A' for Active; 'I' for Inactive)
REMARK    1  A    between atoms: O_1  and  C_14
REMARK    2  A    between atoms: O_1  and  C_23
REMARK    3  A    between atoms: O_2  and  C_15
REMARK    4  A    between atoms: O_3  and  C_19
REMARK    5  A    between atoms: N_7  and  C_28
REMARK    6  A    between atoms: C_8  and  C_18
REMARK    7  A    between atoms: C_10  and  C_19
REMARK    8  A    between atoms: C_10  and  C_21
REMARK    9  A    between atoms: C_11  and  C_20
REMARK   10  A    between atoms: C_20  and  C_22
REMARK   11  A    between atoms: C_33  and  C_34
REMARK                            x       y       z     vdW  Elec       q    Type
REMARK                         _______ _______ _______ _____ _____    ______ ____
ROOT
ATOM      8  C   UNL     1      -4.789 -11.649  15.786  0.00  0.00    -0.023 C 
ATOM      9  C   UNL     1      -4.685 -12.969  14.926  0.00  0.00    +0.007 C 
ATOM     10  C   UNL     1      -3.645 -12.960  13.740  0.00  0.00    +0.031 C 
ATOM     11  C   UNL     1      -6.092 -11.781  16.679  0.00  0.00    +0.032 C 
ATOM     12  C   UNL     1      -4.952 -10.445  14.820  0.00  0.00    +0.011 C 
ATOM     13  C   UNL     1      -4.615 -14.215  15.835  0.00  0.00    +0.007 C 
ATOM     14  C   UNL     1      -3.857 -11.668  12.893  0.00  0.00    +0.186 C 
ATOM     15  C   UNL     1      -6.116 -13.061  17.547  0.00  0.00    +0.119 C 
ATOM     16  C   UNL     1      -3.896 -10.388  13.721  0.00  0.00    +0.046 C 
ATOM     17  C   UNL     1      -5.853 -14.321  16.726  0.00  0.00    +0.032 C 
ATOM     18  C   UNL     1      -3.546 -11.387  16.671  0.00  0.00    +0.012 C 
ATOM     21  C   UNL     1      -3.925 -14.177  12.810  0.00  0.00    +0.017 C 
ENDROOT
BRANCH  15   2
ATOM      2  O   UNL     1      -5.171 -12.974  18.609  0.00  0.00    -0.391 OA
ATOM     35  H   UNL     1      -5.025 -12.031  18.798  0.00  0.00    +0.210 HD
ENDBRANCH  15   2
BRANCH  14   1
ATOM      1  O   UNL     1      -2.831 -11.502  11.913  0.00  0.00    -0.446 OA
BRANCH   1  23
ATOM      5  O   UNL     1      -2.535  -9.674  10.572  0.00  0.00    -0.226 OA
ATOM      7  N   UNL     1      -4.210 -11.258  10.166  0.00  0.00    -0.251 N 
ATOM     23  C   UNL     1      -3.141 -10.704  10.843  0.00  0.00    +0.405 C 
ATOM     37  H   UNL     1      -4.582 -12.125  10.547  0.00  0.00    +0.158 HD
BRANCH   7  28
ATOM     28  C   UNL     1      -4.855 -10.769   9.007  0.00  0.00    +0.036 A 
ATOM     29  C   UNL     1      -4.573 -11.333   7.762  0.00  0.00    +0.023 A 
ATOM     30  C   UNL     1      -5.771  -9.723   9.107  0.00  0.00    +0.023 A 
ATOM     31  C   UNL     1      -5.209 -10.851   6.618  0.00  0.00    +0.005 A 
ATOM     32  C   UNL     1      -6.407  -9.240   7.963  0.00  0.00    +0.005 A 
ATOM     33  C   UNL     1      -6.125  -9.805   6.719  0.00  0.00    -0.050 A 
ATOM     34  C   UNL     1      -6.806  -9.289   5.496  0.00  0.00    +0.044 C 
ENDBRANCH   7  28
ENDBRANCH   1  23
ENDBRANCH  14   1
BRANCH  10  19
ATOM     19  C   UNL     1      -2.177 -13.105  14.188  0.00  0.00    +0.166 C 
BRANCH  19   3
ATOM      3  O   UNL     1      -1.424 -13.532  13.075  0.00  0.00    -0.394 OA
ATOM     36  H   UNL     1      -1.733 -13.026  12.304  0.00  0.00    +0.209 HD
ENDBRANCH  19   3
ENDBRANCH  10  19
BRANCH  11  20
ATOM     20  C   UNL     1      -6.404 -10.554  17.551  0.00  0.00    +0.102 C 
BRANCH  20  22
ATOM      4  O   UNL     1      -7.925  -9.353  16.167  0.00  0.00    -0.276 OA
ATOM      6  N   UNL     1      -8.776 -10.300  18.095  0.00  0.00    -0.301 N 
ATOM     22  C   UNL     1      -7.765 -10.011  17.195  0.00  0.00    +0.216 C 
ATOM     24  C   UNL     1     -10.143  -9.841  17.900  0.00  0.00    +0.108 C 
ATOM     25  C   UNL     1      -8.654 -11.075  19.325  0.00  0.00    +0.108 C 
ATOM     26  C   UNL     1     -10.958 -10.635  18.909  0.00  0.00    +0.020 C 
ATOM     27  C   UNL     1      -9.972 -10.845  20.050  0.00  0.00    +0.020 C 
ENDBRANCH  20  22
ENDBRANCH  11  20
TORSDOF 8
ENDMDL
MODEL 7
REMARK VINA RESULT:      -6.3     27.756     30.773
REMARK  Name = 45361691
REMARK  11 active torsions:
REMARK  status: ('A' for Active; 'I' for Inactive)
REMARK    1  A    between atoms: O_1  and  C_14
REMARK    2  A    between atoms: O_1  and  C_23
REMARK    3  A    between atoms: O_2  and  C_15
REMARK    4  A    between atoms: O_3  and  C_19
REMARK    5  A    between atoms: N_7  and  C_28
REMARK    6  A    between atoms: C_8  and  C_18
REMARK    7  A    between atoms: C_10  and  C_19
REMARK    8  A    between atoms: C_10  and  C_21
REMARK    9  A    between atoms: C_11  and  C_20
REMARK   10  A    between atoms: C_20  and  C_22
REMARK   11  A    between atoms: C_33  and  C_34
REMARK                            x       y       z     vdW  Elec       q    Type
REMARK                         _______ _______ _______ _____ _____    ______ ____
ROOT
ATOM      8  C   UNL     1      13.712   9.722  20.604  0.00  0.00    -0.023 C 
ATOM      9  C   UNL     1      12.421   9.532  21.492  0.00  0.00    +0.007 C 
ATOM     10  C   UNL     1      11.987  10.762  22.379  0.00  0.00    +0.031 C 
ATOM     11  C   UNL     1      14.122   8.285  20.073  0.00  0.00    +0.032 C 
ATOM     12  C   UNL     1      14.850  10.276  21.504  0.00  0.00    +0.011 C 
ATOM     13  C   UNL     1      11.278   8.893  20.674  0.00  0.00    +0.007 C 
ATOM     14  C   UNL     1      13.228  11.277  23.170  0.00  0.00    +0.186 C 
ATOM     15  C   UNL     1      12.982   7.560  19.320  0.00  0.00    +0.119 C 
ATOM     16  C   UNL     1      14.456  11.516  22.299  0.00  0.00    +0.046 C 
ATOM     17  C   UNL     1      11.686   7.525  20.126  0.00  0.00    +0.032 C 
ATOM     18  C   UNL     1      13.514  10.703  19.424  0.00  0.00    +0.012 C 
ATOM     21  C   UNL     1      10.934  10.288  23.424  0.00  0.00    +0.017 C 
ENDROOT
BRANCH  15   2
ATOM      2  O   UNL     1      12.743   8.165  18.053  0.00  0.00    -0.391 OA
ATOM     35  H   UNL     1      11.798   8.386  18.005  0.00  0.00    +0.210 HD
ENDBRANCH  15   2
BRANCH  14   1
ATOM      1  O   UNL     1      12.952  12.501  23.852  0.00  0.00    -0.446 OA
BRANCH   1  23
ATOM      5  O   UNL     1      11.930  12.364  25.893  0.00  0.00    -0.226 OA
ATOM      7  N   UNL     1      14.258  12.489  25.671  0.00  0.00    -0.251 N 
ATOM     23  C   UNL     1      12.952  12.444  25.221  0.00  0.00    +0.405 C 
ATOM     37  H   UNL     1      14.977  12.555  24.955  0.00  0.00    +0.158 HD
BRANCH   7  28
ATOM     28  C   UNL     1      14.719  12.456  27.007  0.00  0.00    +0.036 A 
ATOM     29  C   UNL     1      15.492  11.383  27.451  0.00  0.00    +0.023 A 
ATOM     30  C   UNL     1      14.402  13.495  27.881  0.00  0.00    +0.023 A 
ATOM     31  C   UNL     1      15.949  11.350  28.768  0.00  0.00    +0.005 A 
ATOM     32  C   UNL     1      14.858  13.463  29.199  0.00  0.00    +0.005 A 
ATOM     33  C   UNL     1      15.631  12.389  29.642  0.00  0.00    -0.050 A 
ATOM     34  C   UNL     1      16.120  12.355  31.050  0.00  0.00    +0.044 C 
ENDBRANCH   7  28
ENDBRANCH   1  23
ENDBRANCH  14   1
BRANCH  10  19
ATOM     19  C   UNL     1      11.310  11.900  21.590  0.00  0.00    +0.166 C 
BRANCH  19   3
ATOM      3  O   UNL     1      10.482  12.613  22.482  0.00  0.00    -0.394 OA
ATOM     36  H   UNL     1       9.596  12.212  22.439  0.00  0.00    +0.209 HD
ENDBRANCH  19   3
ENDBRANCH  10  19
BRANCH  11  20
ATOM     20  C   UNL     1      15.408   8.251  19.231  0.00  0.00    +0.102 C 
BRANCH  20  22
ATOM      4  O   UNL     1      15.963   5.935  19.255  0.00  0.00    -0.276 OA
ATOM      6  N   UNL     1      17.329   7.359  20.456  0.00  0.00    -0.301 N 
ATOM     22  C   UNL     1      16.251   7.069  19.639  0.00  0.00    +0.216 C 
ATOM     24  C   UNL     1      18.235   6.329  20.942  0.00  0.00    +0.108 C 
ATOM     25  C   UNL     1      17.726   8.676  20.941  0.00  0.00    +0.108 C 
ATOM     26  C   UNL     1      19.419   7.098  21.504  0.00  0.00    +0.020 C 
ATOM     27  C   UNL     1      18.781   8.389  22.000  0.00  0.00    +0.020 C 
ENDBRANCH  20  22
ENDBRANCH  11  20
TORSDOF 8
ENDMDL
MODEL 8
REMARK VINA RESULT:      -6.1     25.045     28.252
REMARK  Name = 45361691
REMARK  11 active torsions:
REMARK  status: ('A' for Active; 'I' for Inactive)
REMARK    1  A    between atoms: O_1  and  C_14
REMARK    2  A    between atoms: O_1  and  C_23
REMARK    3  A    between atoms: O_2  and  C_15
REMARK    4  A    between atoms: O_3  and  C_19
REMARK    5  A    between atoms: N_7  and  C_28
REMARK    6  A    between atoms: C_8  and  C_18
REMARK    7  A    between atoms: C_10  and  C_19
REMARK    8  A    between atoms: C_10  and  C_21
REMARK    9  A    between atoms: C_11  and  C_20
REMARK   10  A    between atoms: C_20  and  C_22
REMARK   11  A    between atoms: C_33  and  C_34
REMARK                            x       y       z     vdW  Elec       q    Type
REMARK                         _______ _______ _______ _____ _____    ______ ____
ROOT
ATOM      8  C   UNL     1      12.118   3.802  -2.113  0.00  0.00    -0.023 C 
ATOM      9  C   UNL     1      13.306   4.808  -1.854  0.00  0.00    +0.007 C 
ATOM     10  C   UNL     1      13.781   4.972  -0.359  0.00  0.00    +0.031 C 
ATOM     11  C   UNL     1      11.618   4.049  -3.597  0.00  0.00    +0.032 C 
ATOM     12  C   UNL     1      10.967   4.136  -1.125  0.00  0.00    +0.011 C 
ATOM     13  C   UNL     1      14.447   4.587  -2.871  0.00  0.00    +0.007 C 
ATOM     14  C   UNL     1      12.533   5.222   0.542  0.00  0.00    +0.186 C 
ATOM     15  C   UNL     1      12.742   3.928  -4.652  0.00  0.00    +0.119 C 
ATOM     16  C   UNL     1      11.410   4.212   0.332  0.00  0.00    +0.046 C 
ATOM     17  C   UNL     1      13.956   4.785  -4.306  0.00  0.00    +0.032 C 
ATOM     18  C   UNL     1      12.506   2.318  -1.909  0.00  0.00    +0.012 C 
ATOM     21  C   UNL     1      14.693   6.229  -0.251  0.00  0.00    +0.017 C 
ENDROOT
BRANCH  15   2
ATOM      2  O   UNL     1      13.142   2.571  -4.815  0.00  0.00    -0.391 OA
ATOM     35  H   UNL     1      12.751   2.058  -4.088  0.00  0.00    +0.210 HD
ENDBRANCH  15   2
BRANCH  14   1
ATOM      1  O   UNL     1      12.867   5.196   1.930  0.00  0.00    -0.446 OA
BRANCH   1  23
ATOM      5  O   UNL     1      11.974   7.235   2.454  0.00  0.00    -0.226 OA
ATOM      7  N   UNL     1      11.757   5.381   3.866  0.00  0.00    -0.251 N 
ATOM     23  C   UNL     1      12.171   6.060   2.736  0.00  0.00    +0.405 C 
ATOM     37  H   UNL     1      12.019   4.400   3.922  0.00  0.00    +0.158 HD
BRANCH   7  28
ATOM     28  C   UNL     1      11.013   5.882   4.958  0.00  0.00    +0.036 A 
ATOM     29  C   UNL     1      11.656   6.592   5.973  0.00  0.00    +0.023 A 
ATOM     30  C   UNL     1       9.637   5.667   5.023  0.00  0.00    +0.023 A 
ATOM     31  C   UNL     1      10.922   7.088   7.050  0.00  0.00    +0.005 A 
ATOM     32  C   UNL     1       8.902   6.162   6.100  0.00  0.00    +0.005 A 
ATOM     33  C   UNL     1       9.546   6.872   7.114  0.00  0.00    -0.050 A 
ATOM     34  C   UNL     1       8.760   7.402   8.265  0.00  0.00    +0.044 C 
ENDBRANCH   7  28
ENDBRANCH   1  23
ENDBRANCH  14   1
BRANCH  10  19
ATOM     19  C   UNL     1      14.627   3.795   0.166  0.00  0.00    +0.166 C 
BRANCH  19   3
ATOM      3  O   UNL     1      15.539   4.305   1.113  0.00  0.00    -0.394 OA
ATOM     36  H   UNL     1      15.798   5.195   0.817  0.00  0.00    +0.209 HD
ENDBRANCH  19   3
ENDBRANCH  10  19
BRANCH  11  20
ATOM     20  C   UNL     1      10.409   3.200  -4.021  0.00  0.00    +0.102 C 
BRANCH  20  22
ATOM      4  O   UNL     1       8.787   4.943  -4.053  0.00  0.00    -0.276 OA
ATOM      6  N   UNL     1       9.173   3.825  -6.038  0.00  0.00    -0.301 N 
ATOM     22  C   UNL     1       9.383   4.076  -4.694  0.00  0.00    +0.216 C 
ATOM     24  C   UNL     1       8.211   4.578  -6.828  0.00  0.00    +0.108 C 
ATOM     25  C   UNL     1       9.846   2.819  -6.853  0.00  0.00    +0.108 C 
ATOM     26  C   UNL     1       8.533   4.215  -8.269  0.00  0.00    +0.020 C 
ATOM     27  C   UNL     1       9.051   2.787  -8.150  0.00  0.00    +0.020 C 
ENDBRANCH  20  22
ENDBRANCH  11  20
TORSDOF 8
ENDMDL
MODEL 9
REMARK VINA RESULT:      -6.1      4.114      8.992
REMARK  Name = 45361691
REMARK  11 active torsions:
REMARK  status: ('A' for Active; 'I' for Inactive)
REMARK    1  A    between atoms: O_1  and  C_14
REMARK    2  A    between atoms: O_1  and  C_23
REMARK    3  A    between atoms: O_2  and  C_15
REMARK    4  A    between atoms: O_3  and  C_19
REMARK    5  A    between atoms: N_7  and  C_28
REMARK    6  A    between atoms: C_8  and  C_18
REMARK    7  A    between atoms: C_10  and  C_19
REMARK    8  A    between atoms: C_10  and  C_21
REMARK    9  A    between atoms: C_11  and  C_20
REMARK   10  A    between atoms: C_20  and  C_22
REMARK   11  A    between atoms: C_33  and  C_34
REMARK                            x       y       z     vdW  Elec       q    Type
REMARK                         _______ _______ _______ _____ _____    ______ ____
ROOT
ATOM      8  C   UNL     1     -12.590  -8.881  16.421  0.00  0.00    -0.023 C 
ATOM      9  C   UNL     1     -12.142 -10.315  15.936  0.00  0.00    +0.007 C 
ATOM     10  C   UNL     1     -11.438 -11.235  17.006  0.00  0.00    +0.031 C 
ATOM     11  C   UNL     1     -12.962  -8.050  15.123  0.00  0.00    +0.032 C 
ATOM     12  C   UNL     1     -11.386  -8.205  17.131  0.00  0.00    +0.011 C 
ATOM     13  C   UNL     1     -13.270 -11.003  15.137  0.00  0.00    +0.007 C 
ATOM     14  C   UNL     1     -10.305 -10.422  17.703  0.00  0.00    +0.186 C 
ATOM     15  C   UNL     1     -14.026  -8.738  14.236  0.00  0.00    +0.119 C 
ATOM     16  C   UNL     1     -10.756  -9.061  18.224  0.00  0.00    +0.046 C 
ATOM     17  C   UNL     1     -13.659 -10.182  13.907  0.00  0.00    +0.032 C 
ATOM     18  C   UNL     1     -13.778  -8.904  17.412  0.00  0.00    +0.012 C 
ATOM     21  C   UNL     1     -10.767 -12.437  16.279  0.00  0.00    +0.017 C 
ENDROOT
BRANCH  15   2
ATOM      2  O   UNL     1     -15.308  -8.698  14.856  0.00  0.00    -0.391 OA
ATOM     35  H   UNL     1     -15.709  -7.836  14.651  0.00  0.00    +0.210 HD
ENDBRANCH  15   2
BRANCH  14   1
ATOM      1  O   UNL     1      -9.748 -11.131  18.810  0.00  0.00    -0.446 OA
BRANCH   1  23
ATOM      5  O   UNL     1      -7.819 -11.026  20.035  0.00  0.00    -0.226 OA
ATOM      7  N   UNL     1      -7.808 -11.037  17.694  0.00  0.00    -0.251 N 
ATOM     23  C   UNL     1      -8.386 -11.060  18.950  0.00  0.00    +0.405 C 
ATOM     37  H   UNL     1      -8.449 -11.073  16.905  0.00  0.00    +0.158 HD
BRANCH   7  28
ATOM     28  C   UNL     1      -6.435 -10.968  17.370  0.00  0.00    +0.036 A 
ATOM     29  C   UNL     1      -5.520 -11.788  18.031  0.00  0.00    +0.023 A 
ATOM     30  C   UNL     1      -5.992 -10.081  16.389  0.00  0.00    +0.023 A 
ATOM     31  C   UNL     1      -4.164 -11.721  17.711  0.00  0.00    +0.005 A 
ATOM     32  C   UNL     1      -4.637 -10.013  16.068  0.00  0.00    +0.005 A 
ATOM     33  C   UNL     1      -3.723 -10.833  16.730  0.00  0.00    -0.050 A 
ATOM     34  C   UNL     1      -2.274 -10.762  16.386  0.00  0.00    +0.044 C 
ENDBRANCH   7  28
ENDBRANCH   1  23
ENDBRANCH  14   1
BRANCH  10  19
ATOM     19  C   UNL     1     -12.403 -11.855  18.037  0.00  0.00    +0.166 C 
BRANCH  19   3
ATOM      3  O   UNL     1     -11.860 -13.089  18.451  0.00  0.00    -0.394 OA
ATOM     36  H   UNL     1     -11.562 -12.980  19.372  0.00  0.00    +0.209 HD
ENDBRANCH  19   3
ENDBRANCH  10  19
BRANCH  11  20
ATOM     20  C   UNL     1     -13.366  -6.590  15.384  0.00  0.00    +0.102 C 
BRANCH  20  22
ATOM      4  O   UNL     1     -11.272  -5.668  14.722  0.00  0.00    -0.276 OA
ATOM      6  N   UNL     1     -13.163  -4.849  13.678  0.00  0.00    -0.301 N 
ATOM     22  C   UNL     1     -12.494  -5.667  14.570  0.00  0.00    +0.216 C 
ATOM     24  C   UNL     1     -12.467  -3.897  12.825  0.00  0.00    +0.108 C 
ATOM     25  C   UNL     1     -14.603  -4.803  13.447  0.00  0.00    +0.108 C 
ATOM     26  C   UNL     1     -13.510  -3.465  11.806  0.00  0.00    +0.020 C 
ATOM     27  C   UNL     1     -14.811  -3.560  12.593  0.00  0.00    +0.020 C 
ENDBRANCH  20  22
ENDBRANCH  11  20
TORSDOF 8
ENDMDL
MODEL 10
REMARK VINA RESULT:      -5.9     29.083     32.525
REMARK  Name = 45361691
REMARK  11 active torsions:
REMARK  status: ('A' for Active; 'I' for Inactive)
REMARK    1  A    between atoms: O_1  and  C_14
REMARK    2  A    between atoms: O_1  and  C_23
REMARK    3  A    between atoms: O_2  and  C_15
REMARK    4  A    between atoms: O_3  and  C_19
REMARK    5  A    between atoms: N_7  and  C_28
REMARK    6  A    between atoms: C_8  and  C_18
REMARK    7  A    between atoms: C_10  and  C_19
REMARK    8  A    between atoms: C_10  and  C_21
REMARK    9  A    between atoms: C_11  and  C_20
REMARK   10  A    between atoms: C_20  and  C_22
REMARK   11  A    between atoms: C_33  and  C_34
REMARK                            x       y       z     vdW  Elec       q    Type
REMARK                         _______ _______ _______ _____ _____    ______ ____
ROOT
ATOM      8  C   UNL     1      23.988   2.118  23.481  0.00  0.00    -0.023 C 
ATOM      9  C   UNL     1      24.489   2.108  21.984  0.00  0.00    +0.007 C 
ATOM     10  C   UNL     1      24.222   3.414  21.141  0.00  0.00    +0.031 C 
ATOM     11  C   UNL     1      24.072   0.624  24.006  0.00  0.00    +0.032 C 
ATOM     12  C   UNL     1      22.506   2.582  23.499  0.00  0.00    +0.011 C 
ATOM     13  C   UNL     1      25.931   1.563  21.890  0.00  0.00    +0.007 C 
ATOM     14  C   UNL     1      22.727   3.823  21.304  0.00  0.00    +0.186 C 
ATOM     15  C   UNL     1      25.477  -0.004  23.852  0.00  0.00    +0.119 C 
ATOM     16  C   UNL     1      22.262   3.890  22.755  0.00  0.00    +0.046 C 
ATOM     17  C   UNL     1      26.022   0.137  22.433  0.00  0.00    +0.032 C 
ATOM     18  C   UNL     1      24.797   3.064  24.400  0.00  0.00    +0.012 C 
ATOM     21  C   UNL     1      24.458   3.102  19.634  0.00  0.00    +0.017 C 
ENDROOT
BRANCH  15   2
ATOM      2  O   UNL     1      26.394   0.570  24.778  0.00  0.00    -0.391 OA
ATOM     35  H   UNL     1      27.243   0.690  24.318  0.00  0.00    +0.210 HD
ENDBRANCH  15   2
BRANCH  14   1
ATOM      1  O   UNL     1      22.459   5.097  20.718  0.00  0.00    -0.446 OA
BRANCH   1  23
ATOM      5  O   UNL     1      21.163   6.384  22.095  0.00  0.00    -0.226 OA
ATOM      7  N   UNL     1      20.312   5.393  20.152  0.00  0.00    -0.251 N 
ATOM     23  C   UNL     1      21.283   5.697  21.088  0.00  0.00    +0.405 C 
ATOM     37  H   UNL     1      20.605   4.803  19.377  0.00  0.00    +0.158 HD
BRANCH   7  28
ATOM     28  C   UNL     1      18.959   5.801  20.139  0.00  0.00    +0.036 A 
ATOM     29  C   UNL     1      18.145   5.481  19.051  0.00  0.00    +0.023 A 
ATOM     30  C   UNL     1      18.437   6.524  21.211  0.00  0.00    +0.023 A 
ATOM     31  C   UNL     1      16.810   5.883  19.038  0.00  0.00    +0.005 A 
ATOM     32  C   UNL     1      17.101   6.926  21.197  0.00  0.00    +0.005 A 
ATOM     33  C   UNL     1      16.289   6.606  20.110  0.00  0.00    -0.050 A 
ATOM     34  C   UNL     1      14.860   7.035  20.097  0.00  0.00    +0.044 C 
ENDBRANCH   7  28
ENDBRANCH   1  23
ENDBRANCH  14   1
BRANCH  10  19
ATOM     19  C   UNL     1      25.166   4.585  21.478  0.00  0.00    +0.166 C 
BRANCH  19   3
ATOM      3  O   UNL     1      25.299   5.382  20.322  0.00  0.00    -0.394 OA
ATOM     36  H   UNL     1      26.124   5.890  20.413  0.00  0.00    +0.209 HD
ENDBRANCH  19   3
ENDBRANCH  10  19
BRANCH  11  20
ATOM     20  C   UNL     1      23.560   0.414  25.440  0.00  0.00    +0.102 C 
BRANCH  20  22
ATOM      4  O   UNL     1      23.970  -1.910  25.766  0.00  0.00    -0.276 OA
ATOM      6  N   UNL     1      21.764  -1.240  25.606  0.00  0.00    -0.301 N 
ATOM     22  C   UNL     1      23.130  -1.020  25.622  0.00  0.00    +0.216 C 
ATOM     24  C   UNL     1      21.189  -2.567  25.761  0.00  0.00    +0.108 C 
ATOM     25  C   UNL     1      20.721  -0.233  25.444  0.00  0.00    +0.108 C 
ATOM     26  C   UNL     1      19.711  -2.315  26.009  0.00  0.00    +0.020 C 
ATOM     27  C   UNL     1      19.448  -1.037  25.223  0.00  0.00    +0.020 C 
ENDBRANCH  20  22
ENDBRANCH  11  20
TORSDOF 8
ENDMDL
