MODEL 1
REMARK VINA RESULT:      -7.2      0.000      0.000
REMARK  Name = 51136971
REMARK  10 active torsions:
REMARK  status: ('A' for Active; 'I' for Inactive)
REMARK    1  A    between atoms: O_3  and  C_12
REMARK    2  A    between atoms: O_4  and  C_19
REMARK    3  A    between atoms: O_6  and  C_30
REMARK    4  A    between atoms: O_6  and  C_33
REMARK    5  A    between atoms: N_7  and  C_10
REMARK    6  A    between atoms: N_8  and  C_20
REMARK    7  A    between atoms: N_9  and  C_16
REMARK    8  A    between atoms: C_11  and  C_16
REMARK    9  A    between atoms: C_13  and  C_19
REMARK   10  A    between atoms: C_21  and  C_24
REMARK                            x       y       z     vdW  Elec       q    Type
REMARK                         _______ _______ _______ _____ _____    ______ ____
ROOT
ATOM      2  O   UNL     1      18.116   8.802  20.859  0.00  0.00    -0.365 OA
ATOM     10  C   UNL     1      20.011   7.395  21.173  0.00  0.00    +0.118 C 
ATOM     11  C   UNL     1      18.557   7.438  20.684  0.00  0.00    +0.155 C 
ATOM     12  C   UNL     1      20.070   8.543  22.171  0.00  0.00    +0.165 C 
ATOM     13  C   UNL     1      19.172   9.562  21.480  0.00  0.00    +0.174 C 
ENDROOT
BRANCH  10   7
ATOM      7  N   UNL     1      20.484   6.117  21.672  0.00  0.00    -0.292 NA
ATOM      8  N   UNL     1      22.325   3.953  21.967  0.00  0.00    -0.327 N 
ATOM     14  C   UNL     1      21.716   6.290  22.449  0.00  0.00    +0.104 C 
ATOM     15  C   UNL     1      20.721   5.187  20.560  0.00  0.00    +0.104 C 
ATOM     17  C   UNL     1      22.196   4.957  23.028  0.00  0.00    +0.120 C 
ATOM     18  C   UNL     1      21.166   3.816  21.076  0.00  0.00    +0.120 C 
BRANCH   8  20
ATOM     20  C   UNL     1      23.134   2.828  22.170  0.00  0.00    +0.030 A 
ATOM     22  C   UNL     1      23.366   2.360  23.462  0.00  0.00    +0.023 A 
ATOM     23  C   UNL     1      23.707   2.177  21.079  0.00  0.00    +0.023 A 
ATOM     25  C   UNL     1      24.172   1.239  23.665  0.00  0.00    +0.002 A 
ATOM     26  C   UNL     1      24.513   1.056  21.280  0.00  0.00    +0.002 A 
ATOM     27  C   UNL     1      24.746   0.587  22.573  0.00  0.00    +0.000 A 
ENDBRANCH   8  20
ENDBRANCH  10   7
BRANCH  12   3
ATOM      3  O   UNL     1      19.521   8.168  23.428  0.00  0.00    -0.388 OA
ATOM     34  H   UNL     1      20.255   7.885  23.997  0.00  0.00    +0.210 HD
ENDBRANCH  12   3
BRANCH  11  16
ATOM     16  C   UNL     1      17.563   6.544  21.416  0.00  0.00    +0.137 C 
BRANCH  16   9
ATOM      5  O   UNL     1      15.694   6.126  19.277  0.00  0.00    -0.270 OA
ATOM      9  N   UNL     1      16.235   7.070  21.327  0.00  0.00    -0.309 N 
ATOM     21  C   UNL     1      15.392   6.816  20.247  0.00  0.00    +0.246 C 
ATOM     35  H   UNL     1      15.899   7.647  22.093  0.00  0.00    +0.149 HD
BRANCH  21  24
ATOM      1 CL   UNL     1      15.125   9.690  19.148  0.00  0.00    -0.083 Cl
ATOM     24  C   UNL     1      14.053   7.457  20.293  0.00  0.00    +0.058 A 
ATOM     28  C   UNL     1      12.992   6.728  20.829  0.00  0.00    +0.060 A 
ATOM     29  C   UNL     1      13.840   8.752  19.820  0.00  0.00    +0.053 A 
ATOM     30  C   UNL     1      11.718   7.292  20.893  0.00  0.00    +0.121 A 
ATOM     31  C   UNL     1      12.566   9.317  19.883  0.00  0.00    +0.024 A 
ATOM     32  C   UNL     1      11.505   8.587  20.420  0.00  0.00    +0.047 A 
BRANCH  30   6
ATOM      6  O   UNL     1      10.683   6.580  21.415  0.00  0.00    -0.495 OA
ATOM     33  C   UNL     1      10.911   5.196  21.670  0.00  0.00    +0.277 C 
ENDBRANCH  30   6
ENDBRANCH  21  24
ENDBRANCH  16   9
ENDBRANCH  11  16
BRANCH  13  19
ATOM     19  C   UNL     1      18.562  10.616  22.387  0.00  0.00    +0.190 C 
BRANCH  19   4
ATOM      4  O   UNL     1      17.204  10.288  22.625  0.00  0.00    -0.392 OA
ATOM     36  H   UNL     1      16.752  11.108  22.888  0.00  0.00    +0.210 HD
ENDBRANCH  19   4
ENDBRANCH  13  19
TORSDOF 9
ENDMDL
MODEL 2
REMARK VINA RESULT:      -7.2     30.693     34.774
REMARK  Name = 51136971
REMARK  10 active torsions:
REMARK  status: ('A' for Active; 'I' for Inactive)
REMARK    1  A    between atoms: O_3  and  C_12
REMARK    2  A    between atoms: O_4  and  C_19
REMARK    3  A    between atoms: O_6  and  C_30
REMARK    4  A    between atoms: O_6  and  C_33
REMARK    5  A    between atoms: N_7  and  C_10
REMARK    6  A    between atoms: N_8  and  C_20
REMARK    7  A    between atoms: N_9  and  C_16
REMARK    8  A    between atoms: C_11  and  C_16
REMARK    9  A    between atoms: C_13  and  C_19
REMARK   10  A    between atoms: C_21  and  C_24
REMARK                            x       y       z     vdW  Elec       q    Type
REMARK                         _______ _______ _______ _____ _____    ______ ____
ROOT
ATOM      2  O   UNL     1     -17.548   3.445  23.725  0.00  0.00    -0.365 OA
ATOM     10  C   UNL     1     -17.456   2.985  26.058  0.00  0.00    +0.118 C 
ATOM     11  C   UNL     1     -16.867   3.846  24.933  0.00  0.00    +0.155 C 
ATOM     12  C   UNL     1     -17.935   1.743  25.323  0.00  0.00    +0.165 C 
ATOM     13  C   UNL     1     -18.450   2.363  24.029  0.00  0.00    +0.174 C 
ENDROOT
BRANCH  10   7
ATOM      7  N   UNL     1     -16.590   2.736  27.197  0.00  0.00    -0.292 NA
ATOM      8  N   UNL     1     -15.904   2.574  29.965  0.00  0.00    -0.327 N 
ATOM     14  C   UNL     1     -17.140   1.666  28.038  0.00  0.00    +0.104 C 
ATOM     15  C   UNL     1     -16.419   3.958  27.991  0.00  0.00    +0.104 C 
ATOM     17  C   UNL     1     -16.209   1.354  29.212  0.00  0.00    +0.120 C 
ATOM     18  C   UNL     1     -15.463   3.723  29.163  0.00  0.00    +0.120 C 
BRANCH   8  20
ATOM     20  C   UNL     1     -15.447   2.480  31.284  0.00  0.00    +0.030 A 
ATOM     22  C   UNL     1     -15.058   1.245  31.802  0.00  0.00    +0.023 A 
ATOM     23  C   UNL     1     -15.380   3.622  32.082  0.00  0.00    +0.023 A 
ATOM     25  C   UNL     1     -14.603   1.152  33.117  0.00  0.00    +0.002 A 
ATOM     26  C   UNL     1     -14.924   3.529  33.397  0.00  0.00    +0.002 A 
ATOM     27  C   UNL     1     -14.536   2.294  33.915  0.00  0.00    +0.000 A 
ENDBRANCH   8  20
ENDBRANCH  10   7
BRANCH  12   3
ATOM      3  O   UNL     1     -16.862   0.851  25.053  0.00  0.00    -0.388 OA
ATOM     34  H   UNL     1     -16.965   0.081  25.638  0.00  0.00    +0.210 HD
ENDBRANCH  12   3
BRANCH  11  16
ATOM     16  C   UNL     1     -15.371   3.706  24.677  0.00  0.00    +0.137 C 
BRANCH  16   9
ATOM      5  O   UNL     1     -15.177   4.332  21.882  0.00  0.00    -0.270 OA
ATOM      9  N   UNL     1     -14.832   4.902  24.104  0.00  0.00    -0.309 N 
ATOM     21  C   UNL     1     -14.776   5.124  22.730  0.00  0.00    +0.246 C 
ATOM     35  H   UNL     1     -14.483   5.617  24.736  0.00  0.00    +0.149 HD
BRANCH  21  24
ATOM      1 CL   UNL     1     -16.126   7.754  23.625  0.00  0.00    -0.083 Cl
ATOM     24  C   UNL     1     -14.163   6.405  22.295  0.00  0.00    +0.058 A 
ATOM     28  C   UNL     1     -13.013   6.350  21.507  0.00  0.00    +0.060 A 
ATOM     29  C   UNL     1     -14.705   7.640  22.652  0.00  0.00    +0.053 A 
ATOM     30  C   UNL     1     -12.405   7.529  21.076  0.00  0.00    +0.121 A 
ATOM     31  C   UNL     1     -14.096   8.819  22.221  0.00  0.00    +0.024 A 
ATOM     32  C   UNL     1     -12.946   8.764  21.433  0.00  0.00    +0.047 A 
BRANCH  30   6
ATOM      6  O   UNL     1     -11.282   7.475  20.308  0.00  0.00    -0.495 OA
ATOM     33  C   UNL     1     -11.464   7.275  18.908  0.00  0.00    +0.277 C 
ENDBRANCH  30   6
ENDBRANCH  21  24
ENDBRANCH  16   9
ENDBRANCH  11  16
BRANCH  13  19
ATOM     19  C   UNL     1     -18.523   1.424  22.838  0.00  0.00    +0.190 C 
BRANCH  19   4
ATOM      4  O   UNL     1     -17.267   1.415  22.182  0.00  0.00    -0.392 OA
ATOM     36  H   UNL     1     -16.661   1.959  22.714  0.00  0.00    +0.210 HD
ENDBRANCH  19   4
ENDBRANCH  13  19
TORSDOF 9
ENDMDL
MODEL 3
REMARK VINA RESULT:      -6.7      7.608     10.036
REMARK  Name = 51136971
REMARK  10 active torsions:
REMARK  status: ('A' for Active; 'I' for Inactive)
REMARK    1  A    between atoms: O_3  and  C_12
REMARK    2  A    between atoms: O_4  and  C_19
REMARK    3  A    between atoms: O_6  and  C_30
REMARK    4  A    between atoms: O_6  and  C_33
REMARK    5  A    between atoms: N_7  and  C_10
REMARK    6  A    between atoms: N_8  and  C_20
REMARK    7  A    between atoms: N_9  and  C_16
REMARK    8  A    between atoms: C_11  and  C_16
REMARK    9  A    between atoms: C_13  and  C_19
REMARK   10  A    between atoms: C_21  and  C_24
REMARK                            x       y       z     vdW  Elec       q    Type
REMARK                         _______ _______ _______ _____ _____    ______ ____
ROOT
ATOM      2  O   UNL     1      12.637   8.182  21.821  0.00  0.00    -0.365 OA
ATOM     10  C   UNL     1      13.526   8.513  19.638  0.00  0.00    +0.118 C 
ATOM     11  C   UNL     1      13.197   9.204  20.968  0.00  0.00    +0.155 C 
ATOM     12  C   UNL     1      12.551   7.345  19.609  0.00  0.00    +0.165 C 
ATOM     13  C   UNL     1      12.542   6.949  21.081  0.00  0.00    +0.174 C 
ENDROOT
BRANCH  10   7
ATOM      7  N   UNL     1      13.518   9.356  18.457  0.00  0.00    -0.292 NA
ATOM      8  N   UNL     1      14.626  10.618  16.146  0.00  0.00    -0.327 N 
ATOM     14  C   UNL     1      13.832   8.569  17.259  0.00  0.00    +0.104 C 
ATOM     15  C   UNL     1      14.483  10.453  18.601  0.00  0.00    +0.104 C 
ATOM     17  C   UNL     1      13.772   9.435  15.998  0.00  0.00    +0.120 C 
ATOM     18  C   UNL     1      14.444  11.383  17.386  0.00  0.00    +0.120 C 
BRANCH   8  20
ATOM     20  C   UNL     1      15.063  11.305  15.007  0.00  0.00    +0.030 A 
ATOM     22  C   UNL     1      16.424  11.379  14.716  0.00  0.00    +0.023 A 
ATOM     23  C   UNL     1      14.135  11.917  14.164  0.00  0.00    +0.023 A 
ATOM     25  C   UNL     1      16.859  12.065  13.581  0.00  0.00    +0.002 A 
ATOM     26  C   UNL     1      14.569  12.602  13.030  0.00  0.00    +0.002 A 
ATOM     27  C   UNL     1      15.931  12.676  12.738  0.00  0.00    +0.000 A 
ENDBRANCH   8  20
ENDBRANCH  10   7
BRANCH  12   3
ATOM      3  O   UNL     1      11.254   7.760  19.198  0.00  0.00    -0.388 OA
ATOM     34  H   UNL     1      10.722   7.899  20.000  0.00  0.00    +0.210 HD
ENDBRANCH  12   3
BRANCH  11  16
ATOM     16  C   UNL     1      12.192  10.348  20.914  0.00  0.00    +0.137 C 
BRANCH  16   9
ATOM      5  O   UNL     1      10.630  10.471  23.319  0.00  0.00    -0.270 OA
ATOM      9  N   UNL     1      12.379  11.251  22.009  0.00  0.00    -0.309 N 
ATOM     21  C   UNL     1      11.570  11.241  23.143  0.00  0.00    +0.246 C 
ATOM     35  H   UNL     1      13.142  11.919  21.950  0.00  0.00    +0.149 HD
BRANCH  21  24
ATOM      1 CL   UNL     1      10.057  13.932  23.024  0.00  0.00    -0.083 Cl
ATOM     24  C   UNL     1      11.878  12.260  24.179  0.00  0.00    +0.058 A 
ATOM     28  C   UNL     1      12.833  11.946  25.147  0.00  0.00    +0.060 A 
ATOM     29  C   UNL     1      11.244  13.503  24.202  0.00  0.00    +0.053 A 
ATOM     30  C   UNL     1      13.153  12.874  26.138  0.00  0.00    +0.121 A 
ATOM     31  C   UNL     1      11.565  14.431  25.193  0.00  0.00    +0.024 A 
ATOM     32  C   UNL     1      12.520  14.116  26.161  0.00  0.00    +0.047 A 
BRANCH  30   6
ATOM      6  O   UNL     1      14.084  12.568  27.082  0.00  0.00    -0.495 OA
ATOM     33  C   UNL     1      15.184  11.759  26.671  0.00  0.00    +0.277 C 
ENDBRANCH  30   6
ENDBRANCH  21  24
ENDBRANCH  16   9
ENDBRANCH  11  16
BRANCH  13  19
ATOM     19  C   UNL     1      11.317   6.181  21.543  0.00  0.00    +0.190 C 
BRANCH  19   4
ATOM      4  O   UNL     1      11.105   5.085  20.669  0.00  0.00    -0.392 OA
ATOM     36  H   UNL     1      11.205   4.274  21.196  0.00  0.00    +0.210 HD
ENDBRANCH  19   4
ENDBRANCH  13  19
TORSDOF 9
ENDMDL
MODEL 4
REMARK VINA RESULT:      -6.6     28.832     31.353
REMARK  Name = 51136971
REMARK  10 active torsions:
REMARK  status: ('A' for Active; 'I' for Inactive)
REMARK    1  A    between atoms: O_3  and  C_12
REMARK    2  A    between atoms: O_4  and  C_19
REMARK    3  A    between atoms: O_6  and  C_30
REMARK    4  A    between atoms: O_6  and  C_33
REMARK    5  A    between atoms: N_7  and  C_10
REMARK    6  A    between atoms: N_8  and  C_20
REMARK    7  A    between atoms: N_9  and  C_16
REMARK    8  A    between atoms: C_11  and  C_16
REMARK    9  A    between atoms: C_13  and  C_19
REMARK   10  A    between atoms: C_21  and  C_24
REMARK                            x       y       z     vdW  Elec       q    Type
REMARK                         _______ _______ _______ _____ _____    ______ ____
ROOT
ATOM      2  O   UNL     1      -4.007 -12.529  17.226  0.00  0.00    -0.365 OA
ATOM     10  C   UNL     1      -6.171 -11.572  16.964  0.00  0.00    +0.118 C 
ATOM     11  C   UNL     1      -4.825 -11.818  16.271  0.00  0.00    +0.155 C 
ATOM     12  C   UNL     1      -5.801 -11.575  18.440  0.00  0.00    +0.165 C 
ATOM     13  C   UNL     1      -4.737 -12.666  18.461  0.00  0.00    +0.174 C 
ENDROOT
BRANCH  10   7
ATOM      7  N   UNL     1      -6.922 -10.413  16.517  0.00  0.00    -0.292 NA
ATOM      8  N   UNL     1      -9.268  -8.917  15.871  0.00  0.00    -0.327 N 
ATOM     14  C   UNL     1      -7.815  -9.936  17.579  0.00  0.00    +0.104 C 
ATOM     15  C   UNL     1      -7.703 -10.738  15.316  0.00  0.00    +0.104 C 
ATOM     17  C   UNL     1      -8.573  -8.680  17.140  0.00  0.00    +0.120 C 
ATOM     18  C   UNL     1      -8.455  -9.509  14.801  0.00  0.00    +0.120 C 
BRANCH   8  20
ATOM     20  C   UNL     1     -10.340  -8.096  15.503  0.00  0.00    +0.030 A 
ATOM     22  C   UNL     1     -10.632  -6.954  16.248  0.00  0.00    +0.023 A 
ATOM     23  C   UNL     1     -11.117  -8.421  14.391  0.00  0.00    +0.023 A 
ATOM     25  C   UNL     1     -11.702  -6.136  15.881  0.00  0.00    +0.002 A 
ATOM     26  C   UNL     1     -12.186  -7.603  14.024  0.00  0.00    +0.002 A 
ATOM     27  C   UNL     1     -12.479  -6.461  14.769  0.00  0.00    +0.000 A 
ENDBRANCH   8  20
ENDBRANCH  10   7
BRANCH  12   3
ATOM      3  O   UNL     1      -5.244 -10.330  18.840  0.00  0.00    -0.388 OA
ATOM     34  H   UNL     1      -5.256  -9.740  18.067  0.00  0.00    +0.210 HD
ENDBRANCH  12   3
BRANCH  11  16
ATOM     16  C   UNL     1      -4.043 -10.583  15.838  0.00  0.00    +0.137 C 
BRANCH  16   9
ATOM      5  O   UNL     1      -2.618 -11.559  13.545  0.00  0.00    -0.270 OA
ATOM      9  N   UNL     1      -4.306 -10.261  14.468  0.00  0.00    -0.309 N 
ATOM     21  C   UNL     1      -3.561 -10.783  13.412  0.00  0.00    +0.246 C 
ATOM     35  H   UNL     1      -5.076  -9.629  14.267  0.00  0.00    +0.149 HD
BRANCH  21  24
ATOM      1 CL   UNL     1      -1.341  -9.655  11.584  0.00  0.00    -0.083 Cl
ATOM     24  C   UNL     1      -3.943 -10.329  12.051  0.00  0.00    +0.058 A 
ATOM     28  C   UNL     1      -5.282 -10.437  11.674  0.00  0.00    +0.060 A 
ATOM     29  C   UNL     1      -3.007  -9.806  11.158  0.00  0.00    +0.053 A 
ATOM     30  C   UNL     1      -5.684 -10.022  10.404  0.00  0.00    +0.121 A 
ATOM     31  C   UNL     1      -3.410  -9.391   9.889  0.00  0.00    +0.024 A 
ATOM     32  C   UNL     1      -4.749  -9.499   9.512  0.00  0.00    +0.047 A 
BRANCH  30   6
ATOM      6  O   UNL     1      -6.991 -10.127  10.036  0.00  0.00    -0.495 OA
ATOM     33  C   UNL     1      -7.925  -9.291  10.714  0.00  0.00    +0.277 C 
ENDBRANCH  30   6
ENDBRANCH  21  24
ENDBRANCH  16   9
ENDBRANCH  11  16
BRANCH  13  19
ATOM     19  C   UNL     1      -3.765 -12.608  19.626  0.00  0.00    +0.190 C 
BRANCH  19   4
ATOM      4  O   UNL     1      -2.593 -11.926  19.212  0.00  0.00    -0.392 OA
ATOM     36  H   UNL     1      -2.234 -11.471  19.993  0.00  0.00    +0.210 HD
ENDBRANCH  19   4
ENDBRANCH  13  19
TORSDOF 9
ENDMDL
MODEL 5
REMARK VINA RESULT:      -6.6     27.863     31.634
REMARK  Name = 51136971
REMARK  10 active torsions:
REMARK  status: ('A' for Active; 'I' for Inactive)
REMARK    1  A    between atoms: O_3  and  C_12
REMARK    2  A    between atoms: O_4  and  C_19
REMARK    3  A    between atoms: O_6  and  C_30
REMARK    4  A    between atoms: O_6  and  C_33
REMARK    5  A    between atoms: N_7  and  C_10
REMARK    6  A    between atoms: N_8  and  C_20
REMARK    7  A    between atoms: N_9  and  C_16
REMARK    8  A    between atoms: C_11  and  C_16
REMARK    9  A    between atoms: C_13  and  C_19
REMARK   10  A    between atoms: C_21  and  C_24
REMARK                            x       y       z     vdW  Elec       q    Type
REMARK                         _______ _______ _______ _____ _____    ______ ____
ROOT
ATOM      2  O   UNL     1      -3.796 -12.342  16.003  0.00  0.00    -0.365 OA
ATOM     10  C   UNL     1      -5.656 -11.555  17.263  0.00  0.00    +0.118 C 
ATOM     11  C   UNL     1      -5.199 -12.596  16.233  0.00  0.00    +0.155 C 
ATOM     12  C   UNL     1      -4.677 -10.410  17.048  0.00  0.00    +0.165 C 
ATOM     13  C   UNL     1      -3.396 -11.184  16.763  0.00  0.00    +0.174 C 
ENDROOT
BRANCH  10   7
ATOM      7  N   UNL     1      -7.059 -11.185  17.223  0.00  0.00    -0.292 NA
ATOM      8  N   UNL     1      -9.613 -10.524  18.318  0.00  0.00    -0.327 N 
ATOM     14  C   UNL     1      -7.271  -9.894  17.887  0.00  0.00    +0.104 C 
ATOM     15  C   UNL     1      -7.881 -12.219  17.866  0.00  0.00    +0.104 C 
ATOM     17  C   UNL     1      -8.739  -9.466  17.804  0.00  0.00    +0.120 C 
ATOM     18  C   UNL     1      -9.369 -11.868  17.780  0.00  0.00    +0.120 C 
BRANCH   8  20
ATOM     20  C   UNL     1     -10.911 -10.209  18.737  0.00  0.00    +0.030 A 
ATOM     22  C   UNL     1     -11.881  -9.856  17.799  0.00  0.00    +0.023 A 
ATOM     23  C   UNL     1     -11.235 -10.250  20.093  0.00  0.00    +0.023 A 
ATOM     25  C   UNL     1     -13.174  -9.542  18.216  0.00  0.00    +0.002 A 
ATOM     26  C   UNL     1     -12.529  -9.937  20.510  0.00  0.00    +0.002 A 
ATOM     27  C   UNL     1     -13.498  -9.583  19.572  0.00  0.00    +0.000 A 
ENDBRANCH   8  20
ENDBRANCH  10   7
BRANCH  12   3
ATOM      3  O   UNL     1      -5.040  -9.618  15.924  0.00  0.00    -0.388 OA
ATOM     34  H   UNL     1      -5.891  -9.194  16.125  0.00  0.00    +0.210 HD
ENDBRANCH  12   3
BRANCH  11  16
ATOM     16  C   UNL     1      -5.892 -12.567  14.876  0.00  0.00    +0.137 C 
BRANCH  16   9
ATOM      5  O   UNL     1      -5.286 -13.062  12.114  0.00  0.00    -0.270 OA
ATOM      9  N   UNL     1      -5.224 -11.677  13.975  0.00  0.00    -0.309 N 
ATOM     21  C   UNL     1      -4.969 -12.000  12.644  0.00  0.00    +0.246 C 
ATOM     35  H   UNL     1      -4.933 -10.771  14.330  0.00  0.00    +0.149 HD
BRANCH  21  24
ATOM      1 CL   UNL     1      -1.882 -12.017  12.738  0.00  0.00    -0.083 Cl
ATOM     24  C   UNL     1      -4.242 -10.978  11.848  0.00  0.00    +0.058 A 
ATOM     28  C   UNL     1      -4.993 -10.069  11.103  0.00  0.00    +0.060 A 
ATOM     29  C   UNL     1      -2.849 -10.911  11.831  0.00  0.00    +0.053 A 
ATOM     30  C   UNL     1      -4.351  -9.092  10.341  0.00  0.00    +0.121 A 
ATOM     31  C   UNL     1      -2.207  -9.935  11.070  0.00  0.00    +0.024 A 
ATOM     32  C   UNL     1      -2.958  -9.025  10.324  0.00  0.00    +0.047 A 
BRANCH  30   6
ATOM      6  O   UNL     1      -5.084  -8.205   9.614  0.00  0.00    -0.495 OA
ATOM     33  C   UNL     1      -6.463  -8.510   9.417  0.00  0.00    +0.277 C 
ENDBRANCH  30   6
ENDBRANCH  21  24
ENDBRANCH  16   9
ENDBRANCH  11  16
BRANCH  13  19
ATOM     19  C   UNL     1      -2.330 -10.425  15.994  0.00  0.00    +0.190 C 
BRANCH  19   4
ATOM      4  O   UNL     1      -1.095 -11.108  16.124  0.00  0.00    -0.392 OA
ATOM     36  H   UNL     1      -1.269 -11.923  16.626  0.00  0.00    +0.210 HD
ENDBRANCH  19   4
ENDBRANCH  13  19
TORSDOF 9
ENDMDL
MODEL 6
REMARK VINA RESULT:      -6.6     29.287     33.642
REMARK  Name = 51136971
REMARK  10 active torsions:
REMARK  status: ('A' for Active; 'I' for Inactive)
REMARK    1  A    between atoms: O_3  and  C_12
REMARK    2  A    between atoms: O_4  and  C_19
REMARK    3  A    between atoms: O_6  and  C_30
REMARK    4  A    between atoms: O_6  and  C_33
REMARK    5  A    between atoms: N_7  and  C_10
REMARK    6  A    between atoms: N_8  and  C_20
REMARK    7  A    between atoms: N_9  and  C_16
REMARK    8  A    between atoms: C_11  and  C_16
REMARK    9  A    between atoms: C_13  and  C_19
REMARK   10  A    between atoms: C_21  and  C_24
REMARK                            x       y       z     vdW  Elec       q    Type
REMARK                         _______ _______ _______ _____ _____    ______ ____
ROOT
ATOM      2  O   UNL     1      -9.762 -15.119  20.331  0.00  0.00    -0.365 OA
ATOM     10  C   UNL     1     -10.740 -13.310  19.133  0.00  0.00    +0.118 C 
ATOM     11  C   UNL     1      -9.426 -14.046  19.424  0.00  0.00    +0.155 C 
ATOM     12  C   UNL     1     -11.576 -13.600  20.371  0.00  0.00    +0.165 C 
ATOM     13  C   UNL     1     -11.163 -15.038  20.658  0.00  0.00    +0.174 C 
ENDROOT
BRANCH  10   7
ATOM      7  N   UNL     1     -10.626 -11.906  18.779  0.00  0.00    -0.292 NA
ATOM      8  N   UNL     1     -11.235  -9.527  17.320  0.00  0.00    -0.327 N 
ATOM     14  C   UNL     1     -11.905 -11.217  18.981  0.00  0.00    +0.104 C 
ATOM     15  C   UNL     1     -10.196 -11.762  17.382  0.00  0.00    +0.104 C 
ATOM     17  C   UNL     1     -11.784  -9.725  18.665  0.00  0.00    +0.120 C 
ATOM     18  C   UNL     1     -10.016 -10.288  17.013  0.00  0.00    +0.120 C 
BRANCH   8  20
ATOM     20  C   UNL     1     -11.432  -8.308  16.661  0.00  0.00    +0.030 A 
ATOM     22  C   UNL     1     -12.721  -7.896  16.327  0.00  0.00    +0.023 A 
ATOM     23  C   UNL     1     -10.338  -7.506  16.338  0.00  0.00    +0.023 A 
ATOM     25  C   UNL     1     -12.918  -6.681  15.670  0.00  0.00    +0.002 A 
ATOM     26  C   UNL     1     -10.534  -6.291  15.682  0.00  0.00    +0.002 A 
ATOM     27  C   UNL     1     -11.824  -5.878  15.347  0.00  0.00    +0.000 A 
ENDBRANCH   8  20
ENDBRANCH  10   7
BRANCH  12   3
ATOM      3  O   UNL     1     -11.214 -12.753  21.454  0.00  0.00    -0.388 OA
ATOM     34  H   UNL     1     -10.535 -12.137  21.132  0.00  0.00    +0.210 HD
ENDBRANCH  12   3
BRANCH  11  16
ATOM     16  C   UNL     1      -8.316 -13.232  20.079  0.00  0.00    +0.137 C 
BRANCH  16   9
ATOM      5  O   UNL     1      -6.809 -10.790  20.162  0.00  0.00    -0.270 OA
ATOM      9  N   UNL     1      -7.367 -12.780  19.107  0.00  0.00    -0.309 N 
ATOM     21  C   UNL     1      -6.677 -11.575  19.227  0.00  0.00    +0.246 C 
ATOM     35  H   UNL     1      -7.191 -13.374  18.302  0.00  0.00    +0.149 HD
BRANCH  21  24
ATOM      1 CL   UNL     1      -3.681 -12.225  19.605  0.00  0.00    -0.083 Cl
ATOM     24  C   UNL     1      -5.747 -11.238  18.120  0.00  0.00    +0.058 A 
ATOM     28  C   UNL     1      -6.276 -10.646  16.973  0.00  0.00    +0.060 A 
ATOM     29  C   UNL     1      -4.378 -11.495  18.204  0.00  0.00    +0.053 A 
ATOM     30  C   UNL     1      -5.437 -10.312  15.910  0.00  0.00    +0.121 A 
ATOM     31  C   UNL     1      -3.539 -11.161  17.140  0.00  0.00    +0.024 A 
ATOM     32  C   UNL     1      -4.069 -10.569  15.993  0.00  0.00    +0.047 A 
BRANCH  30   6
ATOM      6  O   UNL     1      -5.954  -9.736  14.790  0.00  0.00    -0.495 OA
ATOM     33  C   UNL     1      -5.440 -10.179  13.536  0.00  0.00    +0.277 C 
ENDBRANCH  30   6
ENDBRANCH  21  24
ENDBRANCH  16   9
ENDBRANCH  11  16
BRANCH  13  19
ATOM     19  C   UNL     1     -11.370 -15.504  22.088  0.00  0.00    +0.190 C 
BRANCH  19   4
ATOM      4  O   UNL     1     -10.300 -15.026  22.887  0.00  0.00    -0.392 OA
ATOM     36  H   UNL     1      -9.485 -15.127  22.366  0.00  0.00    +0.210 HD
ENDBRANCH  19   4
ENDBRANCH  13  19
TORSDOF 9
ENDMDL
MODEL 7
REMARK VINA RESULT:      -6.5     32.343     35.059
REMARK  Name = 51136971
REMARK  10 active torsions:
REMARK  status: ('A' for Active; 'I' for Inactive)
REMARK    1  A    between atoms: O_3  and  C_12
REMARK    2  A    between atoms: O_4  and  C_19
REMARK    3  A    between atoms: O_6  and  C_30
REMARK    4  A    between atoms: O_6  and  C_33
REMARK    5  A    between atoms: N_7  and  C_10
REMARK    6  A    between atoms: N_8  and  C_20
REMARK    7  A    between atoms: N_9  and  C_16
REMARK    8  A    between atoms: C_11  and  C_16
REMARK    9  A    between atoms: C_13  and  C_19
REMARK   10  A    between atoms: C_21  and  C_24
REMARK                            x       y       z     vdW  Elec       q    Type
REMARK                         _______ _______ _______ _____ _____    ______ ____
ROOT
ATOM      2  O   UNL     1     -17.744   3.412  23.736  0.00  0.00    -0.365 OA
ATOM     10  C   UNL     1     -17.597   2.863  26.047  0.00  0.00    +0.118 C 
ATOM     11  C   UNL     1     -17.125   3.845  24.967  0.00  0.00    +0.155 C 
ATOM     12  C   UNL     1     -17.904   1.602  25.252  0.00  0.00    +0.165 C 
ATOM     13  C   UNL     1     -18.493   2.207  23.983  0.00  0.00    +0.174 C 
ENDROOT
BRANCH  10   7
ATOM      7  N   UNL     1     -16.709   2.679  27.180  0.00  0.00    -0.292 NA
ATOM      8  N   UNL     1     -15.987   2.608  29.944  0.00  0.00    -0.327 N 
ATOM     14  C   UNL     1     -17.197   1.601  28.049  0.00  0.00    +0.104 C 
ATOM     15  C   UNL     1     -16.590   3.924  27.948  0.00  0.00    +0.104 C 
ATOM     17  C   UNL     1     -16.240   1.359  29.218  0.00  0.00    +0.120 C 
ATOM     18  C   UNL     1     -15.611   3.760  29.114  0.00  0.00    +0.120 C 
BRANCH   8  20
ATOM     20  C   UNL     1     -15.513   2.563  31.259  0.00  0.00    +0.030 A 
ATOM     22  C   UNL     1     -15.039   1.364  31.790  0.00  0.00    +0.023 A 
ATOM     23  C   UNL     1     -15.514   3.719  32.040  0.00  0.00    +0.023 A 
ATOM     25  C   UNL     1     -14.567   1.319  33.102  0.00  0.00    +0.002 A 
ATOM     26  C   UNL     1     -15.040   3.675  33.351  0.00  0.00    +0.002 A 
ATOM     27  C   UNL     1     -14.567   2.475  33.883  0.00  0.00    +0.000 A 
ENDBRANCH   8  20
ENDBRANCH  10   7
BRANCH  12   3
ATOM      3  O   UNL     1     -16.721   0.874  24.952  0.00  0.00    -0.388 OA
ATOM     34  H   UNL     1     -16.100   1.485  24.522  0.00  0.00    +0.210 HD
ENDBRANCH  12   3
BRANCH  11  16
ATOM     16  C   UNL     1     -15.623   3.917  24.717  0.00  0.00    +0.137 C 
BRANCH  16   9
ATOM      5  O   UNL     1     -15.239   4.553  21.944  0.00  0.00    -0.270 OA
ATOM      9  N   UNL     1     -15.251   5.189  24.176  0.00  0.00    -0.309 N 
ATOM     21  C   UNL     1     -15.085   5.410  22.810  0.00  0.00    +0.246 C 
ATOM     35  H   UNL     1     -15.110   5.959  24.823  0.00  0.00    +0.149 HD
BRANCH  21  24
ATOM      1 CL   UNL     1     -12.314   5.759  21.492  0.00  0.00    -0.083 Cl
ATOM     24  C   UNL     1     -14.671   6.780  22.412  0.00  0.00    +0.058 A 
ATOM     28  C   UNL     1     -15.555   7.831  22.655  0.00  0.00    +0.060 A 
ATOM     29  C   UNL     1     -13.437   7.031  21.811  0.00  0.00    +0.053 A 
ATOM     30  C   UNL     1     -15.206   9.133  22.298  0.00  0.00    +0.121 A 
ATOM     31  C   UNL     1     -13.088   8.333  21.453  0.00  0.00    +0.024 A 
ATOM     32  C   UNL     1     -13.972   9.385  21.697  0.00  0.00    +0.047 A 
BRANCH  30   6
ATOM      6  O   UNL     1     -16.068  10.159  22.535  0.00  0.00    -0.495 OA
ATOM     33  C   UNL     1     -15.859  10.922  23.721  0.00  0.00    +0.277 C 
ENDBRANCH  30   6
ENDBRANCH  21  24
ENDBRANCH  16   9
ENDBRANCH  11  16
BRANCH  13  19
ATOM     19  C   UNL     1     -18.438   1.321  22.751  0.00  0.00    +0.190 C 
BRANCH  19   4
ATOM      4  O   UNL     1     -17.148   1.419  22.173  0.00  0.00    -0.392 OA
ATOM     36  H   UNL     1     -16.506   1.434  22.903  0.00  0.00    +0.210 HD
ENDBRANCH  19   4
ENDBRANCH  13  19
TORSDOF 9
ENDMDL
MODEL 8
REMARK VINA RESULT:      -6.5     32.358     35.018
REMARK  Name = 51136971
REMARK  10 active torsions:
REMARK  status: ('A' for Active; 'I' for Inactive)
REMARK    1  A    between atoms: O_3  and  C_12
REMARK    2  A    between atoms: O_4  and  C_19
REMARK    3  A    between atoms: O_6  and  C_30
REMARK    4  A    between atoms: O_6  and  C_33
REMARK    5  A    between atoms: N_7  and  C_10
REMARK    6  A    between atoms: N_8  and  C_20
REMARK    7  A    between atoms: N_9  and  C_16
REMARK    8  A    between atoms: C_11  and  C_16
REMARK    9  A    between atoms: C_13  and  C_19
REMARK   10  A    between atoms: C_21  and  C_24
REMARK                            x       y       z     vdW  Elec       q    Type
REMARK                         _______ _______ _______ _____ _____    ______ ____
ROOT
ATOM      2  O   UNL     1     -17.966   4.969  22.939  0.00  0.00    -0.365 OA
ATOM     10  C   UNL     1     -17.800   3.562  24.851  0.00  0.00    +0.118 C 
ATOM     11  C   UNL     1     -17.408   4.927  24.271  0.00  0.00    +0.155 C 
ATOM     12  C   UNL     1     -17.975   2.699  23.610  0.00  0.00    +0.165 C 
ATOM     13  C   UNL     1     -18.601   3.707  22.654  0.00  0.00    +0.174 C 
ENDROOT
BRANCH  10   7
ATOM      7  N   UNL     1     -16.914   3.016  25.864  0.00  0.00    -0.292 NA
ATOM      8  N   UNL     1     -16.191   2.076  28.463  0.00  0.00    -0.327 N 
ATOM     14  C   UNL     1     -17.426   1.733  26.360  0.00  0.00    +0.104 C 
ATOM     15  C   UNL     1     -16.767   3.959  26.980  0.00  0.00    +0.104 C 
ATOM     17  C   UNL     1     -16.472   1.119  27.388  0.00  0.00    +0.120 C 
ATOM     18  C   UNL     1     -15.790   3.421  28.029  0.00  0.00    +0.120 C 
BRANCH   8  20
ATOM     20  C   UNL     1     -15.715   1.615  29.696  0.00  0.00    +0.030 A 
ATOM     22  C   UNL     1     -15.464   0.257  29.883  0.00  0.00    +0.023 A 
ATOM     23  C   UNL     1     -15.493   2.515  30.738  0.00  0.00    +0.023 A 
ATOM     25  C   UNL     1     -14.990  -0.203  31.112  0.00  0.00    +0.002 A 
ATOM     26  C   UNL     1     -15.019   2.056  31.966  0.00  0.00    +0.002 A 
ATOM     27  C   UNL     1     -14.768   0.697  32.154  0.00  0.00    +0.000 A 
ENDBRANCH   8  20
ENDBRANCH  10   7
BRANCH  12   3
ATOM      3  O   UNL     1     -16.723   2.249  23.108  0.00  0.00    -0.388 OA
ATOM     34  H   UNL     1     -16.897   1.508  22.505  0.00  0.00    +0.210 HD
ENDBRANCH  12   3
BRANCH  11  16
ATOM     16  C   UNL     1     -15.917   5.214  24.146  0.00  0.00    +0.137 C 
BRANCH  16   9
ATOM      5  O   UNL     1     -14.366   4.509  21.835  0.00  0.00    -0.270 OA
ATOM      9  N   UNL     1     -15.645   6.046  23.013  0.00  0.00    -0.309 N 
ATOM     21  C   UNL     1     -14.879   5.621  21.930  0.00  0.00    +0.246 C 
ATOM     35  H   UNL     1     -16.039   6.982  23.004  0.00  0.00    +0.149 HD
BRANCH  21  24
ATOM      1 CL   UNL     1     -11.976   6.433  21.254  0.00  0.00    -0.083 Cl
ATOM     24  C   UNL     1     -14.667   6.613  20.845  0.00  0.00    +0.058 A 
ATOM     28  C   UNL     1     -15.790   7.123  20.192  0.00  0.00    +0.060 A 
ATOM     29  C   UNL     1     -13.391   7.038  20.473  0.00  0.00    +0.053 A 
ATOM     30  C   UNL     1     -15.637   8.058  19.168  0.00  0.00    +0.121 A 
ATOM     31  C   UNL     1     -13.238   7.973  19.449  0.00  0.00    +0.024 A 
ATOM     32  C   UNL     1     -14.361   8.483  18.796  0.00  0.00    +0.047 A 
BRANCH  30   6
ATOM      6  O   UNL     1     -16.732   8.555  18.530  0.00  0.00    -0.495 OA
ATOM     33  C   UNL     1     -18.003   8.288  19.120  0.00  0.00    +0.277 C 
ENDBRANCH  30   6
ENDBRANCH  21  24
ENDBRANCH  16   9
ENDBRANCH  11  16
BRANCH  13  19
ATOM     19  C   UNL     1     -18.444   3.391  21.177  0.00  0.00    +0.190 C 
BRANCH  19   4
ATOM      4  O   UNL     1     -17.233   3.962  20.711  0.00  0.00    -0.392 OA
ATOM     36  H   UNL     1     -16.514   3.361  20.969  0.00  0.00    +0.210 HD
ENDBRANCH  19   4
ENDBRANCH  13  19
TORSDOF 9
ENDMDL
MODEL 9
REMARK VINA RESULT:      -6.4     16.740     19.259
REMARK  Name = 51136971
REMARK  10 active torsions:
REMARK  status: ('A' for Active; 'I' for Inactive)
REMARK    1  A    between atoms: O_3  and  C_12
REMARK    2  A    between atoms: O_4  and  C_19
REMARK    3  A    between atoms: O_6  and  C_30
REMARK    4  A    between atoms: O_6  and  C_33
REMARK    5  A    between atoms: N_7  and  C_10
REMARK    6  A    between atoms: N_8  and  C_20
REMARK    7  A    between atoms: N_9  and  C_16
REMARK    8  A    between atoms: C_11  and  C_16
REMARK    9  A    between atoms: C_13  and  C_19
REMARK   10  A    between atoms: C_21  and  C_24
REMARK                            x       y       z     vdW  Elec       q    Type
REMARK                         _______ _______ _______ _____ _____    ______ ____
ROOT
ATOM      2  O   UNL     1       9.103   5.938   6.505  0.00  0.00    -0.365 OA
ATOM     10  C   UNL     1      11.182   7.044   6.157  0.00  0.00    +0.118 C 
ATOM     11  C   UNL     1      10.104   6.178   5.492  0.00  0.00    +0.155 C 
ATOM     12  C   UNL     1      11.046   6.687   7.630  0.00  0.00    +0.165 C 
ATOM     13  C   UNL     1       9.534   6.535   7.744  0.00  0.00    +0.174 C 
ENDROOT
BRANCH  10   7
ATOM      7  N   UNL     1      12.523   6.930   5.614  0.00  0.00    -0.292 NA
ATOM      8  N   UNL     1      15.055   7.884   4.697  0.00  0.00    -0.327 N 
ATOM     14  C   UNL     1      13.511   7.450   6.567  0.00  0.00    +0.104 C 
ATOM     15  C   UNL     1      12.627   7.655   4.342  0.00  0.00    +0.104 C 
ATOM     17  C   UNL     1      14.935   7.285   6.030  0.00  0.00    +0.120 C 
ATOM     18  C   UNL     1      14.021   7.496   3.730  0.00  0.00    +0.120 C 
BRANCH   8  20
ATOM     20  C   UNL     1      16.317   8.234   4.204  0.00  0.00    +0.030 A 
ATOM     22  C   UNL     1      17.355   8.527   5.088  0.00  0.00    +0.023 A 
ATOM     23  C   UNL     1      16.537   8.289   2.828  0.00  0.00    +0.023 A 
ATOM     25  C   UNL     1      18.613   8.876   4.596  0.00  0.00    +0.002 A 
ATOM     26  C   UNL     1      17.795   8.637   2.337  0.00  0.00    +0.002 A 
ATOM     27  C   UNL     1      18.833   8.931   3.220  0.00  0.00    +0.000 A 
ENDBRANCH   8  20
ENDBRANCH  10   7
BRANCH  12   3
ATOM      3  O   UNL     1      11.693   5.458   7.930  0.00  0.00    -0.388 OA
ATOM     34  H   UNL     1      12.000   5.503   8.851  0.00  0.00    +0.210 HD
ENDBRANCH  12   3
BRANCH  11  16
ATOM     16  C   UNL     1      10.548   4.820   4.963  0.00  0.00    +0.137 C 
BRANCH  16   9
ATOM      5  O   UNL     1      10.975   2.758   3.012  0.00  0.00    -0.270 OA
ATOM      9  N   UNL     1      11.241   4.952   3.717  0.00  0.00    -0.309 N 
ATOM     21  C   UNL     1      11.402   3.894   2.826  0.00  0.00    +0.246 C 
ATOM     35  H   UNL     1      11.621   5.864   3.479  0.00  0.00    +0.149 HD
BRANCH  21  24
ATOM      1 CL   UNL     1       9.893   5.185   0.460  0.00  0.00    -0.083 Cl
ATOM     24  C   UNL     1      12.169   4.189   1.588  0.00  0.00    +0.058 A 
ATOM     28  C   UNL     1      13.525   3.866   1.562  0.00  0.00    +0.060 A 
ATOM     29  C   UNL     1      11.568   4.770   0.471  0.00  0.00    +0.053 A 
ATOM     30  C   UNL     1      14.282   4.125   0.419  0.00  0.00    +0.121 A 
ATOM     31  C   UNL     1      12.326   5.029  -0.672  0.00  0.00    +0.024 A 
ATOM     32  C   UNL     1      13.683   4.707  -0.698  0.00  0.00    +0.047 A 
BRANCH  30   6
ATOM      6  O   UNL     1      15.607   3.811   0.394  0.00  0.00    -0.495 OA
ATOM     33  C   UNL     1      16.388   4.379  -0.655  0.00  0.00    +0.277 C 
ENDBRANCH  30   6
ENDBRANCH  21  24
ENDBRANCH  16   9
ENDBRANCH  11  16
BRANCH  13  19
ATOM     19  C   UNL     1       9.048   5.684   8.904  0.00  0.00    +0.190 C 
BRANCH  19   4
ATOM      4  O   UNL     1       9.344   4.325   8.632  0.00  0.00    -0.392 OA
ATOM     36  H   UNL     1      10.277   4.282   8.363  0.00  0.00    +0.210 HD
ENDBRANCH  19   4
ENDBRANCH  13  19
TORSDOF 9
ENDMDL
MODEL 10
REMARK VINA RESULT:      -6.4      3.114      5.944
REMARK  Name = 51136971
REMARK  10 active torsions:
REMARK  status: ('A' for Active; 'I' for Inactive)
REMARK    1  A    between atoms: O_3  and  C_12
REMARK    2  A    between atoms: O_4  and  C_19
REMARK    3  A    between atoms: O_6  and  C_30
REMARK    4  A    between atoms: O_6  and  C_33
REMARK    5  A    between atoms: N_7  and  C_10
REMARK    6  A    between atoms: N_8  and  C_20
REMARK    7  A    between atoms: N_9  and  C_16
REMARK    8  A    between atoms: C_11  and  C_16
REMARK    9  A    between atoms: C_13  and  C_19
REMARK   10  A    between atoms: C_21  and  C_24
REMARK                            x       y       z     vdW  Elec       q    Type
REMARK                         _______ _______ _______ _____ _____    ______ ____
ROOT
ATOM      2  O   UNL     1      12.358   7.394  20.235  0.00  0.00    -0.365 OA
ATOM     10  C   UNL     1      14.560   6.654  19.715  0.00  0.00    +0.118 C 
ATOM     11  C   UNL     1      13.601   7.007  20.860  0.00  0.00    +0.155 C 
ATOM     12  C   UNL     1      14.021   7.475  18.553  0.00  0.00    +0.165 C 
ATOM     13  C   UNL     1      12.522   7.367  18.803  0.00  0.00    +0.174 C 
ENDROOT
BRANCH  10   7
ATOM      7  N   UNL     1      15.976   6.822  19.989  0.00  0.00    -0.292 NA
ATOM      8  N   UNL     1      18.598   5.995  20.761  0.00  0.00    -0.327 N 
ATOM     14  C   UNL     1      16.776   5.968  19.104  0.00  0.00    +0.104 C 
ATOM     15  C   UNL     1      16.270   6.504  21.391  0.00  0.00    +0.104 C 
ATOM     17  C   UNL     1      18.274   6.177  19.343  0.00  0.00    +0.120 C 
ATOM     18  C   UNL     1      17.750   6.732  21.707  0.00  0.00    +0.120 C 
BRANCH   8  20
ATOM     20  C   UNL     1      19.915   5.713  21.141  0.00  0.00    +0.030 A 
ATOM     22  C   UNL     1      20.657   4.765  20.439  0.00  0.00    +0.023 A 
ATOM     23  C   UNL     1      20.486   6.382  22.224  0.00  0.00    +0.023 A 
ATOM     25  C   UNL     1      21.970   4.483  20.818  0.00  0.00    +0.002 A 
ATOM     26  C   UNL     1      21.799   6.101  22.603  0.00  0.00    +0.002 A 
ATOM     27  C   UNL     1      22.541   5.152  21.901  0.00  0.00    +0.000 A 
ENDBRANCH   8  20
ENDBRANCH  10   7
BRANCH  12   3
ATOM      3  O   UNL     1      14.442   8.831  18.634  0.00  0.00    -0.388 OA
ATOM     34  H   UNL     1      13.976   9.326  17.939  0.00  0.00    +0.210 HD
ENDBRANCH  12   3
BRANCH  11  16
ATOM     16  C   UNL     1      14.021   8.150  21.777  0.00  0.00    +0.137 C 
BRANCH  16   9
ATOM      5  O   UNL     1      14.379  10.725  22.994  0.00  0.00    -0.270 OA
ATOM      9  N   UNL     1      13.293   9.345  21.477  0.00  0.00    -0.309 N 
ATOM     21  C   UNL     1      13.533  10.558  22.120  0.00  0.00    +0.246 C 
ATOM     35  H   UNL     1      12.577   9.299  20.757  0.00  0.00    +0.149 HD
BRANCH  21  24
ATOM      1 CL   UNL     1      11.033  11.169  23.828  0.00  0.00    -0.083 Cl
ATOM     24  C   UNL     1      12.673  11.699  21.713  0.00  0.00    +0.058 A 
ATOM     28  C   UNL     1      13.042  12.430  20.584  0.00  0.00    +0.060 A 
ATOM     29  C   UNL     1      11.525  12.047  22.425  0.00  0.00    +0.053 A 
ATOM     30  C   UNL     1      12.263  13.509  20.166  0.00  0.00    +0.121 A 
ATOM     31  C   UNL     1      10.746  13.126  22.007  0.00  0.00    +0.024 A 
ATOM     32  C   UNL     1      11.115  13.857  20.877  0.00  0.00    +0.047 A 
BRANCH  30   6
ATOM      6  O   UNL     1      12.622  14.222  19.064  0.00  0.00    -0.495 OA
ATOM     33  C   UNL     1      14.019  14.393  18.829  0.00  0.00    +0.277 C 
ENDBRANCH  30   6
ENDBRANCH  21  24
ENDBRANCH  16   9
ENDBRANCH  11  16
BRANCH  13  19
ATOM     19  C   UNL     1      11.675   8.463  18.182  0.00  0.00    +0.190 C 
BRANCH  19   4
ATOM      4  O   UNL     1      11.086   7.969  16.991  0.00  0.00    -0.392 OA
ATOM     36  H   UNL     1      11.811   7.690  16.406  0.00  0.00    +0.210 HD
ENDBRANCH  19   4
ENDBRANCH  13  19
TORSDOF 9
ENDMDL
