MODEL 1
REMARK VINA RESULT:      -8.1      0.000      0.000
REMARK  Name = 45784222
REMARK  5 active torsions:
REMARK  status: ('A' for Active; 'I' for Inactive)
REMARK    1  A    between atoms: N_4  and  C_12
REMARK    2  A    between atoms: C_7  and  C_11
REMARK    3  A    between atoms: C_12  and  C_13
REMARK    4  A    between atoms: C_20  and  C_25
REMARK    5  A    between atoms: C_24  and  C_26
REMARK                            x       y       z     vdW  Elec       q    Type
REMARK                         _______ _______ _______ _____ _____    ______ ____
ROOT
ATOM      4  N   UNL     1      13.794   7.014  20.284  0.00  0.00    -0.297 NA
ATOM      7  C   UNL     1      12.628   8.253  21.898  0.00  0.00    +0.070 C 
ATOM      8  C   UNL     1      11.647   7.339  21.145  0.00  0.00    +0.028 C 
ATOM      9  C   UNL     1      13.889   8.275  21.024  0.00  0.00    +0.096 C 
ATOM     10  C   UNL     1      12.390   6.918  19.883  0.00  0.00    +0.085 C 
ENDROOT
BRANCH   7  11
ATOM      5  N   UNL     1      11.889  10.048  23.489  0.00  0.00    -0.342 N 
ATOM      6  N   UNL     1      11.790  10.569  21.331  0.00  0.00    -0.232 NA
ATOM     11  C   UNL     1      12.099   9.636  22.203  0.00  0.00    +0.113 A 
ATOM     14  C   UNL     1      11.413  11.334  23.444  0.00  0.00    +0.066 A 
ATOM     15  C   UNL     1      11.360  11.636  22.087  0.00  0.00    +0.089 A 
ATOM     18  C   UNL     1      11.035  12.230  24.445  0.00  0.00    +0.031 A 
ATOM     19  C   UNL     1      10.906  12.904  21.685  0.00  0.00    +0.030 A 
ATOM     20  C   UNL     1      10.586  13.487  24.026  0.00  0.00    -0.048 A 
ATOM     21  C   UNL     1      10.522  13.820  22.671  0.00  0.00    +0.005 A 
ATOM     25  C   UNL     1      10.168  14.492  25.050  0.00  0.00    +0.044 C 
ATOM     27  H   UNL     1      12.054   9.507  24.327  0.00  0.00    +0.167 HD
ENDBRANCH   7  11
BRANCH   4  12
ATOM     12  C   UNL     1      14.699   6.970  19.146  0.00  0.00    +0.119 C 
BRANCH  12  13
ATOM     13  C   UNL     1      16.103   6.613  19.560  0.00  0.00    -0.033 A 
ATOM     16  C   UNL     1      16.905   5.846  18.716  0.00  0.00    +0.005 A 
ATOM     17  C   UNL     1      16.600   7.050  20.788  0.00  0.00    +0.005 A 
ATOM     22  C   UNL     1      18.204   5.515  19.099  0.00  0.00    +0.012 A 
ATOM     23  C   UNL     1      17.900   6.719  21.171  0.00  0.00    +0.012 A 
ATOM     24  C   UNL     1      18.702   5.952  20.326  0.00  0.00    +0.055 A 
BRANCH  24  26
ATOM      1  F   UNL     1      20.301   5.671  22.083  0.00  0.00    -0.166 F 
ATOM      2  F   UNL     1      21.027   6.424  20.177  0.00  0.00    -0.166 F 
ATOM      3  F   UNL     1      20.463   4.335  20.382  0.00  0.00    -0.166 F 
ATOM     26  C   UNL     1      20.093   5.601  20.735  0.00  0.00    +0.417 C 
ENDBRANCH  24  26
ENDBRANCH  12  13
ENDBRANCH   4  12
TORSDOF 4
ENDMDL
MODEL 2
REMARK VINA RESULT:      -7.7     27.522     29.668
REMARK  Name = 45784222
REMARK  5 active torsions:
REMARK  status: ('A' for Active; 'I' for Inactive)
REMARK    1  A    between atoms: N_4  and  C_12
REMARK    2  A    between atoms: C_7  and  C_11
REMARK    3  A    between atoms: C_12  and  C_13
REMARK    4  A    between atoms: C_20  and  C_25
REMARK    5  A    between atoms: C_24  and  C_26
REMARK                            x       y       z     vdW  Elec       q    Type
REMARK                         _______ _______ _______ _____ _____    ______ ____
ROOT
ATOM      4  N   UNL     1     -14.895   6.485  21.836  0.00  0.00    -0.297 NA
ATOM      7  C   UNL     1     -15.809   4.499  22.682  0.00  0.00    +0.070 C 
ATOM      8  C   UNL     1     -16.942   5.481  22.339  0.00  0.00    +0.028 C 
ATOM      9  C   UNL     1     -14.541   5.362  22.706  0.00  0.00    +0.096 C 
ATOM     10  C   UNL     1     -16.263   6.839  22.215  0.00  0.00    +0.085 C 
ENDROOT
BRANCH   7  11
ATOM      5  N   UNL     1     -15.887   4.310  25.184  0.00  0.00    -0.342 N 
ATOM      6  N   UNL     1     -16.320   2.442  24.059  0.00  0.00    -0.232 NA
ATOM     11  C   UNL     1     -16.013   3.716  23.960  0.00  0.00    +0.113 A 
ATOM     14  C   UNL     1     -16.129   3.355  26.138  0.00  0.00    +0.066 A 
ATOM     15  C   UNL     1     -16.397   2.199  25.412  0.00  0.00    +0.089 A 
ATOM     18  C   UNL     1     -16.136   3.403  27.533  0.00  0.00    +0.031 A 
ATOM     19  C   UNL     1     -16.691   1.010  26.100  0.00  0.00    +0.030 A 
ATOM     20  C   UNL     1     -16.431   2.211  28.202  0.00  0.00    -0.048 A 
ATOM     21  C   UNL     1     -16.704   1.034  27.500  0.00  0.00    +0.005 A 
ATOM     25  C   UNL     1     -16.455   2.196  29.696  0.00  0.00    +0.044 C 
ATOM     27  H   UNL     1     -15.657   5.278  25.360  0.00  0.00    +0.167 HD
ENDBRANCH   7  11
BRANCH   4  12
ATOM     12  C   UNL     1     -13.976   7.605  21.973  0.00  0.00    +0.119 C 
BRANCH  12  13
ATOM     13  C   UNL     1     -13.136   7.796  20.737  0.00  0.00    -0.033 A 
ATOM     16  C   UNL     1     -11.756   7.956  20.850  0.00  0.00    +0.005 A 
ATOM     17  C   UNL     1     -13.740   7.811  19.480  0.00  0.00    +0.005 A 
ATOM     22  C   UNL     1     -10.978   8.133  19.706  0.00  0.00    +0.012 A 
ATOM     23  C   UNL     1     -12.963   7.988  18.335  0.00  0.00    +0.012 A 
ATOM     24  C   UNL     1     -11.582   8.148  18.448  0.00  0.00    +0.055 A 
BRANCH  24  26
ATOM      1  F   UNL     1     -10.234   7.168  16.732  0.00  0.00    -0.166 F 
ATOM      2  F   UNL     1      -9.675   9.147  17.438  0.00  0.00    -0.166 F 
ATOM      3  F   UNL     1     -11.430   8.893  16.180  0.00  0.00    -0.166 F 
ATOM     26  C   UNL     1     -10.750   8.334  17.224  0.00  0.00    +0.417 C 
ENDBRANCH  24  26
ENDBRANCH  12  13
ENDBRANCH   4  12
TORSDOF 4
ENDMDL
MODEL 3
REMARK VINA RESULT:      -7.7      3.941      4.736
REMARK  Name = 45784222
REMARK  5 active torsions:
REMARK  status: ('A' for Active; 'I' for Inactive)
REMARK    1  A    between atoms: N_4  and  C_12
REMARK    2  A    between atoms: C_7  and  C_11
REMARK    3  A    between atoms: C_12  and  C_13
REMARK    4  A    between atoms: C_20  and  C_25
REMARK    5  A    between atoms: C_24  and  C_26
REMARK                            x       y       z     vdW  Elec       q    Type
REMARK                         _______ _______ _______ _____ _____    ______ ____
ROOT
ATOM      4  N   UNL     1      12.948   7.124  20.673  0.00  0.00    -0.297 NA
ATOM      7  C   UNL     1      11.615   8.363  22.152  0.00  0.00    +0.070 C 
ATOM      8  C   UNL     1      10.794   7.997  20.904  0.00  0.00    +0.028 C 
ATOM      9  C   UNL     1      13.074   8.115  21.744  0.00  0.00    +0.096 C 
ATOM     10  C   UNL     1      11.825   7.591  19.859  0.00  0.00    +0.085 C 
ENDROOT
BRANCH   7  11
ATOM      5  N   UNL     1      11.332  10.016  24.020  0.00  0.00    -0.342 N 
ATOM      6  N   UNL     1      11.204  10.850  21.963  0.00  0.00    -0.232 NA
ATOM     11  C   UNL     1      11.381   9.761  22.678  0.00  0.00    +0.113 A 
ATOM     14  C   UNL     1      11.109  11.359  24.182  0.00  0.00    +0.066 A 
ATOM     15  C   UNL     1      11.033  11.858  22.885  0.00  0.00    +0.089 A 
ATOM     18  C   UNL     1      10.971  12.157  25.319  0.00  0.00    +0.031 A 
ATOM     19  C   UNL     1      10.807  13.231  22.691  0.00  0.00    +0.030 A 
ATOM     20  C   UNL     1      10.747  13.521  25.107  0.00  0.00    -0.048 A 
ATOM     21  C   UNL     1      10.666  14.051  23.817  0.00  0.00    +0.005 A 
ATOM     25  C   UNL     1      10.591  14.428  26.284  0.00  0.00    +0.044 C 
ATOM     27  H   UNL     1      11.440   9.339  24.763  0.00  0.00    +0.167 HD
ENDBRANCH   7  11
BRANCH   4  12
ATOM     12  C   UNL     1      14.173   6.985  19.899  0.00  0.00    +0.119 C 
BRANCH  12  13
ATOM     13  C   UNL     1      14.247   7.994  18.783  0.00  0.00    -0.033 A 
ATOM     16  C   UNL     1      14.641   9.304  19.052  0.00  0.00    +0.005 A 
ATOM     17  C   UNL     1      13.924   7.617  17.479  0.00  0.00    +0.005 A 
ATOM     22  C   UNL     1      14.710  10.238  18.019  0.00  0.00    +0.012 A 
ATOM     23  C   UNL     1      13.992   8.550  16.445  0.00  0.00    +0.012 A 
ATOM     24  C   UNL     1      14.386   9.861  16.715  0.00  0.00    +0.055 A 
BRANCH  24  26
ATOM      1  F   UNL     1      15.483  10.625  14.732  0.00  0.00    -0.166 F 
ATOM      2  F   UNL     1      14.657  12.132  16.064  0.00  0.00    -0.166 F 
ATOM      3  F   UNL     1      13.336  10.912  14.841  0.00  0.00    -0.166 F 
ATOM     26  C   UNL     1      14.464  10.860  15.610  0.00  0.00    +0.417 C 
ENDBRANCH  24  26
ENDBRANCH  12  13
ENDBRANCH   4  12
TORSDOF 4
ENDMDL
MODEL 4
REMARK VINA RESULT:      -7.6     14.456     16.037
REMARK  Name = 45784222
REMARK  5 active torsions:
REMARK  status: ('A' for Active; 'I' for Inactive)
REMARK    1  A    between atoms: N_4  and  C_12
REMARK    2  A    between atoms: C_7  and  C_11
REMARK    3  A    between atoms: C_12  and  C_13
REMARK    4  A    between atoms: C_20  and  C_25
REMARK    5  A    between atoms: C_24  and  C_26
REMARK                            x       y       z     vdW  Elec       q    Type
REMARK                         _______ _______ _______ _____ _____    ______ ____
ROOT
ATOM      4  N   UNL     1      16.024   8.683   5.403  0.00  0.00    -0.297 NA
ATOM      7  C   UNL     1      13.903   7.691   5.278  0.00  0.00    +0.070 C 
ATOM      8  C   UNL     1      13.877   9.051   4.560  0.00  0.00    +0.028 C 
ATOM      9  C   UNL     1      15.186   7.720   6.120  0.00  0.00    +0.096 C 
ATOM     10  C   UNL     1      15.121   9.779   5.052  0.00  0.00    +0.085 C 
ENDROOT
BRANCH   7  11
ATOM      5  N   UNL     1      12.624   6.301   6.932  0.00  0.00    -0.342 N 
ATOM      6  N   UNL     1      11.546   8.062   6.110  0.00  0.00    -0.232 NA
ATOM     11  C   UNL     1      12.669   7.380   6.095  0.00  0.00    +0.113 A 
ATOM     14  C   UNL     1      11.389   6.285   7.528  0.00  0.00    +0.066 A 
ATOM     15  C   UNL     1      10.735   7.394   6.999  0.00  0.00    +0.089 A 
ATOM     18  C   UNL     1      10.806   5.421   8.456  0.00  0.00    +0.031 A 
ATOM     19  C   UNL     1       9.420   7.673   7.409  0.00  0.00    +0.030 A 
ATOM     20  C   UNL     1       9.498   5.715   8.853  0.00  0.00    -0.048 A 
ATOM     21  C   UNL     1       8.815   6.820   8.340  0.00  0.00    +0.005 A 
ATOM     25  C   UNL     1       8.818   4.828   9.845  0.00  0.00    +0.044 C 
ATOM     27  H   UNL     1      13.366   5.632   7.088  0.00  0.00    +0.167 HD
ENDBRANCH   7  11
BRANCH   4  12
ATOM     12  C   UNL     1      17.157   9.132   6.198  0.00  0.00    +0.119 C 
BRANCH  12  13
ATOM     13  C   UNL     1      18.461   8.594   5.668  0.00  0.00    -0.033 A 
ATOM     16  C   UNL     1      18.562   8.199   4.335  0.00  0.00    +0.005 A 
ATOM     17  C   UNL     1      19.568   8.493   6.511  0.00  0.00    +0.005 A 
ATOM     22  C   UNL     1      19.768   7.701   3.844  0.00  0.00    +0.012 A 
ATOM     23  C   UNL     1      20.775   7.995   6.021  0.00  0.00    +0.012 A 
ATOM     24  C   UNL     1      20.875   7.600   4.687  0.00  0.00    +0.055 A 
BRANCH  24  26
ATOM      1  F   UNL     1      22.150   5.726   3.922  0.00  0.00    -0.166 F 
ATOM      2  F   UNL     1      23.207   7.277   5.021  0.00  0.00    -0.166 F 
ATOM      3  F   UNL     1      22.550   7.638   2.980  0.00  0.00    -0.166 F 
ATOM     26  C   UNL     1      22.167   7.071   4.161  0.00  0.00    +0.417 C 
ENDBRANCH  24  26
ENDBRANCH  12  13
ENDBRANCH   4  12
TORSDOF 4
ENDMDL
MODEL 5
REMARK VINA RESULT:      -7.5     18.885     21.930
REMARK  Name = 45784222
REMARK  5 active torsions:
REMARK  status: ('A' for Active; 'I' for Inactive)
REMARK    1  A    between atoms: N_4  and  C_12
REMARK    2  A    between atoms: C_7  and  C_11
REMARK    3  A    between atoms: C_12  and  C_13
REMARK    4  A    between atoms: C_20  and  C_25
REMARK    5  A    between atoms: C_24  and  C_26
REMARK                            x       y       z     vdW  Elec       q    Type
REMARK                         _______ _______ _______ _____ _____    ______ ____
ROOT
ATOM      4  N   UNL     1      12.000   5.068   2.609  0.00  0.00    -0.297 NA
ATOM      7  C   UNL     1      12.306   3.610   0.798  0.00  0.00    +0.070 C 
ATOM      8  C   UNL     1      13.660   4.216   1.205  0.00  0.00    +0.028 C 
ATOM      9  C   UNL     1      11.260   4.504   1.478  0.00  0.00    +0.096 C 
ATOM     10  C   UNL     1      13.309   5.425   2.062  0.00  0.00    +0.085 C 
ENDROOT
BRANCH   7  11
ATOM      5  N   UNL     1      10.836   3.506  -1.234  0.00  0.00    -0.342 N 
ATOM      6  N   UNL     1      13.020   3.334  -1.610  0.00  0.00    -0.232 NA
ATOM     11  C   UNL     1      12.091   3.480  -0.693  0.00  0.00    +0.113 A 
ATOM     14  C   UNL     1      10.964   3.369  -2.592  0.00  0.00    +0.066 A 
ATOM     15  C   UNL     1      12.336   3.263  -2.803  0.00  0.00    +0.089 A 
ATOM     18  C   UNL     1      10.025   3.328  -3.624  0.00  0.00    +0.031 A 
ATOM     19  C   UNL     1      12.818   3.107  -4.113  0.00  0.00    +0.030 A 
ATOM     20  C   UNL     1      10.522   3.173  -4.922  0.00  0.00    -0.048 A 
ATOM     21  C   UNL     1      11.894   3.064  -5.164  0.00  0.00    +0.005 A 
ATOM     25  C   UNL     1       9.568   3.124  -6.070  0.00  0.00    +0.044 C 
ATOM     27  H   UNL     1       9.967   3.610  -0.728  0.00  0.00    +0.167 HD
ENDBRANCH   7  11
BRANCH   4  12
ATOM     12  C   UNL     1      11.318   6.208   3.204  0.00  0.00    +0.119 C 
BRANCH  12  13
ATOM     13  C   UNL     1      10.903   5.933   4.625  0.00  0.00    -0.033 A 
ATOM     16  C   UNL     1      10.044   4.872   4.908  0.00  0.00    +0.005 A 
ATOM     17  C   UNL     1      11.379   6.740   5.659  0.00  0.00    +0.005 A 
ATOM     22  C   UNL     1       9.660   4.617   6.224  0.00  0.00    +0.012 A 
ATOM     23  C   UNL     1      10.995   6.486   6.976  0.00  0.00    +0.012 A 
ATOM     24  C   UNL     1      10.135   5.424   7.258  0.00  0.00    +0.055 A 
BRANCH  24  26
ATOM      1  F   UNL     1       9.378   3.847   8.890  0.00  0.00    -0.166 F 
ATOM      2  F   UNL     1       8.647   5.889   9.053  0.00  0.00    -0.166 F 
ATOM      3  F   UNL     1      10.703   5.420   9.582  0.00  0.00    -0.166 F 
ATOM     26  C   UNL     1       9.727   5.149   8.666  0.00  0.00    +0.417 C 
ENDBRANCH  24  26
ENDBRANCH  12  13
ENDBRANCH   4  12
TORSDOF 4
ENDMDL
MODEL 6
REMARK VINA RESULT:      -7.5     28.688     31.005
REMARK  Name = 45784222
REMARK  5 active torsions:
REMARK  status: ('A' for Active; 'I' for Inactive)
REMARK    1  A    between atoms: N_4  and  C_12
REMARK    2  A    between atoms: C_7  and  C_11
REMARK    3  A    between atoms: C_12  and  C_13
REMARK    4  A    between atoms: C_20  and  C_25
REMARK    5  A    between atoms: C_24  and  C_26
REMARK                            x       y       z     vdW  Elec       q    Type
REMARK                         _______ _______ _______ _____ _____    ______ ____
ROOT
ATOM      4  N   UNL     1     -17.085   3.977  26.178  0.00  0.00    -0.297 NA
ATOM      7  C   UNL     1     -16.421   4.620  24.023  0.00  0.00    +0.070 C 
ATOM      8  C   UNL     1     -15.800   3.255  24.366  0.00  0.00    +0.028 C 
ATOM      9  C   UNL     1     -16.890   5.183  25.371  0.00  0.00    +0.096 C 
ATOM     10  C   UNL     1     -15.927   3.133  25.879  0.00  0.00    +0.085 C 
ENDROOT
BRANCH   7  11
ATOM      5  N   UNL     1     -14.428   5.101  22.574  0.00  0.00    -0.342 N 
ATOM      6  N   UNL     1     -15.614   6.871  23.206  0.00  0.00    -0.232 NA
ATOM     11  C   UNL     1     -15.505   5.564  23.276  0.00  0.00    +0.113 A 
ATOM     14  C   UNL     1     -13.800   6.183  22.012  0.00  0.00    +0.066 A 
ATOM     15  C   UNL     1     -14.559   7.275  22.421  0.00  0.00    +0.089 A 
ATOM     18  C   UNL     1     -12.667   6.295  21.205  0.00  0.00    +0.031 A 
ATOM     19  C   UNL     1     -14.179   8.565  22.011  0.00  0.00    +0.030 A 
ATOM     20  C   UNL     1     -12.304   7.586  20.807  0.00  0.00    -0.048 A 
ATOM     21  C   UNL     1     -13.046   8.702  21.201  0.00  0.00    +0.005 A 
ATOM     25  C   UNL     1     -11.100   7.773  19.942  0.00  0.00    +0.044 C 
ATOM     27  H   UNL     1     -14.143   4.136  22.481  0.00  0.00    +0.167 HD
ENDBRANCH   7  11
BRANCH   4  12
ATOM     12  C   UNL     1     -17.202   4.272  27.598  0.00  0.00    +0.119 C 
BRANCH  12  13
ATOM     13  C   UNL     1     -16.605   3.182  28.448  0.00  0.00    -0.033 A 
ATOM     16  C   UNL     1     -15.408   3.405  29.128  0.00  0.00    +0.005 A 
ATOM     17  C   UNL     1     -17.249   1.949  28.556  0.00  0.00    +0.005 A 
ATOM     22  C   UNL     1     -14.854   2.396  29.916  0.00  0.00    +0.012 A 
ATOM     23  C   UNL     1     -16.696   0.939  29.343  0.00  0.00    +0.012 A 
ATOM     24  C   UNL     1     -15.499   1.163  30.024  0.00  0.00    +0.055 A 
BRANCH  24  26
ATOM      1  F   UNL     1     -15.668  -1.050  30.916  0.00  0.00    -0.166 F 
ATOM      2  F   UNL     1     -14.741   0.468  32.168  0.00  0.00    -0.166 F 
ATOM      3  F   UNL     1     -13.677  -0.328  30.447  0.00  0.00    -0.166 F 
ATOM     26  C   UNL     1     -14.909   0.085  30.869  0.00  0.00    +0.417 C 
ENDBRANCH  24  26
ENDBRANCH  12  13
ENDBRANCH   4  12
TORSDOF 4
ENDMDL
MODEL 7
REMARK VINA RESULT:      -7.3     27.828     30.006
REMARK  Name = 45784222
REMARK  5 active torsions:
REMARK  status: ('A' for Active; 'I' for Inactive)
REMARK    1  A    between atoms: N_4  and  C_12
REMARK    2  A    between atoms: C_7  and  C_11
REMARK    3  A    between atoms: C_12  and  C_13
REMARK    4  A    between atoms: C_20  and  C_25
REMARK    5  A    between atoms: C_24  and  C_26
REMARK                            x       y       z     vdW  Elec       q    Type
REMARK                         _______ _______ _______ _____ _____    ______ ____
ROOT
ATOM      4  N   UNL     1      -6.957 -10.025   7.780  0.00  0.00    -0.297 NA
ATOM      7  C   UNL     1      -8.906  -9.039   8.633  0.00  0.00    +0.070 C 
ATOM      8  C   UNL     1      -9.202  -9.653   7.254  0.00  0.00    +0.028 C 
ATOM      9  C   UNL     1      -7.375  -8.973   8.708  0.00  0.00    +0.096 C 
ATOM     10  C   UNL     1      -7.835  -9.873   6.619  0.00  0.00    +0.085 C 
ENDROOT
BRANCH   7  11
ATOM      5  N   UNL     1     -10.724  -7.610   9.610  0.00  0.00    -0.342 N 
ATOM      6  N   UNL     1      -9.146  -6.528   8.478  0.00  0.00    -0.232 NA
ATOM     11  C   UNL     1      -9.567  -7.703   8.888  0.00  0.00    +0.113 A 
ATOM     14  C   UNL     1     -11.073  -6.285   9.670  0.00  0.00    +0.066 A 
ATOM     15  C   UNL     1     -10.073  -5.630   8.957  0.00  0.00    +0.089 A 
ATOM     18  C   UNL     1     -12.146  -5.623  10.269  0.00  0.00    +0.031 A 
ATOM     19  C   UNL     1     -10.130  -4.233   8.823  0.00  0.00    +0.030 A 
ATOM     20  C   UNL     1     -12.186  -4.233  10.126  0.00  0.00    -0.048 A 
ATOM     21  C   UNL     1     -11.197  -3.548   9.416  0.00  0.00    +0.005 A 
ATOM     25  C   UNL     1     -13.309  -3.466  10.745  0.00  0.00    +0.044 C 
ATOM     27  H   UNL     1     -11.234  -8.377  10.027  0.00  0.00    +0.167 HD
ENDBRANCH   7  11
BRANCH   4  12
ATOM     12  C   UNL     1      -5.549  -9.926   7.426  0.00  0.00    +0.119 C 
BRANCH  12  13
ATOM     13  C   UNL     1      -4.658 -10.057   8.633  0.00  0.00    -0.033 A 
ATOM     16  C   UNL     1      -4.509 -11.294   9.259  0.00  0.00    +0.005 A 
ATOM     17  C   UNL     1      -3.980  -8.941   9.123  0.00  0.00    +0.005 A 
ATOM     22  C   UNL     1      -3.684 -11.415  10.377  0.00  0.00    +0.012 A 
ATOM     23  C   UNL     1      -3.154  -9.061  10.241  0.00  0.00    +0.012 A 
ATOM     24  C   UNL     1      -3.006 -10.299  10.868  0.00  0.00    +0.055 A 
BRANCH  24  26
ATOM      1  F   UNL     1      -2.759 -10.186  13.244  0.00  0.00    -0.166 F 
ATOM      2  F   UNL     1      -1.066  -9.564  12.029  0.00  0.00    -0.166 F 
ATOM      3  F   UNL     1      -1.571 -11.671  12.201  0.00  0.00    -0.166 F 
ATOM     26  C   UNL     1      -2.120 -10.429  12.061  0.00  0.00    +0.417 C 
ENDBRANCH  24  26
ENDBRANCH  12  13
ENDBRANCH   4  12
TORSDOF 4
ENDMDL
MODEL 8
REMARK VINA RESULT:      -7.2     27.291     29.132
REMARK  Name = 45784222
REMARK  5 active torsions:
REMARK  status: ('A' for Active; 'I' for Inactive)
REMARK    1  A    between atoms: N_4  and  C_12
REMARK    2  A    between atoms: C_7  and  C_11
REMARK    3  A    between atoms: C_12  and  C_13
REMARK    4  A    between atoms: C_20  and  C_25
REMARK    5  A    between atoms: C_24  and  C_26
REMARK                            x       y       z     vdW  Elec       q    Type
REMARK                         _______ _______ _______ _____ _____    ______ ____
ROOT
ATOM      4  N   UNL     1      -4.407 -11.594  16.737  0.00  0.00    -0.297 NA
ATOM      7  C   UNL     1      -5.980 -10.308  17.909  0.00  0.00    +0.070 C 
ATOM      8  C   UNL     1      -5.276 -11.269  18.881  0.00  0.00    +0.028 C 
ATOM      9  C   UNL     1      -5.653 -10.857  16.514  0.00  0.00    +0.096 C 
ATOM     10  C   UNL     1      -4.618 -12.317  17.992  0.00  0.00    +0.085 C 
ENDROOT
BRANCH   7  11
ATOM      5  N   UNL     1      -8.058 -10.598  19.287  0.00  0.00    -0.342 N 
ATOM      6  N   UNL     1      -8.328  -9.572  17.334  0.00  0.00    -0.232 NA
ATOM     11  C   UNL     1      -7.464 -10.141  18.144  0.00  0.00    +0.113 A 
ATOM     14  C   UNL     1      -9.395 -10.304  19.211  0.00  0.00    +0.066 A 
ATOM     15  C   UNL     1      -9.539  -9.664  17.983  0.00  0.00    +0.089 A 
ATOM     18  C   UNL     1     -10.458 -10.536  20.084  0.00  0.00    +0.031 A 
ATOM     19  C   UNL     1     -10.812  -9.222  17.586  0.00  0.00    +0.030 A 
ATOM     20  C   UNL     1     -11.718 -10.090  19.673  0.00  0.00    -0.048 A 
ATOM     21  C   UNL     1     -11.895  -9.444  18.447  0.00  0.00    +0.005 A 
ATOM     25  C   UNL     1     -12.898 -10.307  20.564  0.00  0.00    +0.044 C 
ATOM     27  H   UNL     1      -7.597 -11.069  20.055  0.00  0.00    +0.167 HD
ENDBRANCH   7  11
BRANCH   4  12
ATOM     12  C   UNL     1      -4.083 -12.484  15.633  0.00  0.00    +0.119 C 
BRANCH  12  13
ATOM     13  C   UNL     1      -3.830 -11.725  14.357  0.00  0.00    -0.033 A 
ATOM     16  C   UNL     1      -2.650 -11.000  14.200  0.00  0.00    +0.005 A 
ATOM     17  C   UNL     1      -4.777 -11.748  13.332  0.00  0.00    +0.005 A 
ATOM     22  C   UNL     1      -2.415 -10.296  13.018  0.00  0.00    +0.012 A 
ATOM     23  C   UNL     1      -4.543 -11.045  12.151  0.00  0.00    +0.012 A 
ATOM     24  C   UNL     1      -3.362 -10.319  11.993  0.00  0.00    +0.055 A 
BRANCH  24  26
ATOM      1  F   UNL     1      -3.332 -10.309   9.602  0.00  0.00    -0.166 F 
ATOM      2  F   UNL     1      -1.822  -9.129  10.628  0.00  0.00    -0.166 F 
ATOM      3  F   UNL     1      -3.890  -8.459  10.586  0.00  0.00    -0.166 F 
ATOM     26  C   UNL     1      -3.109  -9.570  10.729  0.00  0.00    +0.417 C 
ENDBRANCH  24  26
ENDBRANCH  12  13
ENDBRANCH   4  12
TORSDOF 4
ENDMDL
MODEL 9
REMARK VINA RESULT:      -7.1     33.381     35.540
REMARK  Name = 45784222
REMARK  5 active torsions:
REMARK  status: ('A' for Active; 'I' for Inactive)
REMARK    1  A    between atoms: N_4  and  C_12
REMARK    2  A    between atoms: C_7  and  C_11
REMARK    3  A    between atoms: C_12  and  C_13
REMARK    4  A    between atoms: C_20  and  C_25
REMARK    5  A    between atoms: C_24  and  C_26
REMARK                            x       y       z     vdW  Elec       q    Type
REMARK                         _______ _______ _______ _____ _____    ______ ____
ROOT
ATOM      4  N   UNL     1      -9.500 -12.675  35.664  0.00  0.00    -0.297 NA
ATOM      7  C   UNL     1      -7.686 -11.298  36.223  0.00  0.00    +0.070 C 
ATOM      8  C   UNL     1      -7.169 -12.586  35.559  0.00  0.00    +0.028 C 
ATOM      9  C   UNL     1      -9.137 -11.615  36.607  0.00  0.00    +0.096 C 
ATOM     10  C   UNL     1      -8.337 -13.561  35.628  0.00  0.00    +0.085 C 
ENDROOT
BRANCH   7  11
ATOM      5  N   UNL     1      -6.865  -9.496  37.766  0.00  0.00    -0.342 N 
ATOM      6  N   UNL     1      -6.076 -11.537  38.157  0.00  0.00    -0.232 NA
ATOM     11  C   UNL     1      -6.860 -10.811  37.392  0.00  0.00    +0.113 A 
ATOM     14  C   UNL     1      -6.030  -9.365  38.845  0.00  0.00    +0.066 A 
ATOM     15  C   UNL     1      -5.550 -10.652  39.070  0.00  0.00    +0.089 A 
ATOM     18  C   UNL     1      -5.663  -8.264  39.620  0.00  0.00    +0.031 A 
ATOM     19  C   UNL     1      -4.650 -10.873  40.126  0.00  0.00    +0.030 A 
ATOM     20  C   UNL     1      -4.767  -8.502  40.667  0.00  0.00    -0.048 A 
ATOM     21  C   UNL     1      -4.268  -9.783  40.918  0.00  0.00    +0.005 A 
ATOM     25  C   UNL     1      -4.337  -7.365  41.535  0.00  0.00    +0.044 C 
ATOM     27  H   UNL     1      -7.390  -8.751  37.329  0.00  0.00    +0.167 HD
ENDBRANCH   7  11
BRANCH   4  12
ATOM     12  C   UNL     1     -10.716 -13.372  36.054  0.00  0.00    +0.119 C 
BRANCH  12  13
ATOM     13  C   UNL     1     -11.831 -13.151  35.065  0.00  0.00    -0.033 A 
ATOM     16  C   UNL     1     -12.666 -12.042  35.192  0.00  0.00    +0.005 A 
ATOM     17  C   UNL     1     -12.027 -14.056  34.021  0.00  0.00    +0.005 A 
ATOM     22  C   UNL     1     -13.698 -11.836  34.277  0.00  0.00    +0.012 A 
ATOM     23  C   UNL     1     -13.059 -13.851  33.105  0.00  0.00    +0.012 A 
ATOM     24  C   UNL     1     -13.894 -12.741  33.233  0.00  0.00    +0.055 A 
BRANCH  24  26
ATOM      1  F   UNL     1     -16.019 -13.418  32.367  0.00  0.00    -0.166 F 
ATOM      2  F   UNL     1     -14.572 -12.612  30.958  0.00  0.00    -0.166 F 
ATOM      3  F   UNL     1     -15.585 -11.293  32.359  0.00  0.00    -0.166 F 
ATOM     26  C   UNL     1     -14.996 -12.520  32.252  0.00  0.00    +0.417 C 
ENDBRANCH  24  26
ENDBRANCH  12  13
ENDBRANCH   4  12
TORSDOF 4
ENDMDL
MODEL 10
REMARK VINA RESULT:      -7.1     24.015     26.534
REMARK  Name = 45784222
REMARK  5 active torsions:
REMARK  status: ('A' for Active; 'I' for Inactive)
REMARK    1  A    between atoms: N_4  and  C_12
REMARK    2  A    between atoms: C_7  and  C_11
REMARK    3  A    between atoms: C_12  and  C_13
REMARK    4  A    between atoms: C_20  and  C_25
REMARK    5  A    between atoms: C_24  and  C_26
REMARK                            x       y       z     vdW  Elec       q    Type
REMARK                         _______ _______ _______ _____ _____    ______ ____
ROOT
ATOM      4  N   UNL     1     -11.348   9.162  17.074  0.00  0.00    -0.297 NA
ATOM      7  C   UNL     1     -10.882  11.339  16.337  0.00  0.00    +0.070 C 
ATOM      8  C   UNL     1     -11.349  10.483  15.148  0.00  0.00    +0.028 C 
ATOM      9  C   UNL     1     -10.532  10.323  17.433  0.00  0.00    +0.096 C 
ATOM     10  C   UNL     1     -11.213   9.041  15.622  0.00  0.00    +0.085 C 
ENDROOT
BRANCH   7  11
ATOM      5  N   UNL     1      -8.678  12.414  16.872  0.00  0.00    -0.342 N 
ATOM      6  N   UNL     1      -9.639  13.069  14.978  0.00  0.00    -0.232 NA
ATOM     11  C   UNL     1      -9.747  12.288  16.029  0.00  0.00    +0.113 A 
ATOM     14  C   UNL     1      -7.824  13.339  16.328  0.00  0.00    +0.066 A 
ATOM     15  C   UNL     1      -8.445  13.733  15.147  0.00  0.00    +0.089 A 
ATOM     18  C   UNL     1      -6.597  13.849  16.756  0.00  0.00    +0.031 A 
ATOM     19  C   UNL     1      -7.821  14.692  14.332  0.00  0.00    +0.030 A 
ATOM     20  C   UNL     1      -5.990  14.802  15.932  0.00  0.00    -0.048 A 
ATOM     21  C   UNL     1      -6.590  15.218  14.741  0.00  0.00    +0.005 A 
ATOM     25  C   UNL     1      -4.675  15.386  16.335  0.00  0.00    +0.044 C 
ATOM     27  H   UNL     1      -8.538  11.917  17.741  0.00  0.00    +0.167 HD
ENDBRANCH   7  11
BRANCH   4  12
ATOM     12  C   UNL     1     -10.932   7.954  17.770  0.00  0.00    +0.119 C 
BRANCH  12  13
ATOM     13  C   UNL     1     -11.876   7.599  18.889  0.00  0.00    -0.033 A 
ATOM     16  C   UNL     1     -11.391   6.979  20.040  0.00  0.00    +0.005 A 
ATOM     17  C   UNL     1     -13.236   7.890  18.773  0.00  0.00    +0.005 A 
ATOM     22  C   UNL     1     -12.265   6.650  21.076  0.00  0.00    +0.012 A 
ATOM     23  C   UNL     1     -14.110   7.561  19.808  0.00  0.00    +0.012 A 
ATOM     24  C   UNL     1     -13.625   6.941  20.960  0.00  0.00    +0.055 A 
BRANCH  24  26
ATOM      1  F   UNL     1     -14.998   7.676  22.775  0.00  0.00    -0.166 F 
ATOM      2  F   UNL     1     -13.993   5.760  22.990  0.00  0.00    -0.166 F 
ATOM      3  F   UNL     1     -15.693   5.957  21.650  0.00  0.00    -0.166 F 
ATOM     26  C   UNL     1     -14.559   6.592  22.069  0.00  0.00    +0.417 C 
ENDBRANCH  24  26
ENDBRANCH  12  13
ENDBRANCH   4  12
TORSDOF 4
ENDMDL
