MODEL 1
REMARK VINA RESULT:      -7.1      0.000      0.000
REMARK  Name = 23757048
REMARK  13 active torsions:
REMARK  status: ('A' for Active; 'I' for Inactive)
REMARK    1  A    between atoms: O_1  and  C_16
REMARK    2  A    between atoms: O_1  and  C_25
REMARK    3  A    between atoms: O_2  and  C_17
REMARK    4  A    between atoms: O_3  and  C_21
REMARK    5  A    between atoms: O_6  and  C_28
REMARK    6  A    between atoms: O_7  and  C_35
REMARK    7  A    between atoms: O_7  and  C_36
REMARK    8  A    between atoms: N_9  and  C_30
REMARK    9  A    between atoms: C_10  and  C_20
REMARK   10  A    between atoms: C_12  and  C_21
REMARK   11  A    between atoms: C_12  and  C_23
REMARK   12  A    between atoms: C_13  and  C_22
REMARK   13  A    between atoms: C_22  and  C_24
REMARK                            x       y       z     vdW  Elec       q    Type
REMARK                         _______ _______ _______ _____ _____    ______ ____
ROOT
ATOM     10  C   UNL     1       9.457   9.077   5.635  0.00  0.00    -0.023 C 
ATOM     11  C   UNL     1       9.605   8.410   7.049  0.00  0.00    +0.007 C 
ATOM     12  C   UNL     1      10.281   6.979   7.069  0.00  0.00    +0.031 C 
ATOM     13  C   UNL     1       8.603  10.403   5.799  0.00  0.00    +0.032 C 
ATOM     14  C   UNL     1       8.688   8.100   4.684  0.00  0.00    +0.011 C 
ATOM     15  C   UNL     1      10.193   9.388   8.089  0.00  0.00    +0.007 C 
ATOM     16  C   UNL     1       9.913   6.156   5.792  0.00  0.00    +0.186 C 
ATOM     17  C   UNL     1       9.126  11.360   6.897  0.00  0.00    +0.119 C 
ATOM     18  C   UNL     1       8.619   6.644   5.154  0.00  0.00    +0.046 C 
ATOM     19  C   UNL     1       9.332  10.642   8.226  0.00  0.00    +0.032 C 
ATOM     20  C   UNL     1      10.828   9.400   4.994  0.00  0.00    +0.012 C 
ATOM     23  C   UNL     1       9.690   6.205   8.285  0.00  0.00    +0.017 C 
ENDROOT
BRANCH  17   2
ATOM      2  O   UNL     1      10.351  11.986   6.531  0.00  0.00    -0.391 OA
ATOM     42  H   UNL     1      10.165  12.596   5.796  0.00  0.00    +0.210 HD
ENDBRANCH  17   2
BRANCH  16   1
ATOM      1  O   UNL     1      10.927   6.187   4.791  0.00  0.00    -0.446 OA
BRANCH   1  25
ATOM      5  O   UNL     1      10.496   4.026   4.182  0.00  0.00    -0.226 OA
ATOM      9  N   UNL     1      11.542   5.541   2.736  0.00  0.00    -0.251 N 
ATOM     25  C   UNL     1      10.947   5.133   3.914  0.00  0.00    +0.405 C 
ATOM     44  H   UNL     1      11.855   6.508   2.703  0.00  0.00    +0.158 HD
BRANCH   9  30
ATOM     30  C   UNL     1      11.769   4.779   1.567  0.00  0.00    +0.037 A 
ATOM     31  C   UNL     1      10.842   4.821   0.538  0.00  0.00    +0.027 A 
ATOM     32  C   UNL     1      12.915   4.004   1.473  0.00  0.00    +0.027 A 
ATOM     33  C   UNL     1      11.066   4.068  -0.615  0.00  0.00    +0.048 A 
ATOM     34  C   UNL     1      13.138   3.252   0.321  0.00  0.00    +0.048 A 
ATOM     35  C   UNL     1      12.214   3.284  -0.725  0.00  0.00    +0.129 A 
BRANCH  35   7
ATOM      7  O   UNL     1      12.433   2.551  -1.849  0.00  0.00    -0.456 OA
BRANCH   7  36
ATOM     36  C   UNL     1      11.516   2.665  -2.881  0.00  0.00    +0.128 A 
ATOM     37  C   UNL     1      10.367   1.896  -2.847  0.00  0.00    +0.046 A 
ATOM     38  C   UNL     1      11.775   3.543  -3.918  0.00  0.00    +0.046 A 
ATOM     39  C   UNL     1       9.443   2.010  -3.887  0.00  0.00    +0.004 A 
ATOM     40  C   UNL     1      10.851   3.656  -4.958  0.00  0.00    +0.004 A 
ATOM     41  C   UNL     1       9.686   2.890  -4.942  0.00  0.00    +0.000 A 
ENDBRANCH   7  36
ENDBRANCH  35   7
ENDBRANCH   9  30
ENDBRANCH   1  25
ENDBRANCH  16   1
BRANCH  12  21
ATOM     21  C   UNL     1      11.807   7.026   7.294  0.00  0.00    +0.166 C 
BRANCH  21   3
ATOM      3  O   UNL     1      12.230   5.732   7.664  0.00  0.00    -0.394 OA
ATOM     43  H   UNL     1      12.343   5.220   6.845  0.00  0.00    +0.209 HD
ENDBRANCH  21   3
ENDBRANCH  12  21
BRANCH  13  22
ATOM     22  C   UNL     1       8.371  11.171   4.487  0.00  0.00    +0.102 C 
BRANCH  22  24
ATOM      4  O   UNL     1       6.331  12.231   5.111  0.00  0.00    -0.276 OA
ATOM      8  N   UNL     1       6.279  10.850   3.259  0.00  0.00    -0.299 N 
ATOM     24  C   UNL     1       6.902  11.472   4.326  0.00  0.00    +0.216 C 
ATOM     26  C   UNL     1       6.899   9.946   2.292  0.00  0.00    +0.139 C 
ATOM     27  C   UNL     1       4.866  11.045   2.968  0.00  0.00    +0.110 C 
ATOM     28  C   UNL     1       5.841   9.757   1.211  0.00  0.00    +0.133 C 
ATOM     29  C   UNL     1       4.529   9.953   1.962  0.00  0.00    +0.052 C 
BRANCH  28   6
ATOM      6  O   UNL     1       5.969  10.773   0.221  0.00  0.00    -0.390 OA
ATOM     45  H   UNL     1       5.292  10.607  -0.456  0.00  0.00    +0.210 HD
ENDBRANCH  28   6
ENDBRANCH  22  24
ENDBRANCH  13  22
TORSDOF 11
ENDMDL
MODEL 2
REMARK VINA RESULT:      -7.1     22.546     25.221
REMARK  Name = 23757048
REMARK  13 active torsions:
REMARK  status: ('A' for Active; 'I' for Inactive)
REMARK    1  A    between atoms: O_1  and  C_16
REMARK    2  A    between atoms: O_1  and  C_25
REMARK    3  A    between atoms: O_2  and  C_17
REMARK    4  A    between atoms: O_3  and  C_21
REMARK    5  A    between atoms: O_6  and  C_28
REMARK    6  A    between atoms: O_7  and  C_35
REMARK    7  A    between atoms: O_7  and  C_36
REMARK    8  A    between atoms: N_9  and  C_30
REMARK    9  A    between atoms: C_10  and  C_20
REMARK   10  A    between atoms: C_12  and  C_21
REMARK   11  A    between atoms: C_12  and  C_23
REMARK   12  A    between atoms: C_13  and  C_22
REMARK   13  A    between atoms: C_22  and  C_24
REMARK                            x       y       z     vdW  Elec       q    Type
REMARK                         _______ _______ _______ _____ _____    ______ ____
ROOT
ATOM     10  C   UNL     1      -8.712  -8.614   3.596  0.00  0.00    -0.023 C 
ATOM     11  C   UNL     1      -9.587  -8.433   4.888  0.00  0.00    +0.007 C 
ATOM     12  C   UNL     1      -8.859  -8.733   6.261  0.00  0.00    +0.031 C 
ATOM     13  C   UNL     1      -9.655  -8.451   2.332  0.00  0.00    +0.032 C 
ATOM     14  C   UNL     1      -8.104 -10.056   3.585  0.00  0.00    +0.011 C 
ATOM     15  C   UNL     1     -10.363  -7.099   4.876  0.00  0.00    +0.007 C 
ATOM     16  C   UNL     1      -7.815  -9.887   6.114  0.00  0.00    +0.186 C 
ATOM     17  C   UNL     1     -10.507  -7.159   2.342  0.00  0.00    +0.119 C 
ATOM     18  C   UNL     1      -8.130 -10.791   4.929  0.00  0.00    +0.046 C 
ATOM     19  C   UNL     1     -11.270  -6.990   3.651  0.00  0.00    +0.032 C 
ATOM     20  C   UNL     1      -7.548  -7.596   3.530  0.00  0.00    +0.012 C 
ATOM     23  C   UNL     1      -9.943  -9.234   7.260  0.00  0.00    +0.017 C 
ENDROOT
BRANCH  17   2
ATOM      2  O   UNL     1      -9.723  -5.992   2.126  0.00  0.00    -0.391 OA
ATOM     42  H   UNL     1      -9.071  -5.934   2.846  0.00  0.00    +0.210 HD
ENDBRANCH  17   2
BRANCH  16   1
ATOM      1  O   UNL     1      -6.477  -9.421   5.959  0.00  0.00    -0.446 OA
BRANCH   1  25
ATOM      5  O   UNL     1      -4.878 -11.031   6.234  0.00  0.00    -0.226 OA
ATOM      9  N   UNL     1      -5.413  -9.507   7.929  0.00  0.00    -0.251 N 
ATOM     25  C   UNL     1      -5.516 -10.084   6.677  0.00  0.00    +0.405 C 
ATOM     44  H   UNL     1      -6.033  -8.722   8.112  0.00  0.00    +0.158 HD
BRANCH   9  30
ATOM     30  C   UNL     1      -4.552  -9.874   8.988  0.00  0.00    +0.037 A 
ATOM     31  C   UNL     1      -3.706  -8.922   9.535  0.00  0.00    +0.027 A 
ATOM     32  C   UNL     1      -4.568 -11.178   9.457  0.00  0.00    +0.027 A 
ATOM     33  C   UNL     1      -2.854  -9.284  10.579  0.00  0.00    +0.048 A 
ATOM     34  C   UNL     1      -3.718 -11.539  10.500  0.00  0.00    +0.048 A 
ATOM     35  C   UNL     1      -2.860 -10.592  11.063  0.00  0.00    +0.129 A 
BRANCH  35   7
ATOM      7  O   UNL     1      -2.031 -10.945  12.082  0.00  0.00    -0.456 OA
BRANCH   7  36
ATOM     36  C   UNL     1      -2.513 -10.823  13.375  0.00  0.00    +0.128 A 
ATOM     37  C   UNL     1      -1.615 -10.772  14.425  0.00  0.00    +0.046 A 
ATOM     38  C   UNL     1      -3.879 -10.756  13.581  0.00  0.00    +0.046 A 
ATOM     39  C   UNL     1      -2.099 -10.650  15.728  0.00  0.00    +0.004 A 
ATOM     40  C   UNL     1      -4.364 -10.634  14.884  0.00  0.00    +0.004 A 
ATOM     41  C   UNL     1      -3.474 -10.580  15.957  0.00  0.00    +0.000 A 
ENDBRANCH   7  36
ENDBRANCH  35   7
ENDBRANCH   9  30
ENDBRANCH   1  25
ENDBRANCH  16   1
BRANCH  12  21
ATOM     21  C   UNL     1      -8.231  -7.479   6.908  0.00  0.00    +0.166 C 
BRANCH  21   3
ATOM      3  O   UNL     1      -7.781  -7.836   8.196  0.00  0.00    -0.394 OA
ATOM     43  H   UNL     1      -7.006  -8.412   8.083  0.00  0.00    +0.209 HD
ENDBRANCH  21   3
ENDBRANCH  12  21
BRANCH  13  22
ATOM     22  C   UNL     1      -8.934  -8.605   0.982  0.00  0.00    +0.102 C 
BRANCH  22  24
ATOM      4  O   UNL     1     -10.683 -10.160   0.538  0.00  0.00    -0.276 OA
ATOM      8  N   UNL     1      -9.250  -9.658  -1.204  0.00  0.00    -0.299 N 
ATOM     24  C   UNL     1      -9.709  -9.549   0.097  0.00  0.00    +0.216 C 
ATOM     26  C   UNL     1      -8.107  -8.958  -1.789  0.00  0.00    +0.139 C 
ATOM     27  C   UNL     1      -9.894 -10.522  -2.182  0.00  0.00    +0.110 C 
ATOM     28  C   UNL     1      -8.202  -9.249  -3.282  0.00  0.00    +0.133 C 
ATOM     29  C   UNL     1      -8.903 -10.602  -3.335  0.00  0.00    +0.052 C 
BRANCH  28   6
ATOM      6  O   UNL     1      -9.021  -8.273  -3.918  0.00  0.00    -0.390 OA
ATOM     45  H   UNL     1      -8.451  -7.758  -4.513  0.00  0.00    +0.210 HD
ENDBRANCH  28   6
ENDBRANCH  22  24
ENDBRANCH  13  22
TORSDOF 11
ENDMDL
MODEL 3
REMARK VINA RESULT:      -7.1      4.303      8.733
REMARK  Name = 23757048
REMARK  13 active torsions:
REMARK  status: ('A' for Active; 'I' for Inactive)
REMARK    1  A    between atoms: O_1  and  C_16
REMARK    2  A    between atoms: O_1  and  C_25
REMARK    3  A    between atoms: O_2  and  C_17
REMARK    4  A    between atoms: O_3  and  C_21
REMARK    5  A    between atoms: O_6  and  C_28
REMARK    6  A    between atoms: O_7  and  C_35
REMARK    7  A    between atoms: O_7  and  C_36
REMARK    8  A    between atoms: N_9  and  C_30
REMARK    9  A    between atoms: C_10  and  C_20
REMARK   10  A    between atoms: C_12  and  C_21
REMARK   11  A    between atoms: C_12  and  C_23
REMARK   12  A    between atoms: C_13  and  C_22
REMARK   13  A    between atoms: C_22  and  C_24
REMARK                            x       y       z     vdW  Elec       q    Type
REMARK                         _______ _______ _______ _____ _____    ______ ____
ROOT
ATOM     10  C   UNL     1      12.330   5.393   0.311  0.00  0.00    -0.023 C 
ATOM     11  C   UNL     1      12.739   4.071  -0.433  0.00  0.00    +0.007 C 
ATOM     12  C   UNL     1      12.298   3.970  -1.950  0.00  0.00    +0.031 C 
ATOM     13  C   UNL     1      12.692   5.230   1.846  0.00  0.00    +0.032 C 
ATOM     14  C   UNL     1      10.785   5.599   0.180  0.00  0.00    +0.011 C 
ATOM     15  C   UNL     1      14.220   3.709  -0.192  0.00  0.00    +0.007 C 
ATOM     16  C   UNL     1      10.924   4.675  -2.194  0.00  0.00    +0.186 C 
ATOM     17  C   UNL     1      14.150   4.783   2.108  0.00  0.00    +0.119 C 
ATOM     18  C   UNL     1      10.101   4.775  -0.916  0.00  0.00    +0.046 C 
ATOM     19  C   UNL     1      14.521   3.546   1.297  0.00  0.00    +0.032 C 
ATOM     20  C   UNL     1      13.038   6.638  -0.276  0.00  0.00    +0.012 C 
ATOM     23  C   UNL     1      12.089   2.460  -2.271  0.00  0.00    +0.017 C 
ENDROOT
BRANCH  17   2
ATOM      2  O   UNL     1      15.092   5.809   1.815  0.00  0.00    -0.391 OA
ATOM     42  H   UNL     1      15.504   6.082   2.653  0.00  0.00    +0.210 HD
ENDBRANCH  17   2
BRANCH  16   1
ATOM      1  O   UNL     1      11.053   5.990  -2.729  0.00  0.00    -0.446 OA
BRANCH   1  25
ATOM      5  O   UNL     1       9.669   7.770  -3.108  0.00  0.00    -0.226 OA
ATOM      9  N   UNL     1       9.103   5.593  -3.756  0.00  0.00    -0.251 N 
ATOM     25  C   UNL     1       9.903   6.571  -3.197  0.00  0.00    +0.405 C 
ATOM     44  H   UNL     1       9.472   4.646  -3.736  0.00  0.00    +0.158 HD
BRANCH   9  30
ATOM     30  C   UNL     1       7.831   5.746  -4.356  0.00  0.00    +0.037 A 
ATOM     31  C   UNL     1       6.768   6.195  -3.588  0.00  0.00    +0.027 A 
ATOM     32  C   UNL     1       7.673   5.444  -5.699  0.00  0.00    +0.027 A 
ATOM     33  C   UNL     1       5.513   6.344  -4.179  0.00  0.00    +0.048 A 
ATOM     34  C   UNL     1       6.419   5.594  -6.290  0.00  0.00    +0.048 A 
ATOM     35  C   UNL     1       5.338   6.045  -5.530  0.00  0.00    +0.129 A 
BRANCH  35   7
ATOM      7  O   UNL     1       4.116   6.192  -6.107  0.00  0.00    -0.456 OA
BRANCH   7  36
ATOM     36  C   UNL     1       3.064   5.457  -5.585  0.00  0.00    +0.128 A 
ATOM     37  C   UNL     1       3.150   4.076  -5.573  0.00  0.00    +0.046 A 
ATOM     38  C   UNL     1       1.956   6.122  -5.092  0.00  0.00    +0.046 A 
ATOM     39  C   UNL     1       2.090   3.335  -5.048  0.00  0.00    +0.004 A 
ATOM     40  C   UNL     1       0.897   5.381  -4.567  0.00  0.00    +0.004 A 
ATOM     41  C   UNL     1       0.964   3.988  -4.545  0.00  0.00    +0.000 A 
ENDBRANCH   7  36
ENDBRANCH  35   7
ENDBRANCH   9  30
ENDBRANCH   1  25
ENDBRANCH  16   1
BRANCH  12  21
ATOM     21  C   UNL     1      13.375   4.470  -2.936  0.00  0.00    +0.166 C 
BRANCH  21   3
ATOM      3  O   UNL     1      13.649   3.427  -3.844  0.00  0.00    -0.394 OA
ATOM     43  H   UNL     1      12.827   3.246  -4.333  0.00  0.00    +0.209 HD
ENDBRANCH  21   3
ENDBRANCH  12  21
BRANCH  13  22
ATOM     22  C   UNL     1      12.345   6.454   2.710  0.00  0.00    +0.102 C 
BRANCH  22  24
ATOM      4  O   UNL     1      10.410   5.374   3.584  0.00  0.00    -0.276 OA
ATOM      8  N   UNL     1      11.783   6.462   5.092  0.00  0.00    -0.299 N 
ATOM     24  C   UNL     1      11.416   6.043   3.825  0.00  0.00    +0.216 C 
ATOM     26  C   UNL     1      12.963   7.250   5.444  0.00  0.00    +0.139 C 
ATOM     27  C   UNL     1      10.994   6.140   6.272  0.00  0.00    +0.110 C 
ATOM     28  C   UNL     1      13.009   7.212   6.967  0.00  0.00    +0.133 C 
ATOM     29  C   UNL     1      11.546   7.049   7.362  0.00  0.00    +0.052 C 
BRANCH  28   6
ATOM      6  O   UNL     1      13.742   6.072   7.404  0.00  0.00    -0.390 OA
ATOM     45  H   UNL     1      13.798   5.457   6.653  0.00  0.00    +0.210 HD
ENDBRANCH  28   6
ENDBRANCH  22  24
ENDBRANCH  13  22
TORSDOF 11
ENDMDL
MODEL 4
REMARK VINA RESULT:      -7.0     27.057     30.373
REMARK  Name = 23757048
REMARK  13 active torsions:
REMARK  status: ('A' for Active; 'I' for Inactive)
REMARK    1  A    between atoms: O_1  and  C_16
REMARK    2  A    between atoms: O_1  and  C_25
REMARK    3  A    between atoms: O_2  and  C_17
REMARK    4  A    between atoms: O_3  and  C_21
REMARK    5  A    between atoms: O_6  and  C_28
REMARK    6  A    between atoms: O_7  and  C_35
REMARK    7  A    between atoms: O_7  and  C_36
REMARK    8  A    between atoms: N_9  and  C_30
REMARK    9  A    between atoms: C_10  and  C_20
REMARK   10  A    between atoms: C_12  and  C_21
REMARK   11  A    between atoms: C_12  and  C_23
REMARK   12  A    between atoms: C_13  and  C_22
REMARK   13  A    between atoms: C_22  and  C_24
REMARK                            x       y       z     vdW  Elec       q    Type
REMARK                         _______ _______ _______ _____ _____    ______ ____
ROOT
ATOM     10  C   UNL     1      -6.333 -11.035  15.849  0.00  0.00    -0.023 C 
ATOM     11  C   UNL     1      -5.631 -10.732  17.221  0.00  0.00    +0.007 C 
ATOM     12  C   UNL     1      -6.550 -10.844  18.505  0.00  0.00    +0.031 C 
ATOM     13  C   UNL     1      -5.313 -10.695  14.684  0.00  0.00    +0.032 C 
ATOM     14  C   UNL     1      -7.590 -10.115  15.700  0.00  0.00    +0.011 C 
ATOM     15  C   UNL     1      -4.284 -11.472  17.356  0.00  0.00    +0.007 C 
ATOM     16  C   UNL     1      -8.015 -10.396  18.200  0.00  0.00    +0.186 C 
ATOM     17  C   UNL     1      -3.926 -11.360  14.844  0.00  0.00    +0.119 C 
ATOM     18  C   UNL     1      -8.087  -9.465  16.996  0.00  0.00    +0.046 C 
ATOM     19  C   UNL     1      -3.327 -11.104  16.223  0.00  0.00    +0.032 C 
ATOM     20  C   UNL     1      -6.795 -12.509  15.742  0.00  0.00    +0.012 C 
ATOM     23  C   UNL     1      -5.989  -9.849  19.564  0.00  0.00    +0.017 C 
ENDROOT
BRANCH  17   2
ATOM      2  O   UNL     1      -3.971 -12.766  14.630  0.00  0.00    -0.391 OA
ATOM     42  H   UNL     1      -3.696 -13.202  15.455  0.00  0.00    +0.210 HD
ENDBRANCH  17   2
BRANCH  16   1
ATOM      1  O   UNL     1      -8.899 -11.487  17.956  0.00  0.00    -0.446 OA
BRANCH   1  25
ATOM      5  O   UNL     1     -10.206 -12.375  19.609  0.00  0.00    -0.226 OA
ATOM      9  N   UNL     1     -10.881 -10.519  18.351  0.00  0.00    -0.251 N 
ATOM     25  C   UNL     1     -10.029 -11.538  18.732  0.00  0.00    +0.405 C 
ATOM     44  H   UNL     1     -10.555  -9.921  17.597  0.00  0.00    +0.158 HD
BRANCH   9  30
ATOM     30  C   UNL     1     -12.152 -10.204  18.883  0.00  0.00    +0.037 A 
ATOM     31  C   UNL     1     -13.250 -10.162  18.038  0.00  0.00    +0.027 A 
ATOM     32  C   UNL     1     -12.276  -9.940  20.238  0.00  0.00    +0.027 A 
ATOM     33  C   UNL     1     -14.504  -9.849  18.562  0.00  0.00    +0.048 A 
ATOM     34  C   UNL     1     -13.529  -9.628  20.762  0.00  0.00    +0.048 A 
ATOM     35  C   UNL     1     -14.645  -9.582  19.924  0.00  0.00    +0.129 A 
BRANCH  35   7
ATOM      7  O   UNL     1     -15.868  -9.279  20.436  0.00  0.00    -0.456 OA
BRANCH   7  36
ATOM     36  C   UNL     1     -16.220  -7.941  20.511  0.00  0.00    +0.128 A 
ATOM     37  C   UNL     1     -16.687  -7.304  19.375  0.00  0.00    +0.046 A 
ATOM     38  C   UNL     1     -16.095  -7.278  21.718  0.00  0.00    +0.046 A 
ATOM     39  C   UNL     1     -17.041  -5.956  19.450  0.00  0.00    +0.004 A 
ATOM     40  C   UNL     1     -16.449  -5.930  21.792  0.00  0.00    +0.004 A 
ATOM     41  C   UNL     1     -16.923  -5.270  20.659  0.00  0.00    +0.000 A 
ENDBRANCH   7  36
ENDBRANCH  35   7
ENDBRANCH   9  30
ENDBRANCH   1  25
ENDBRANCH  16   1
BRANCH  12  21
ATOM     21  C   UNL     1      -6.509 -12.238  19.167  0.00  0.00    +0.166 C 
BRANCH  21   3
ATOM      3  O   UNL     1      -7.204 -12.156  20.391  0.00  0.00    -0.394 OA
ATOM     43  H   UNL     1      -6.600 -11.755  21.040  0.00  0.00    +0.209 HD
ENDBRANCH  21   3
ENDBRANCH  12  21
BRANCH  13  22
ATOM     22  C   UNL     1      -5.865 -10.942  13.270  0.00  0.00    +0.102 C 
BRANCH  22  24
ATOM      4  O   UNL     1      -6.655  -8.746  12.793  0.00  0.00    -0.276 OA
ATOM      8  N   UNL     1      -4.956  -9.569  11.459  0.00  0.00    -0.299 N 
ATOM     24  C   UNL     1      -5.873  -9.649  12.493  0.00  0.00    +0.216 C 
ATOM     26  C   UNL     1      -4.000 -10.600  11.057  0.00  0.00    +0.139 C 
ATOM     27  C   UNL     1      -4.836  -8.384  10.622  0.00  0.00    +0.110 C 
ATOM     28  C   UNL     1      -3.088  -9.906  10.052  0.00  0.00    +0.133 C 
ATOM     29  C   UNL     1      -3.984  -8.834   9.443  0.00  0.00    +0.052 C 
BRANCH  28   6
ATOM      6  O   UNL     1      -2.004  -9.280  10.729  0.00  0.00    -0.390 OA
ATOM     45  H   UNL     1      -1.513  -9.975  11.200  0.00  0.00    +0.210 HD
ENDBRANCH  28   6
ENDBRANCH  22  24
ENDBRANCH  13  22
TORSDOF 11
ENDMDL
MODEL 5
REMARK VINA RESULT:      -7.0     26.576     30.838
REMARK  Name = 23757048
REMARK  13 active torsions:
REMARK  status: ('A' for Active; 'I' for Inactive)
REMARK    1  A    between atoms: O_1  and  C_16
REMARK    2  A    between atoms: O_1  and  C_25
REMARK    3  A    between atoms: O_2  and  C_17
REMARK    4  A    between atoms: O_3  and  C_21
REMARK    5  A    between atoms: O_6  and  C_28
REMARK    6  A    between atoms: O_7  and  C_35
REMARK    7  A    between atoms: O_7  and  C_36
REMARK    8  A    between atoms: N_9  and  C_30
REMARK    9  A    between atoms: C_10  and  C_20
REMARK   10  A    between atoms: C_12  and  C_21
REMARK   11  A    between atoms: C_12  and  C_23
REMARK   12  A    between atoms: C_13  and  C_22
REMARK   13  A    between atoms: C_22  and  C_24
REMARK                            x       y       z     vdW  Elec       q    Type
REMARK                         _______ _______ _______ _____ _____    ______ ____
ROOT
ATOM     10  C   UNL     1     -12.433   8.760  18.110  0.00  0.00    -0.023 C 
ATOM     11  C   UNL     1     -12.741   9.898  19.147  0.00  0.00    +0.007 C 
ATOM     12  C   UNL     1     -13.575   9.464  20.420  0.00  0.00    +0.031 C 
ATOM     13  C   UNL     1     -11.760   9.419  16.835  0.00  0.00    +0.032 C 
ATOM     14  C   UNL     1     -13.775   8.084  17.675  0.00  0.00    +0.011 C 
ATOM     15  C   UNL     1     -11.483  10.728  19.483  0.00  0.00    +0.007 C 
ATOM     16  C   UNL     1     -14.614   8.351  20.069  0.00  0.00    +0.186 C 
ATOM     17  C   UNL     1     -10.547  10.324  17.157  0.00  0.00    +0.119 C 
ATOM     18  C   UNL     1     -14.975   8.354  18.590  0.00  0.00    +0.046 C 
ATOM     19  C   UNL     1     -10.876  11.356  18.230  0.00  0.00    +0.032 C 
ATOM     20  C   UNL     1     -11.507   7.667  18.698  0.00  0.00    +0.012 C 
ATOM     23  C   UNL     1     -14.390  10.707  20.885  0.00  0.00    +0.017 C 
ENDROOT
BRANCH  17   2
ATOM      2  O   UNL     1      -9.413   9.578  17.586  0.00  0.00    -0.391 OA
ATOM     42  H   UNL     1      -9.289   8.841  16.964  0.00  0.00    +0.210 HD
ENDBRANCH  17   2
BRANCH  16   1
ATOM      1  O   UNL     1     -14.168   7.039  20.403  0.00  0.00    -0.446 OA
BRANCH   1  25
ATOM      5  O   UNL     1     -15.995   5.666  20.464  0.00  0.00    -0.226 OA
ATOM      9  N   UNL     1     -14.766   6.187  22.386  0.00  0.00    -0.251 N 
ATOM     25  C   UNL     1     -15.075   6.232  21.041  0.00  0.00    +0.405 C 
ATOM     44  H   UNL     1     -13.956   6.728  22.679  0.00  0.00    +0.158 HD
BRANCH   9  30
ATOM     30  C   UNL     1     -15.436   5.478  23.410  0.00  0.00    +0.037 A 
ATOM     31  C   UNL     1     -16.560   6.036  23.998  0.00  0.00    +0.027 A 
ATOM     32  C   UNL     1     -14.955   4.240  23.807  0.00  0.00    +0.027 A 
ATOM     33  C   UNL     1     -17.220   5.338  25.010  0.00  0.00    +0.048 A 
ATOM     34  C   UNL     1     -15.616   3.543  24.816  0.00  0.00    +0.048 A 
ATOM     35  C   UNL     1     -16.749   4.091  25.419  0.00  0.00    +0.129 A 
BRANCH  35   7
ATOM      7  O   UNL     1     -17.394   3.409  26.403  0.00  0.00    -0.456 OA
BRANCH   7  36
ATOM     36  C   UNL     1     -16.648   2.999  27.496  0.00  0.00    +0.128 A 
ATOM     37  C   UNL     1     -16.491   1.646  27.734  0.00  0.00    +0.046 A 
ATOM     38  C   UNL     1     -16.082   3.954  28.322  0.00  0.00    +0.046 A 
ATOM     39  C   UNL     1     -15.741   1.232  28.836  0.00  0.00    +0.004 A 
ATOM     40  C   UNL     1     -15.333   3.540  29.424  0.00  0.00    +0.004 A 
ATOM     41  C   UNL     1     -15.162   2.180  29.680  0.00  0.00    +0.000 A 
ENDBRANCH   7  36
ENDBRANCH  35   7
ENDBRANCH   9  30
ENDBRANCH   1  25
ENDBRANCH  16   1
BRANCH  12  21
ATOM     21  C   UNL     1     -12.693   9.060  21.621  0.00  0.00    +0.166 C 
BRANCH  21   3
ATOM      3  O   UNL     1     -13.531   8.928  22.748  0.00  0.00    -0.394 OA
ATOM     43  H   UNL     1     -13.825   9.821  22.996  0.00  0.00    +0.209 HD
ENDBRANCH  21   3
ENDBRANCH  12  21
BRANCH  13  22
ATOM     22  C   UNL     1     -11.399   8.419  15.723  0.00  0.00    +0.102 C 
BRANCH  22  24
ATOM      4  O   UNL     1     -11.207   9.847  13.826  0.00  0.00    -0.276 OA
ATOM      8  N   UNL     1     -12.997   8.386  13.870  0.00  0.00    -0.299 N 
ATOM     24  C   UNL     1     -11.849   8.959  14.388  0.00  0.00    +0.216 C 
ATOM     26  C   UNL     1     -13.799   7.328  14.483  0.00  0.00    +0.139 C 
ATOM     27  C   UNL     1     -13.555   8.795  12.589  0.00  0.00    +0.110 C 
ATOM     28  C   UNL     1     -14.782   6.913  13.394  0.00  0.00    +0.133 C 
ATOM     29  C   UNL     1     -14.948   8.181  12.565  0.00  0.00    +0.052 C 
BRANCH  28   6
ATOM      6  O   UNL     1     -14.208   5.895  12.582  0.00  0.00    -0.390 OA
ATOM     45  H   UNL     1     -14.192   6.225  11.668  0.00  0.00    +0.210 HD
ENDBRANCH  28   6
ENDBRANCH  22  24
ENDBRANCH  13  22
TORSDOF 11
ENDMDL
MODEL 6
REMARK VINA RESULT:      -6.9     26.444     29.456
REMARK  Name = 23757048
REMARK  13 active torsions:
REMARK  status: ('A' for Active; 'I' for Inactive)
REMARK    1  A    between atoms: O_1  and  C_16
REMARK    2  A    between atoms: O_1  and  C_25
REMARK    3  A    between atoms: O_2  and  C_17
REMARK    4  A    between atoms: O_3  and  C_21
REMARK    5  A    between atoms: O_6  and  C_28
REMARK    6  A    between atoms: O_7  and  C_35
REMARK    7  A    between atoms: O_7  and  C_36
REMARK    8  A    between atoms: N_9  and  C_30
REMARK    9  A    between atoms: C_10  and  C_20
REMARK   10  A    between atoms: C_12  and  C_21
REMARK   11  A    between atoms: C_12  and  C_23
REMARK   12  A    between atoms: C_13  and  C_22
REMARK   13  A    between atoms: C_22  and  C_24
REMARK                            x       y       z     vdW  Elec       q    Type
REMARK                         _______ _______ _______ _____ _____    ______ ____
ROOT
ATOM     10  C   UNL     1      -8.790 -11.093  17.753  0.00  0.00    -0.023 C 
ATOM     11  C   UNL     1      -9.585 -11.113  19.107  0.00  0.00    +0.007 C 
ATOM     12  C   UNL     1     -11.048 -10.511  19.057  0.00  0.00    +0.031 C 
ATOM     13  C   UNL     1      -7.304 -11.561  18.044  0.00  0.00    +0.032 C 
ATOM     14  C   UNL     1      -8.756  -9.629  17.200  0.00  0.00    +0.011 C 
ATOM     15  C   UNL     1      -9.506 -12.490  19.802  0.00  0.00    +0.007 C 
ATOM     16  C   UNL     1     -11.139  -9.316  18.053  0.00  0.00    +0.186 C 
ATOM     17  C   UNL     1      -7.201 -12.898  18.816  0.00  0.00    +0.119 C 
ATOM     18  C   UNL     1      -9.781  -8.670  17.813  0.00  0.00    +0.046 C 
ATOM     19  C   UNL     1      -8.058 -12.894  20.077  0.00  0.00    +0.032 C 
ATOM     20  C   UNL     1      -9.437 -12.003  16.681  0.00  0.00    +0.012 C 
ATOM     23  C   UNL     1     -11.360  -9.933  20.470  0.00  0.00    +0.017 C 
ENDROOT
BRANCH  17   2
ATOM      2  O   UNL     1      -7.582 -14.014  18.019  0.00  0.00    -0.391 OA
ATOM     42  H   UNL     1      -6.774 -14.502  17.785  0.00  0.00    +0.210 HD
ENDBRANCH  17   2
BRANCH  16   1
ATOM      1  O   UNL     1     -11.673  -9.686  16.784  0.00  0.00    -0.446 OA
BRANCH   1  25
ATOM      5  O   UNL     1     -13.757  -8.777  16.546  0.00  0.00    -0.226 OA
ATOM      9  N   UNL     1     -11.926  -8.036  15.291  0.00  0.00    -0.251 N 
ATOM     25  C   UNL     1     -12.575  -8.816  16.228  0.00  0.00    +0.405 C 
ATOM     44  H   UNL     1     -10.933  -8.217  15.166  0.00  0.00    +0.158 HD
BRANCH   9  30
ATOM     30  C   UNL     1     -12.472  -7.013  14.481  0.00  0.00    +0.037 A 
ATOM     31  C   UNL     1     -13.240  -7.355  13.380  0.00  0.00    +0.027 A 
ATOM     32  C   UNL     1     -12.225  -5.687  14.804  0.00  0.00    +0.027 A 
ATOM     33  C   UNL     1     -13.777  -6.346  12.581  0.00  0.00    +0.048 A 
ATOM     34  C   UNL     1     -12.763  -4.679  14.005  0.00  0.00    +0.048 A 
ATOM     35  C   UNL     1     -13.539  -5.008  12.893  0.00  0.00    +0.129 A 
BRANCH  35   7
ATOM      7  O   UNL     1     -14.064  -4.024  12.115  0.00  0.00    -0.456 OA
BRANCH   7  36
ATOM     36  C   UNL     1     -13.416  -3.728  10.927  0.00  0.00    +0.128 A 
ATOM     37  C   UNL     1     -12.034  -3.744  10.892  0.00  0.00    +0.046 A 
ATOM     38  C   UNL     1     -14.168  -3.422   9.807  0.00  0.00    +0.046 A 
ATOM     39  C   UNL     1     -11.380  -3.445   9.696  0.00  0.00    +0.004 A 
ATOM     40  C   UNL     1     -13.515  -3.122   8.611  0.00  0.00    +0.004 A 
ATOM     41  C   UNL     1     -12.122  -3.134   8.555  0.00  0.00    +0.000 A 
ENDBRANCH   7  36
ENDBRANCH  35   7
ENDBRANCH   9  30
ENDBRANCH   1  25
ENDBRANCH  16   1
BRANCH  12  21
ATOM     21  C   UNL     1     -12.138 -11.569  18.780  0.00  0.00    +0.166 C 
BRANCH  21   3
ATOM      3  O   UNL     1     -13.390 -10.921  18.817  0.00  0.00    -0.394 OA
ATOM     43  H   UNL     1     -13.477 -10.412  17.993  0.00  0.00    +0.209 HD
ENDBRANCH  21   3
ENDBRANCH  12  21
BRANCH  13  22
ATOM     22  C   UNL     1      -6.396 -11.590  16.802  0.00  0.00    +0.102 C 
BRANCH  22  24
ATOM      4  O   UNL     1      -4.868 -10.442  18.223  0.00  0.00    -0.276 OA
ATOM      8  N   UNL     1      -4.069 -11.162  16.178  0.00  0.00    -0.299 N 
ATOM     24  C   UNL     1      -5.048 -11.007  17.144  0.00  0.00    +0.216 C 
ATOM     26  C   UNL     1      -4.217 -11.825  14.883  0.00  0.00    +0.139 C 
ATOM     27  C   UNL     1      -2.715 -10.661  16.361  0.00  0.00    +0.110 C 
ATOM     28  C   UNL     1      -2.797 -11.928  14.340  0.00  0.00    +0.133 C 
ATOM     29  C   UNL     1      -2.088 -10.737  14.975  0.00  0.00    +0.052 C 
BRANCH  28   6
ATOM      6  O   UNL     1      -2.187 -13.132  14.794  0.00  0.00    -0.390 OA
ATOM     45  H   UNL     1      -2.081 -13.059  15.758  0.00  0.00    +0.210 HD
ENDBRANCH  28   6
ENDBRANCH  22  24
ENDBRANCH  13  22
TORSDOF 11
ENDMDL
MODEL 7
REMARK VINA RESULT:      -6.8     25.778     27.851
REMARK  Name = 23757048
REMARK  13 active torsions:
REMARK  status: ('A' for Active; 'I' for Inactive)
REMARK    1  A    between atoms: O_1  and  C_16
REMARK    2  A    between atoms: O_1  and  C_25
REMARK    3  A    between atoms: O_2  and  C_17
REMARK    4  A    between atoms: O_3  and  C_21
REMARK    5  A    between atoms: O_6  and  C_28
REMARK    6  A    between atoms: O_7  and  C_35
REMARK    7  A    between atoms: O_7  and  C_36
REMARK    8  A    between atoms: N_9  and  C_30
REMARK    9  A    between atoms: C_10  and  C_20
REMARK   10  A    between atoms: C_12  and  C_21
REMARK   11  A    between atoms: C_12  and  C_23
REMARK   12  A    between atoms: C_13  and  C_22
REMARK   13  A    between atoms: C_22  and  C_24
REMARK                            x       y       z     vdW  Elec       q    Type
REMARK                         _______ _______ _______ _____ _____    ______ ____
ROOT
ATOM     10  C   UNL     1      -7.021 -11.293  17.466  0.00  0.00    -0.023 C 
ATOM     11  C   UNL     1      -5.564 -11.785  17.146  0.00  0.00    +0.007 C 
ATOM     12  C   UNL     1      -5.073 -11.564  15.657  0.00  0.00    +0.031 C 
ATOM     13  C   UNL     1      -7.391 -11.762  18.934  0.00  0.00    +0.032 C 
ATOM     14  C   UNL     1      -8.019 -11.958  16.461  0.00  0.00    +0.011 C 
ATOM     15  C   UNL     1      -4.549 -11.312  18.210  0.00  0.00    +0.007 C 
ATOM     16  C   UNL     1      -6.249 -11.720  14.640  0.00  0.00    +0.186 C 
ATOM     17  C   UNL     1      -6.344 -11.372  20.005  0.00  0.00    +0.119 C 
ATOM     18  C   UNL     1      -7.384 -12.564  15.206  0.00  0.00    +0.046 C 
ATOM     19  C   UNL     1      -4.935 -11.798  19.605  0.00  0.00    +0.032 C 
ATOM     20  C   UNL     1      -7.160  -9.756  17.344  0.00  0.00    +0.012 C 
ATOM     23  C   UNL     1      -4.050 -12.693  15.335  0.00  0.00    +0.017 C 
ENDROOT
BRANCH  17   2
ATOM      2  O   UNL     1      -6.332  -9.973  20.267  0.00  0.00    -0.391 OA
ATOM     42  H   UNL     1      -6.249  -9.512  19.414  0.00  0.00    +0.210 HD
ENDBRANCH  17   2
BRANCH  16   1
ATOM      1  O   UNL     1      -6.803 -10.474  14.224  0.00  0.00    -0.446 OA
BRANCH   1  25
ATOM      5  O   UNL     1      -7.780  -9.621  12.341  0.00  0.00    -0.226 OA
ATOM      9  N   UNL     1      -5.815 -10.892  12.257  0.00  0.00    -0.251 N 
ATOM     25  C   UNL     1      -6.883 -10.266  12.871  0.00  0.00    +0.405 C 
ATOM     44  H   UNL     1      -5.170 -11.382  12.871  0.00  0.00    +0.158 HD
BRANCH   9  30
ATOM     30  C   UNL     1      -5.507 -10.935  10.878  0.00  0.00    +0.037 A 
ATOM     31  C   UNL     1      -4.701  -9.949  10.331  0.00  0.00    +0.027 A 
ATOM     32  C   UNL     1      -6.020 -11.961  10.099  0.00  0.00    +0.027 A 
ATOM     33  C   UNL     1      -4.398  -9.991   8.970  0.00  0.00    +0.048 A 
ATOM     34  C   UNL     1      -5.717 -12.002   8.739  0.00  0.00    +0.048 A 
ATOM     35  C   UNL     1      -4.906 -11.017   8.174  0.00  0.00    +0.129 A 
BRANCH  35   7
ATOM      7  O   UNL     1      -4.610 -11.059   6.847  0.00  0.00    -0.456 OA
BRANCH   7  36
ATOM     36  C   UNL     1      -5.605 -10.698   5.953  0.00  0.00    +0.128 A 
ATOM     37  C   UNL     1      -6.332  -9.545   6.186  0.00  0.00    +0.046 A 
ATOM     38  C   UNL     1      -5.846 -11.502   4.854  0.00  0.00    +0.046 A 
ATOM     39  C   UNL     1      -7.336  -9.182   5.287  0.00  0.00    +0.004 A 
ATOM     40  C   UNL     1      -6.850 -11.139   3.955  0.00  0.00    +0.004 A 
ATOM     41  C   UNL     1      -7.594  -9.979   4.171  0.00  0.00    +0.000 A 
ENDBRANCH   7  36
ENDBRANCH  35   7
ENDBRANCH   9  30
ENDBRANCH   1  25
ENDBRANCH  16   1
BRANCH  12  21
ATOM     21  C   UNL     1      -4.317 -10.233  15.452  0.00  0.00    +0.166 C 
BRANCH  21   3
ATOM      3  O   UNL     1      -3.633 -10.310  14.222  0.00  0.00    -0.394 OA
ATOM     43  H   UNL     1      -2.912  -9.658  14.251  0.00  0.00    +0.209 HD
ENDBRANCH  21   3
ENDBRANCH  12  21
BRANCH  13  22
ATOM     22  C   UNL     1      -8.801 -11.352  19.392  0.00  0.00    +0.102 C 
BRANCH  22  24
ATOM      4  O   UNL     1      -8.895 -13.577  20.237  0.00  0.00    -0.276 OA
ATOM      8  N   UNL     1     -10.877 -12.390  20.167  0.00  0.00    -0.299 N 
ATOM     24  C   UNL     1      -9.516 -12.547  19.969  0.00  0.00    +0.216 C 
ATOM     26  C   UNL     1     -11.670 -11.197  19.876  0.00  0.00    +0.139 C 
ATOM     27  C   UNL     1     -11.706 -13.450  20.723  0.00  0.00    +0.110 C 
ATOM     28  C   UNL     1     -13.029 -11.476  20.505  0.00  0.00    +0.133 C 
ATOM     29  C   UNL     1     -13.135 -12.996  20.459  0.00  0.00    +0.052 C 
BRANCH  28   6
ATOM      6  O   UNL     1     -13.035 -11.048  21.863  0.00  0.00    -0.390 OA
ATOM     45  H   UNL     1     -12.125 -11.126  22.197  0.00  0.00    +0.210 HD
ENDBRANCH  28   6
ENDBRANCH  22  24
ENDBRANCH  13  22
TORSDOF 11
ENDMDL
MODEL 8
REMARK VINA RESULT:      -6.7     18.311     23.492
REMARK  Name = 23757048
REMARK  13 active torsions:
REMARK  status: ('A' for Active; 'I' for Inactive)
REMARK    1  A    between atoms: O_1  and  C_16
REMARK    2  A    between atoms: O_1  and  C_25
REMARK    3  A    between atoms: O_2  and  C_17
REMARK    4  A    between atoms: O_3  and  C_21
REMARK    5  A    between atoms: O_6  and  C_28
REMARK    6  A    between atoms: O_7  and  C_35
REMARK    7  A    between atoms: O_7  and  C_36
REMARK    8  A    between atoms: N_9  and  C_30
REMARK    9  A    between atoms: C_10  and  C_20
REMARK   10  A    between atoms: C_12  and  C_21
REMARK   11  A    between atoms: C_12  and  C_23
REMARK   12  A    between atoms: C_13  and  C_22
REMARK   13  A    between atoms: C_22  and  C_24
REMARK                            x       y       z     vdW  Elec       q    Type
REMARK                         _______ _______ _______ _____ _____    ______ ____
ROOT
ATOM     10  C   UNL     1      24.227   5.601  23.012  0.00  0.00    -0.023 C 
ATOM     11  C   UNL     1      25.046   4.389  22.439  0.00  0.00    +0.007 C 
ATOM     12  C   UNL     1      24.372   3.607  21.240  0.00  0.00    +0.031 C 
ATOM     13  C   UNL     1      24.970   6.133  24.307  0.00  0.00    +0.032 C 
ATOM     14  C   UNL     1      22.799   5.109  23.419  0.00  0.00    +0.011 C 
ATOM     15  C   UNL     1      26.523   4.760  22.186  0.00  0.00    +0.007 C 
ATOM     16  C   UNL     1      22.816   3.569  21.385  0.00  0.00    +0.186 C 
ATOM     17  C   UNL     1      26.474   6.431  24.097  0.00  0.00    +0.119 C 
ATOM     18  C   UNL     1      22.375   3.760  22.831  0.00  0.00    +0.046 C 
ATOM     19  C   UNL     1      27.203   5.252  23.462  0.00  0.00    +0.032 C 
ATOM     20  C   UNL     1      24.072   6.743  21.978  0.00  0.00    +0.012 C 
ATOM     23  C   UNL     1      24.864   2.131  21.315  0.00  0.00    +0.017 C 
ENDROOT
BRANCH  17   2
ATOM      2  O   UNL     1      26.690   7.581  23.288  0.00  0.00    -0.391 OA
ATOM     42  H   UNL     1      26.304   7.405  22.412  0.00  0.00    +0.210 HD
ENDBRANCH  17   2
BRANCH  16   1
ATOM      1  O   UNL     1      22.153   4.555  20.598  0.00  0.00    -0.446 OA
BRANCH   1  25
ATOM      5  O   UNL     1      20.209   3.353  20.520  0.00  0.00    -0.226 OA
ATOM      9  N   UNL     1      20.236   5.687  20.349  0.00  0.00    -0.251 N 
ATOM     25  C   UNL     1      20.791   4.430  20.490  0.00  0.00    +0.405 C 
ATOM     44  H   UNL     1      20.888   6.468  20.348  0.00  0.00    +0.158 HD
BRANCH   9  30
ATOM     30  C   UNL     1      18.870   6.024  20.207  0.00  0.00    +0.037 A 
ATOM     31  C   UNL     1      18.246   6.764  21.198  0.00  0.00    +0.027 A 
ATOM     32  C   UNL     1      18.182   5.607  19.078  0.00  0.00    +0.027 A 
ATOM     33  C   UNL     1      16.898   7.095  21.059  0.00  0.00    +0.048 A 
ATOM     34  C   UNL     1      16.835   5.939  18.938  0.00  0.00    +0.048 A 
ATOM     35  C   UNL     1      16.192   6.683  19.928  0.00  0.00    +0.129 A 
BRANCH  35   7
ATOM      7  O   UNL     1      14.879   7.007  19.791  0.00  0.00    -0.456 OA
BRANCH   7  36
ATOM     36  C   UNL     1      14.550   7.985  18.865  0.00  0.00    +0.128 A 
ATOM     37  C   UNL     1      13.955   7.611  17.674  0.00  0.00    +0.046 A 
ATOM     38  C   UNL     1      14.828   9.308  19.157  0.00  0.00    +0.046 A 
ATOM     39  C   UNL     1      13.626   8.596  16.742  0.00  0.00    +0.004 A 
ATOM     40  C   UNL     1      14.499  10.292  18.224  0.00  0.00    +0.004 A 
ATOM     41  C   UNL     1      13.897   9.936  17.017  0.00  0.00    +0.000 A 
ENDBRANCH   7  36
ENDBRANCH  35   7
ENDBRANCH   9  30
ENDBRANCH   1  25
ENDBRANCH  16   1
BRANCH  12  21
ATOM     21  C   UNL     1      24.799   4.128  19.851  0.00  0.00    +0.166 C 
BRANCH  21   3
ATOM      3  O   UNL     1      24.410   3.172  18.891  0.00  0.00    -0.394 OA
ATOM     43  H   UNL     1      24.514   2.295  19.298  0.00  0.00    +0.209 HD
ENDBRANCH  21   3
ENDBRANCH  12  21
BRANCH  13  22
ATOM     22  C   UNL     1      24.279   7.329  24.985  0.00  0.00    +0.102 C 
BRANCH  22  24
ATOM      4  O   UNL     1      24.722   6.611  27.213  0.00  0.00    -0.276 OA
ATOM      8  N   UNL     1      22.518   7.028  26.658  0.00  0.00    -0.299 N 
ATOM     24  C   UNL     1      23.873   6.953  26.388  0.00  0.00    +0.216 C 
ATOM     26  C   UNL     1      21.463   7.430  25.728  0.00  0.00    +0.139 C 
ATOM     27  C   UNL     1      21.970   6.704  27.967  0.00  0.00    +0.110 C 
ATOM     28  C   UNL     1      20.220   7.574  26.598  0.00  0.00    +0.133 C 
ATOM     29  C   UNL     1      20.469   6.592  27.737  0.00  0.00    +0.052 C 
BRANCH  28   6
ATOM      6  O   UNL     1      20.144   8.894  27.126  0.00  0.00    -0.390 OA
ATOM     45  H   UNL     1      19.732   9.456  26.448  0.00  0.00    +0.210 HD
ENDBRANCH  28   6
ENDBRANCH  22  24
ENDBRANCH  13  22
TORSDOF 11
ENDMDL
MODEL 9
REMARK VINA RESULT:      -6.6     18.352     24.188
REMARK  Name = 23757048
REMARK  13 active torsions:
REMARK  status: ('A' for Active; 'I' for Inactive)
REMARK    1  A    between atoms: O_1  and  C_16
REMARK    2  A    between atoms: O_1  and  C_25
REMARK    3  A    between atoms: O_2  and  C_17
REMARK    4  A    between atoms: O_3  and  C_21
REMARK    5  A    between atoms: O_6  and  C_28
REMARK    6  A    between atoms: O_7  and  C_35
REMARK    7  A    between atoms: O_7  and  C_36
REMARK    8  A    between atoms: N_9  and  C_30
REMARK    9  A    between atoms: C_10  and  C_20
REMARK   10  A    between atoms: C_12  and  C_21
REMARK   11  A    between atoms: C_12  and  C_23
REMARK   12  A    between atoms: C_13  and  C_22
REMARK   13  A    between atoms: C_22  and  C_24
REMARK                            x       y       z     vdW  Elec       q    Type
REMARK                         _______ _______ _______ _____ _____    ______ ____
ROOT
ATOM     10  C   UNL     1      23.340   4.488  22.399  0.00  0.00    -0.023 C 
ATOM     11  C   UNL     1      24.166   5.702  21.845  0.00  0.00    +0.007 C 
ATOM     12  C   UNL     1      23.322   6.962  21.392  0.00  0.00    +0.031 C 
ATOM     13  C   UNL     1      24.333   3.273  22.623  0.00  0.00    +0.032 C 
ATOM     14  C   UNL     1      22.267   4.070  21.339  0.00  0.00    +0.011 C 
ATOM     15  C   UNL     1      25.360   6.053  22.759  0.00  0.00    +0.007 C 
ATOM     16  C   UNL     1      21.948   6.538  20.779  0.00  0.00    +0.186 C 
ATOM     17  C   UNL     1      25.582   3.624  23.467  0.00  0.00    +0.119 C 
ATOM     18  C   UNL     1      21.977   5.109  20.252  0.00  0.00    +0.046 C 
ATOM     19  C   UNL     1      26.298   4.860  22.934  0.00  0.00    +0.032 C 
ATOM     20  C   UNL     1      22.609   4.831  23.720  0.00  0.00    +0.012 C 
ATOM     23  C   UNL     1      24.119   7.670  20.256  0.00  0.00    +0.017 C 
ENDROOT
BRANCH  17   2
ATOM      2  O   UNL     1      25.265   3.844  24.836  0.00  0.00    -0.391 OA
ATOM     42  H   UNL     1      24.320   3.648  24.959  0.00  0.00    +0.210 HD
ENDBRANCH  17   2
BRANCH  16   1
ATOM      1  O   UNL     1      20.865   6.637  21.701  0.00  0.00    -0.446 OA
BRANCH   1  25
ATOM      5  O   UNL     1      19.843   8.624  21.218  0.00  0.00    -0.226 OA
ATOM      9  N   UNL     1      18.725   6.575  21.041  0.00  0.00    -0.251 N 
ATOM     25  C   UNL     1      19.799   7.403  21.306  0.00  0.00    +0.405 C 
ATOM     44  H   UNL     1      18.884   5.580  21.173  0.00  0.00    +0.158 HD
BRANCH   9  30
ATOM     30  C   UNL     1      17.430   6.941  20.609  0.00  0.00    +0.037 A 
ATOM     31  C   UNL     1      16.717   7.890  21.325  0.00  0.00    +0.027 A 
ATOM     32  C   UNL     1      16.897   6.344  19.477  0.00  0.00    +0.027 A 
ATOM     33  C   UNL     1      15.438   8.250  20.900  0.00  0.00    +0.048 A 
ATOM     34  C   UNL     1      15.620   6.704  19.052  0.00  0.00    +0.048 A 
ATOM     35  C   UNL     1      14.889   7.657  19.763  0.00  0.00    +0.129 A 
BRANCH  35   7
ATOM      7  O   UNL     1      13.643   8.009  19.346  0.00  0.00    -0.456 OA
BRANCH   7  36
ATOM     36  C   UNL     1      12.593   7.828  20.231  0.00  0.00    +0.128 A 
ATOM     37  C   UNL     1      11.892   8.933  20.678  0.00  0.00    +0.046 A 
ATOM     38  C   UNL     1      12.275   6.548  20.646  0.00  0.00    +0.046 A 
ATOM     39  C   UNL     1      10.835   8.751  21.571  0.00  0.00    +0.004 A 
ATOM     40  C   UNL     1      11.218   6.366  21.539  0.00  0.00    +0.004 A 
ATOM     41  C   UNL     1      10.499   7.467  22.001  0.00  0.00    +0.000 A 
ENDBRANCH   7  36
ENDBRANCH  35   7
ENDBRANCH   9  30
ENDBRANCH   1  25
ENDBRANCH  16   1
BRANCH  12  21
ATOM     21  C   UNL     1      23.145   8.014  22.508  0.00  0.00    +0.166 C 
BRANCH  21   3
ATOM      3  O   UNL     1      22.682   9.205  21.911  0.00  0.00    -0.394 OA
ATOM     43  H   UNL     1      21.749   9.312  22.162  0.00  0.00    +0.209 HD
ENDBRANCH  21   3
ENDBRANCH  12  21
BRANCH  13  22
ATOM     22  C   UNL     1      23.662   2.000  23.167  0.00  0.00    +0.102 C 
BRANCH  22  24
ATOM      4  O   UNL     1      24.971   0.509  21.848  0.00  0.00    -0.276 OA
ATOM      8  N   UNL     1      24.934   0.145  24.130  0.00  0.00    -0.299 N 
ATOM     24  C   UNL     1      24.580   0.819  22.975  0.00  0.00    +0.216 C 
ATOM     26  C   UNL     1      24.510   0.464  25.493  0.00  0.00    +0.139 C 
ATOM     27  C   UNL     1      25.819  -1.011  24.111  0.00  0.00    +0.110 C 
ATOM     28  C   UNL     1      25.376  -0.422  26.381  0.00  0.00    +0.133 C 
ATOM     29  C   UNL     1      25.673  -1.627  25.496  0.00  0.00    +0.052 C 
BRANCH  28   6
ATOM      6  O   UNL     1      26.596   0.242  26.692  0.00  0.00    -0.390 OA
ATOM     45  H   UNL     1      26.711   0.958  26.044  0.00  0.00    +0.210 HD
ENDBRANCH  28   6
ENDBRANCH  22  24
ENDBRANCH  13  22
TORSDOF 11
ENDMDL
MODEL 10
REMARK VINA RESULT:      -6.3      2.786      9.107
REMARK  Name = 23757048
REMARK  13 active torsions:
REMARK  status: ('A' for Active; 'I' for Inactive)
REMARK    1  A    between atoms: O_1  and  C_16
REMARK    2  A    between atoms: O_1  and  C_25
REMARK    3  A    between atoms: O_2  and  C_17
REMARK    4  A    between atoms: O_3  and  C_21
REMARK    5  A    between atoms: O_6  and  C_28
REMARK    6  A    between atoms: O_7  and  C_35
REMARK    7  A    between atoms: O_7  and  C_36
REMARK    8  A    between atoms: N_9  and  C_30
REMARK    9  A    between atoms: C_10  and  C_20
REMARK   10  A    between atoms: C_12  and  C_21
REMARK   11  A    between atoms: C_12  and  C_23
REMARK   12  A    between atoms: C_13  and  C_22
REMARK   13  A    between atoms: C_22  and  C_24
REMARK                            x       y       z     vdW  Elec       q    Type
REMARK                         _______ _______ _______ _____ _____    ______ ____
ROOT
ATOM     10  C   UNL     1       9.679   7.802   4.361  0.00  0.00    -0.023 C 
ATOM     11  C   UNL     1      10.466   8.601   5.461  0.00  0.00    +0.007 C 
ATOM     12  C   UNL     1       9.722   9.862   6.062  0.00  0.00    +0.031 C 
ATOM     13  C   UNL     1      10.649   6.702   3.759  0.00  0.00    +0.032 C 
ATOM     14  C   UNL     1       9.261   8.783   3.215  0.00  0.00    +0.011 C 
ATOM     15  C   UNL     1      11.067   7.666   6.533  0.00  0.00    +0.007 C 
ATOM     16  C   UNL     1       8.841  10.573   4.984  0.00  0.00    +0.186 C 
ATOM     17  C   UNL     1      11.329   5.808   4.822  0.00  0.00    +0.119 C 
ATOM     18  C   UNL     1       9.320  10.272   3.569  0.00  0.00    +0.046 C 
ATOM     19  C   UNL     1      12.005   6.633   5.912  0.00  0.00    +0.032 C 
ATOM     20  C   UNL     1       8.400   7.137   4.923  0.00  0.00    +0.012 C 
ATOM     23  C   UNL     1      10.816  10.884   6.490  0.00  0.00    +0.017 C 
ENDROOT
BRANCH  17   2
ATOM      2  O   UNL     1      10.413   4.912   5.443  0.00  0.00    -0.391 OA
ATOM     42  H   UNL     1      10.664   4.007   5.189  0.00  0.00    +0.210 HD
ENDBRANCH  17   2
BRANCH  16   1
ATOM      1  O   UNL     1       7.463  10.216   5.058  0.00  0.00    -0.446 OA
BRANCH   1  25
ATOM      5  O   UNL     1       6.635  12.262   4.459  0.00  0.00    -0.226 OA
ATOM      9  N   UNL     1       5.688  10.263   3.692  0.00  0.00    -0.251 N 
ATOM     25  C   UNL     1       6.587  11.039   4.398  0.00  0.00    +0.405 C 
ATOM     44  H   UNL     1       5.810   9.256   3.766  0.00  0.00    +0.158 HD
BRANCH   9  30
ATOM     30  C   UNL     1       4.618  10.695   2.876  0.00  0.00    +0.037 A 
ATOM     31  C   UNL     1       4.448  10.130   1.622  0.00  0.00    +0.027 A 
ATOM     32  C   UNL     1       3.760  11.678   3.344  0.00  0.00    +0.027 A 
ATOM     33  C   UNL     1       3.393  10.558   0.816  0.00  0.00    +0.048 A 
ATOM     34  C   UNL     1       2.706  12.105   2.539  0.00  0.00    +0.048 A 
ATOM     35  C   UNL     1       2.521  11.545   1.274  0.00  0.00    +0.129 A 
BRANCH  35   7
ATOM      7  O   UNL     1       1.491  11.962   0.490  0.00  0.00    -0.456 OA
BRANCH   7  36
ATOM     36  C   UNL     1       0.475  11.058   0.228  0.00  0.00    +0.128 A 
ATOM     37  C   UNL     1      -0.158  10.433   1.287  0.00  0.00    +0.046 A 
ATOM     38  C   UNL     1       0.121  10.803  -1.084  0.00  0.00    +0.046 A 
ATOM     39  C   UNL     1      -1.182   9.522   1.024  0.00  0.00    +0.004 A 
ATOM     40  C   UNL     1      -0.902   9.891  -1.347  0.00  0.00    +0.004 A 
ATOM     41  C   UNL     1      -1.554   9.251  -0.293  0.00  0.00    +0.000 A 
ENDBRANCH   7  36
ENDBRANCH  35   7
ENDBRANCH   9  30
ENDBRANCH   1  25
ENDBRANCH  16   1
BRANCH  12  21
ATOM     21  C   UNL     1       8.912   9.545   7.337  0.00  0.00    +0.166 C 
BRANCH  21   3
ATOM      3  O   UNL     1       9.454  10.305   8.394  0.00  0.00    -0.394 OA
ATOM     43  H   UNL     1       8.748  10.888   8.723  0.00  0.00    +0.209 HD
ENDBRANCH  21   3
ENDBRANCH  12  21
BRANCH  13  22
ATOM     22  C   UNL     1      10.013   5.834   2.658  0.00  0.00    +0.102 C 
BRANCH  22  24
ATOM      4  O   UNL     1      10.700   6.893   0.638  0.00  0.00    -0.276 OA
ATOM      8  N   UNL     1      11.718   4.890   1.178  0.00  0.00    -0.299 N 
ATOM     24  C   UNL     1      10.834   5.932   1.397  0.00  0.00    +0.216 C 
ATOM     26  C   UNL     1      11.928   3.727   2.040  0.00  0.00    +0.139 C 
ATOM     27  C   UNL     1      12.584   4.842   0.009  0.00  0.00    +0.110 C 
ATOM     28  C   UNL     1      13.163   3.043   1.466  0.00  0.00    +0.133 C 
ATOM     29  C   UNL     1      13.122   3.418  -0.011  0.00  0.00    +0.052 C 
BRANCH  28   6
ATOM      6  O   UNL     1      14.339   3.588   2.054  0.00  0.00    -0.390 OA
ATOM     45  H   UNL     1      14.861   2.846   2.405  0.00  0.00    +0.210 HD
ENDBRANCH  28   6
ENDBRANCH  22  24
ENDBRANCH  13  22
TORSDOF 11
ENDMDL
