MODEL 1
REMARK VINA RESULT:      -7.2      0.000      0.000
REMARK  Name = 25338403
REMARK  7 active torsions:
REMARK  status: ('A' for Active; 'I' for Inactive)
REMARK    1  A    between atoms: O_4  and  C_17
REMARK    2  A    between atoms: O_4  and  C_21
REMARK    3  A    between atoms: N_5  and  C_14
REMARK    4  A    between atoms: N_6  and  C_9
REMARK    5  A    between atoms: C_10  and  C_13
REMARK    6  A    between atoms: C_15  and  C_17
REMARK    7  A    between atoms: C_16  and  C_18
REMARK                            x       y       z     vdW  Elec       q    Type
REMARK                         _______ _______ _______ _____ _____    ______ ____
ROOT
ATOM      5  N   UNL     1      -4.088 -11.690  10.530  0.00  0.00    -0.293 NA
ATOM      9  C   UNL     1      -4.374  -9.724   9.311  0.00  0.00    +0.089 C 
ATOM     10  C   UNL     1      -3.045 -10.791  11.060  0.00  0.00    +0.147 C 
ATOM     11  C   UNL     1      -3.315  -9.438  10.376  0.00  0.00    +0.052 C 
ATOM     12  C   UNL     1      -4.348 -11.237   9.159  0.00  0.00    +0.107 C 
ATOM     14  C   UNL     1      -3.711 -13.097  10.575  0.00  0.00    +0.105 C 
ENDROOT
BRANCH  10  13
ATOM      2  O   UNL     1      -1.846 -10.468  13.165  0.00  0.00    -0.336 OA
ATOM      7  N   UNL     1      -4.049 -10.787  13.408  0.00  0.00    -0.190 NA
ATOM      8  N   UNL     1      -2.098 -10.414  14.542  0.00  0.00    -0.056 NA
ATOM     13  C   UNL     1      -3.047 -10.690  12.571  0.00  0.00    +0.245 A 
ATOM     16  C   UNL     1      -3.418 -10.610  14.605  0.00  0.00    +0.202 A 
BRANCH  16  18
ATOM      1 CL   UNL     1      -6.399 -10.723  19.746  0.00  0.00    -0.084 Cl
ATOM     18  C   UNL     1      -4.137 -10.636  15.846  0.00  0.00    +0.023 A 
ATOM     19  C   UNL     1      -3.582 -11.264  16.959  0.00  0.00    +0.013 A 
ATOM     20  C   UNL     1      -5.392 -10.033  15.937  0.00  0.00    +0.013 A 
ATOM     22  C   UNL     1      -4.281 -11.292  18.167  0.00  0.00    +0.021 A 
ATOM     23  C   UNL     1      -6.091 -10.061  17.143  0.00  0.00    +0.021 A 
ATOM     24  C   UNL     1      -5.537 -10.690  18.258  0.00  0.00    +0.041 A 
ENDBRANCH  16  18
ENDBRANCH  10  13
BRANCH   9   6
ATOM      3  O   UNL     1      -6.602  -9.043   7.597  0.00  0.00    -0.272 OA
ATOM      6  N   UNL     1      -5.678  -9.257   9.719  0.00  0.00    -0.308 N 
ATOM     15  C   UNL     1      -6.687  -8.956   8.819  0.00  0.00    +0.251 C 
ATOM     30  H   UNL     1      -5.837  -9.094  10.710  0.00  0.00    +0.149 HD
BRANCH  15  17
ATOM     17  C   UNL     1      -7.945  -8.492   9.521  0.00  0.00    +0.324 C 
BRANCH  17   4
ATOM      4  O   UNL     1      -8.930  -8.115   8.583  0.00  0.00    -0.483 OA
BRANCH   4  21
ATOM     21  C   UNL     1      -9.583  -6.925   8.801  0.00  0.00    +0.121 A 
ATOM     25  C   UNL     1      -8.976  -5.722   8.443  0.00  0.00    +0.045 A 
ATOM     26  C   UNL     1     -10.852  -6.922   9.380  0.00  0.00    +0.045 A 
ATOM     27  C   UNL     1      -9.638  -4.514   8.664  0.00  0.00    +0.004 A 
ATOM     28  C   UNL     1     -11.514  -5.715   9.601  0.00  0.00    +0.004 A 
ATOM     29  C   UNL     1     -10.908  -4.510   9.243  0.00  0.00    +0.000 A 
ENDBRANCH   4  21
ENDBRANCH  17   4
ENDBRANCH  15  17
ENDBRANCH   9   6
TORSDOF 6
ENDMDL
MODEL 2
REMARK VINA RESULT:      -7.2     27.720     29.532
REMARK  Name = 25338403
REMARK  7 active torsions:
REMARK  status: ('A' for Active; 'I' for Inactive)
REMARK    1  A    between atoms: O_4  and  C_17
REMARK    2  A    between atoms: O_4  and  C_21
REMARK    3  A    between atoms: N_5  and  C_14
REMARK    4  A    between atoms: N_6  and  C_9
REMARK    5  A    between atoms: C_10  and  C_13
REMARK    6  A    between atoms: C_15  and  C_17
REMARK    7  A    between atoms: C_16  and  C_18
REMARK                            x       y       z     vdW  Elec       q    Type
REMARK                         _______ _______ _______ _____ _____    ______ ____
ROOT
ATOM      5  N   UNL     1      13.510   8.681  20.159  0.00  0.00    -0.293 NA
ATOM      9  C   UNL     1      12.314   8.742  18.159  0.00  0.00    +0.089 C 
ATOM     10  C   UNL     1      13.638   7.309  19.630  0.00  0.00    +0.147 C 
ATOM     11  C   UNL     1      12.983   7.369  18.236  0.00  0.00    +0.052 C 
ATOM     12  C   UNL     1      12.259   9.210  19.605  0.00  0.00    +0.107 C 
ATOM     14  C   UNL     1      13.529   8.739  21.615  0.00  0.00    +0.105 C 
ENDROOT
BRANCH  10  13
ATOM      2  O   UNL     1      15.449   6.180  18.440  0.00  0.00    -0.336 OA
ATOM      7  N   UNL     1      16.008   6.898  20.487  0.00  0.00    -0.190 NA
ATOM      8  N   UNL     1      16.789   5.817  18.628  0.00  0.00    -0.056 NA
ATOM     13  C   UNL     1      15.067   6.812  19.580  0.00  0.00    +0.245 A 
ATOM     16  C   UNL     1      17.046   6.275  19.857  0.00  0.00    +0.202 A 
BRANCH  16  18
ATOM      1 CL   UNL     1      22.352   5.652  22.461  0.00  0.00    -0.084 Cl
ATOM     18  C   UNL     1      18.327   6.126  20.484  0.00  0.00    +0.023 A 
ATOM     19  C   UNL     1      19.264   5.242  19.953  0.00  0.00    +0.013 A 
ATOM     20  C   UNL     1      18.634   6.866  21.627  0.00  0.00    +0.013 A 
ATOM     22  C   UNL     1      20.510   5.095  20.564  0.00  0.00    +0.021 A 
ATOM     23  C   UNL     1      19.878   6.718  22.238  0.00  0.00    +0.021 A 
ATOM     24  C   UNL     1      20.816   5.833  21.708  0.00  0.00    +0.041 A 
ENDBRANCH  16  18
ENDBRANCH  10  13
BRANCH   9   6
ATOM      3  O   UNL     1      12.264   8.950  15.275  0.00  0.00    -0.272 OA
ATOM      6  N   UNL     1      13.071   9.656  17.337  0.00  0.00    -0.308 N 
ATOM     15  C   UNL     1      12.978   9.681  15.955  0.00  0.00    +0.251 C 
ATOM     30  H   UNL     1      13.739  10.270  17.797  0.00  0.00    +0.149 HD
BRANCH  15  17
ATOM     17  C   UNL     1      13.879  10.737  15.352  0.00  0.00    +0.324 C 
BRANCH  17   4
ATOM      4  O   UNL     1      14.575  11.436  16.362  0.00  0.00    -0.483 OA
BRANCH   4  21
ATOM     21  C   UNL     1      15.854  11.850  16.073  0.00  0.00    +0.121 A 
ATOM     25  C   UNL     1      16.451  11.479  14.868  0.00  0.00    +0.045 A 
ATOM     26  C   UNL     1      16.554  12.641  16.983  0.00  0.00    +0.045 A 
ATOM     27  C   UNL     1      17.749  11.898  14.574  0.00  0.00    +0.004 A 
ATOM     28  C   UNL     1      17.850  13.062  16.689  0.00  0.00    +0.004 A 
ATOM     29  C   UNL     1      18.449  12.690  15.485  0.00  0.00    +0.000 A 
ENDBRANCH   4  21
ENDBRANCH  17   4
ENDBRANCH  15  17
ENDBRANCH   9   6
TORSDOF 6
ENDMDL
MODEL 3
REMARK VINA RESULT:      -7.1      4.438      7.978
REMARK  Name = 25338403
REMARK  7 active torsions:
REMARK  status: ('A' for Active; 'I' for Inactive)
REMARK    1  A    between atoms: O_4  and  C_17
REMARK    2  A    between atoms: O_4  and  C_21
REMARK    3  A    between atoms: N_5  and  C_14
REMARK    4  A    between atoms: N_6  and  C_9
REMARK    5  A    between atoms: C_10  and  C_13
REMARK    6  A    between atoms: C_15  and  C_17
REMARK    7  A    between atoms: C_16  and  C_18
REMARK                            x       y       z     vdW  Elec       q    Type
REMARK                         _______ _______ _______ _____ _____    ______ ____
ROOT
ATOM      5  N   UNL     1      -5.897 -11.998  17.929  0.00  0.00    -0.293 NA
ATOM      9  C   UNL     1      -3.770 -11.340  17.237  0.00  0.00    +0.089 C 
ATOM     10  C   UNL     1      -6.029 -10.544  17.719  0.00  0.00    +0.147 C 
ATOM     11  C   UNL     1      -4.678 -10.115  17.116  0.00  0.00    +0.052 C 
ATOM     12  C   UNL     1      -4.483 -12.231  18.242  0.00  0.00    +0.107 C 
ATOM     14  C   UNL     1      -6.777 -12.510  18.972  0.00  0.00    +0.105 C 
ENDROOT
BRANCH  10  13
ATOM      2  O   UNL     1      -7.526 -11.038  15.851  0.00  0.00    -0.336 OA
ATOM      7  N   UNL     1      -7.970  -9.105  16.892  0.00  0.00    -0.190 NA
ATOM      8  N   UNL     1      -8.625 -10.480  15.186  0.00  0.00    -0.056 NA
ATOM     13  C   UNL     1      -7.204 -10.166  16.842  0.00  0.00    +0.245 A 
ATOM     16  C   UNL     1      -8.827  -9.343  15.857  0.00  0.00    +0.202 A 
BRANCH  16  18
ATOM      1 CL   UNL     1     -13.166  -5.528  14.459  0.00  0.00    -0.084 Cl
ATOM     18  C   UNL     1      -9.875  -8.423  15.521  0.00  0.00    +0.023 A 
ATOM     19  C   UNL     1     -10.722  -8.694  14.448  0.00  0.00    +0.013 A 
ATOM     20  C   UNL     1     -10.045  -7.257  16.268  0.00  0.00    +0.013 A 
ATOM     22  C   UNL     1     -11.741  -7.799  14.119  0.00  0.00    +0.021 A 
ATOM     23  C   UNL     1     -11.062  -6.362  15.939  0.00  0.00    +0.021 A 
ATOM     24  C   UNL     1     -11.910  -6.632  14.865  0.00  0.00    +0.041 A 
ENDBRANCH  16  18
ENDBRANCH  10  13
BRANCH   9   6
ATOM      3  O   UNL     1      -1.561 -11.060  15.393  0.00  0.00    -0.272 OA
ATOM      6  N   UNL     1      -3.605 -12.006  15.967  0.00  0.00    -0.308 N 
ATOM     15  C   UNL     1      -2.505 -11.807  15.149  0.00  0.00    +0.251 C 
ATOM     30  H   UNL     1      -4.359 -12.605  15.641  0.00  0.00    +0.149 HD
BRANCH  15  17
ATOM     17  C   UNL     1      -2.590 -12.631  13.882  0.00  0.00    +0.324 C 
BRANCH  17   4
ATOM      4  O   UNL     1      -1.728 -12.114  12.891  0.00  0.00    -0.483 OA
BRANCH   4  21
ATOM     21  C   UNL     1      -2.287 -11.300  11.935  0.00  0.00    +0.121 A 
ATOM     25  C   UNL     1      -1.724 -10.053  11.665  0.00  0.00    +0.045 A 
ATOM     26  C   UNL     1      -3.417 -11.721  11.235  0.00  0.00    +0.045 A 
ATOM     27  C   UNL     1      -2.291  -9.227  10.694  0.00  0.00    +0.004 A 
ATOM     28  C   UNL     1      -3.984 -10.896  10.264  0.00  0.00    +0.004 A 
ATOM     29  C   UNL     1      -3.421  -9.648   9.994  0.00  0.00    +0.000 A 
ENDBRANCH   4  21
ENDBRANCH  17   4
ENDBRANCH  15  17
ENDBRANCH   9   6
TORSDOF 6
ENDMDL
MODEL 4
REMARK VINA RESULT:      -7.1     28.479     31.826
REMARK  Name = 25338403
REMARK  7 active torsions:
REMARK  status: ('A' for Active; 'I' for Inactive)
REMARK    1  A    between atoms: O_4  and  C_17
REMARK    2  A    between atoms: O_4  and  C_21
REMARK    3  A    between atoms: N_5  and  C_14
REMARK    4  A    between atoms: N_6  and  C_9
REMARK    5  A    between atoms: C_10  and  C_13
REMARK    6  A    between atoms: C_15  and  C_17
REMARK    7  A    between atoms: C_16  and  C_18
REMARK                            x       y       z     vdW  Elec       q    Type
REMARK                         _______ _______ _______ _____ _____    ______ ____
ROOT
ATOM      5  N   UNL     1      22.533   4.261  25.222  0.00  0.00    -0.293 NA
ATOM      9  C   UNL     1      23.091   1.998  25.164  0.00  0.00    +0.089 C 
ATOM     10  C   UNL     1      23.100   4.071  23.872  0.00  0.00    +0.147 C 
ATOM     11  C   UNL     1      23.333   2.552  23.760  0.00  0.00    +0.052 C 
ATOM     12  C   UNL     1      23.143   3.224  26.062  0.00  0.00    +0.107 C 
ATOM     14  C   UNL     1      22.758   5.597  25.757  0.00  0.00    +0.105 C 
ENDROOT
BRANCH  10  13
ATOM      2  O   UNL     1      22.669   4.445  21.496  0.00  0.00    -0.336 OA
ATOM      7  N   UNL     1      21.059   5.216  22.849  0.00  0.00    -0.190 NA
ATOM      8  N   UNL     1      21.697   5.012  20.662  0.00  0.00    -0.056 NA
ATOM     13  C   UNL     1      22.215   4.607  22.766  0.00  0.00    +0.245 A 
ATOM     16  C   UNL     1      20.780   5.444  21.533  0.00  0.00    +0.202 A 
BRANCH  16  18
ATOM      1 CL   UNL     1      15.787   8.187  19.838  0.00  0.00    -0.084 Cl
ATOM     18  C   UNL     1      19.576   6.106  21.122  0.00  0.00    +0.023 A 
ATOM     19  C   UNL     1      19.177   7.282  21.756  0.00  0.00    +0.013 A 
ATOM     20  C   UNL     1      18.804   5.573  20.090  0.00  0.00    +0.013 A 
ATOM     22  C   UNL     1      18.005   7.927  21.359  0.00  0.00    +0.021 A 
ATOM     23  C   UNL     1      17.632   6.216  19.694  0.00  0.00    +0.021 A 
ATOM     24  C   UNL     1      17.232   7.392  20.328  0.00  0.00    +0.041 A 
ENDBRANCH  16  18
ENDBRANCH  10  13
BRANCH   9   6
ATOM      3  O   UNL     1      22.620  -0.842  25.439  0.00  0.00    -0.272 OA
ATOM      6  N   UNL     1      21.814   1.331  25.258  0.00  0.00    -0.308 N 
ATOM     15  C   UNL     1      21.689  -0.043  25.389  0.00  0.00    +0.251 C 
ATOM     30  H   UNL     1      20.973   1.895  25.169  0.00  0.00    +0.149 HD
BRANCH  15  17
ATOM     17  C   UNL     1      20.239  -0.469  25.466  0.00  0.00    +0.324 C 
BRANCH  17   4
ATOM      4  O   UNL     1      20.074  -1.774  24.950  0.00  0.00    -0.483 OA
BRANCH   4  21
ATOM     21  C   UNL     1      18.904  -2.041  24.280  0.00  0.00    +0.121 A 
ATOM     25  C   UNL     1      18.649  -3.328  23.809  0.00  0.00    +0.045 A 
ATOM     26  C   UNL     1      17.972  -1.024  24.072  0.00  0.00    +0.045 A 
ATOM     27  C   UNL     1      17.462  -3.600  23.128  0.00  0.00    +0.004 A 
ATOM     28  C   UNL     1      16.784  -1.295  23.393  0.00  0.00    +0.004 A 
ATOM     29  C   UNL     1      16.529  -2.583  22.920  0.00  0.00    +0.000 A 
ENDBRANCH   4  21
ENDBRANCH  17   4
ENDBRANCH  15  17
ENDBRANCH   9   6
TORSDOF 6
ENDMDL
MODEL 5
REMARK VINA RESULT:      -6.8     27.919     29.978
REMARK  Name = 25338403
REMARK  7 active torsions:
REMARK  status: ('A' for Active; 'I' for Inactive)
REMARK    1  A    between atoms: O_4  and  C_17
REMARK    2  A    between atoms: O_4  and  C_21
REMARK    3  A    between atoms: N_5  and  C_14
REMARK    4  A    between atoms: N_6  and  C_9
REMARK    5  A    between atoms: C_10  and  C_13
REMARK    6  A    between atoms: C_15  and  C_17
REMARK    7  A    between atoms: C_16  and  C_18
REMARK                            x       y       z     vdW  Elec       q    Type
REMARK                         _______ _______ _______ _____ _____    ______ ____
ROOT
ATOM      5  N   UNL     1      14.326  11.407  21.008  0.00  0.00    -0.293 NA
ATOM      9  C   UNL     1      12.941  10.625  22.712  0.00  0.00    +0.089 C 
ATOM     10  C   UNL     1      15.206  11.378  22.192  0.00  0.00    +0.147 C 
ATOM     11  C   UNL     1      14.352  10.721  23.293  0.00  0.00    +0.052 C 
ATOM     12  C   UNL     1      12.963  11.574  21.524  0.00  0.00    +0.107 C 
ATOM     14  C   UNL     1      14.679  12.451  20.055  0.00  0.00    +0.105 C 
ENDROOT
BRANCH  10  13
ATOM      2  O   UNL     1      17.641  11.403  21.993  0.00  0.00    -0.336 OA
ATOM      7  N   UNL     1      16.722   9.380  21.715  0.00  0.00    -0.190 NA
ATOM      8  N   UNL     1      18.704  10.523  21.751  0.00  0.00    -0.056 NA
ATOM     13  C   UNL     1      16.512  10.649  21.956  0.00  0.00    +0.245 A 
ATOM     16  C   UNL     1      18.082   9.350  21.597  0.00  0.00    +0.202 A 
BRANCH  16  18
ATOM      1 CL   UNL     1      21.009   4.302  20.464  0.00  0.00    -0.084 Cl
ATOM     18  C   UNL     1      18.787   8.131  21.325  0.00  0.00    +0.023 A 
ATOM     19  C   UNL     1      20.135   8.017  21.661  0.00  0.00    +0.013 A 
ATOM     20  C   UNL     1      18.124   7.061  20.723  0.00  0.00    +0.013 A 
ATOM     22  C   UNL     1      20.824   6.832  21.395  0.00  0.00    +0.021 A 
ATOM     23  C   UNL     1      18.812   5.877  20.457  0.00  0.00    +0.021 A 
ATOM     24  C   UNL     1      20.161   5.763  20.792  0.00  0.00    +0.041 A 
ENDBRANCH  16  18
ENDBRANCH  10  13
BRANCH   9   6
ATOM      3  O   UNL     1      10.315   9.434  22.492  0.00  0.00    -0.272 OA
ATOM      6  N   UNL     1      12.626   9.276  22.303  0.00  0.00    -0.308 N 
ATOM     15  C   UNL     1      11.329   8.795  22.227  0.00  0.00    +0.251 C 
ATOM     30  H   UNL     1      13.399   8.642  22.115  0.00  0.00    +0.149 HD
BRANCH  15  17
ATOM     17  C   UNL     1      11.292   7.353  21.770  0.00  0.00    +0.324 C 
BRANCH  17   4
ATOM      4  O   UNL     1      12.599   6.866  21.549  0.00  0.00    -0.483 OA
BRANCH   4  21
ATOM     21  C   UNL     1      13.126   7.032  20.290  0.00  0.00    +0.121 A 
ATOM     25  C   UNL     1      12.283   7.285  19.209  0.00  0.00    +0.045 A 
ATOM     26  C   UNL     1      14.505   6.949  20.096  0.00  0.00    +0.045 A 
ATOM     27  C   UNL     1      12.818   7.453  17.932  0.00  0.00    +0.004 A 
ATOM     28  C   UNL     1      15.040   7.118  18.819  0.00  0.00    +0.004 A 
ATOM     29  C   UNL     1      14.197   7.370  17.736  0.00  0.00    +0.000 A 
ENDBRANCH   4  21
ENDBRANCH  17   4
ENDBRANCH  15  17
ENDBRANCH   9   6
TORSDOF 6
ENDMDL
MODEL 6
REMARK VINA RESULT:      -6.7     24.363     26.692
REMARK  Name = 25338403
REMARK  7 active torsions:
REMARK  status: ('A' for Active; 'I' for Inactive)
REMARK    1  A    between atoms: O_4  and  C_17
REMARK    2  A    between atoms: O_4  and  C_21
REMARK    3  A    between atoms: N_5  and  C_14
REMARK    4  A    between atoms: N_6  and  C_9
REMARK    5  A    between atoms: C_10  and  C_13
REMARK    6  A    between atoms: C_15  and  C_17
REMARK    7  A    between atoms: C_16  and  C_18
REMARK                            x       y       z     vdW  Elec       q    Type
REMARK                         _______ _______ _______ _____ _____    ______ ____
ROOT
ATOM      5  N   UNL     1      13.886   9.361   5.072  0.00  0.00    -0.293 NA
ATOM      9  C   UNL     1      13.301   8.129   6.964  0.00  0.00    +0.089 C 
ATOM     10  C   UNL     1      14.825   8.222   5.056  0.00  0.00    +0.147 C 
ATOM     11  C   UNL     1      14.355   7.317   6.211  0.00  0.00    +0.052 C 
ATOM     12  C   UNL     1      13.515   9.555   6.478  0.00  0.00    +0.107 C 
ATOM     14  C   UNL     1      14.443  10.572   4.484  0.00  0.00    +0.105 C 
ENDROOT
BRANCH  10  13
ATOM      2  O   UNL     1      15.957   7.725   2.948  0.00  0.00    -0.336 OA
ATOM      7  N   UNL     1      14.001   6.665   3.208  0.00  0.00    -0.190 NA
ATOM      8  N   UNL     1      15.774   6.956   1.792  0.00  0.00    -0.056 NA
ATOM     13  C   UNL     1      14.869   7.495   3.729  0.00  0.00    +0.245 A 
ATOM     16  C   UNL     1      14.600   6.360   2.020  0.00  0.00    +0.202 A 
BRANCH  16  18
ATOM      1 CL   UNL     1      12.098   2.615  -1.858  0.00  0.00    -0.084 Cl
ATOM     18  C   UNL     1      13.998   5.456   1.083  0.00  0.00    +0.023 A 
ATOM     19  C   UNL     1      13.372   5.952  -0.059  0.00  0.00    +0.013 A 
ATOM     20  C   UNL     1      14.037   4.081   1.317  0.00  0.00    +0.013 A 
ATOM     22  C   UNL     1      12.784   5.073  -0.970  0.00  0.00    +0.021 A 
ATOM     23  C   UNL     1      13.449   3.203   0.408  0.00  0.00    +0.021 A 
ATOM     24  C   UNL     1      12.823   3.698  -0.735  0.00  0.00    +0.041 A 
ENDBRANCH  16  18
ENDBRANCH  10  13
BRANCH   9   6
ATOM      3  O   UNL     1      11.960   5.828   8.090  0.00  0.00    -0.272 OA
ATOM      6  N   UNL     1      11.965   7.668   6.669  0.00  0.00    -0.308 N 
ATOM     15  C   UNL     1      11.406   6.548   7.263  0.00  0.00    +0.251 C 
ATOM     30  H   UNL     1      11.438   8.161   5.953  0.00  0.00    +0.149 HD
BRANCH  15  17
ATOM     17  C   UNL     1       9.997   6.297   6.772  0.00  0.00    +0.324 C 
BRANCH  17   4
ATOM      4  O   UNL     1       9.961   5.176   5.913  0.00  0.00    -0.483 OA
BRANCH   4  21
ATOM     21  C   UNL     1      10.029   5.418   4.561  0.00  0.00    +0.121 A 
ATOM     25  C   UNL     1      10.542   4.445   3.704  0.00  0.00    +0.045 A 
ATOM     26  C   UNL     1       9.585   6.636   4.048  0.00  0.00    +0.045 A 
ATOM     27  C   UNL     1      10.612   4.691   2.333  0.00  0.00    +0.004 A 
ATOM     28  C   UNL     1       9.653   6.882   2.677  0.00  0.00    +0.004 A 
ATOM     29  C   UNL     1      10.168   5.909   1.818  0.00  0.00    +0.000 A 
ENDBRANCH   4  21
ENDBRANCH  17   4
ENDBRANCH  15  17
ENDBRANCH   9   6
TORSDOF 6
ENDMDL
MODEL 7
REMARK VINA RESULT:      -6.5     25.962     28.086
REMARK  Name = 25338403
REMARK  7 active torsions:
REMARK  status: ('A' for Active; 'I' for Inactive)
REMARK    1  A    between atoms: O_4  and  C_17
REMARK    2  A    between atoms: O_4  and  C_21
REMARK    3  A    between atoms: N_5  and  C_14
REMARK    4  A    between atoms: N_6  and  C_9
REMARK    5  A    between atoms: C_10  and  C_13
REMARK    6  A    between atoms: C_15  and  C_17
REMARK    7  A    between atoms: C_16  and  C_18
REMARK                            x       y       z     vdW  Elec       q    Type
REMARK                         _______ _______ _______ _____ _____    ______ ____
ROOT
ATOM      5  N   UNL     1      12.735   8.852   5.812  0.00  0.00    -0.293 NA
ATOM      9  C   UNL     1      11.907   6.818   6.596  0.00  0.00    +0.089 C 
ATOM     10  C   UNL     1      13.846   8.305   6.614  0.00  0.00    +0.147 C 
ATOM     11  C   UNL     1      13.375   6.893   7.015  0.00  0.00    +0.052 C 
ATOM     12  C   UNL     1      11.511   8.269   6.373  0.00  0.00    +0.107 C 
ATOM     14  C   UNL     1      12.692  10.309   5.809  0.00  0.00    +0.105 C 
ENDROOT
BRANCH  10  13
ATOM      2  O   UNL     1      15.111   8.184   4.527  0.00  0.00    -0.336 OA
ATOM      7  N   UNL     1      16.386   8.364   6.360  0.00  0.00    -0.190 NA
ATOM      8  N   UNL     1      16.439   8.191   4.080  0.00  0.00    -0.056 NA
ATOM     13  C   UNL     1      15.170   8.290   5.881  0.00  0.00    +0.245 A 
ATOM     16  C   UNL     1      17.130   8.301   5.218  0.00  0.00    +0.202 A 
BRANCH  16  18
ATOM      1 CL   UNL     1      23.070   8.491   5.349  0.00  0.00    -0.084 Cl
ATOM     18  C   UNL     1      18.563   8.348   5.250  0.00  0.00    +0.023 A 
ATOM     19  C   UNL     1      19.290   8.237   4.066  0.00  0.00    +0.013 A 
ATOM     20  C   UNL     1      19.229   8.504   6.466  0.00  0.00    +0.013 A 
ATOM     22  C   UNL     1      20.685   8.281   4.096  0.00  0.00    +0.021 A 
ATOM     23  C   UNL     1      20.622   8.548   6.496  0.00  0.00    +0.021 A 
ATOM     24  C   UNL     1      21.350   8.436   5.312  0.00  0.00    +0.041 A 
ENDBRANCH  16  18
ENDBRANCH  10  13
BRANCH   9   6
ATOM      3  O   UNL     1       9.563   5.321   5.803  0.00  0.00    -0.272 OA
ATOM      6  N   UNL     1      11.737   6.035   5.394  0.00  0.00    -0.308 N 
ATOM     15  C   UNL     1      10.570   5.350   5.101  0.00  0.00    +0.251 C 
ATOM     30  H   UNL     1      12.533   5.945   4.768  0.00  0.00    +0.149 HD
BRANCH  15  17
ATOM     17  C   UNL     1      10.668   4.615   3.780  0.00  0.00    +0.324 C 
BRANCH  17   4
ATOM      4  O   UNL     1      11.650   5.204   2.954  0.00  0.00    -0.483 OA
BRANCH   4  21
ATOM     21  C   UNL     1      11.913   4.586   1.754  0.00  0.00    +0.121 A 
ATOM     25  C   UNL     1      10.985   4.655   0.716  0.00  0.00    +0.045 A 
ATOM     26  C   UNL     1      13.109   3.891   1.576  0.00  0.00    +0.045 A 
ATOM     27  C   UNL     1      11.252   4.028  -0.501  0.00  0.00    +0.004 A 
ATOM     28  C   UNL     1      13.377   3.265   0.359  0.00  0.00    +0.004 A 
ATOM     29  C   UNL     1      12.448   3.333  -0.680  0.00  0.00    +0.000 A 
ENDBRANCH   4  21
ENDBRANCH  17   4
ENDBRANCH  15  17
ENDBRANCH   9   6
TORSDOF 6
ENDMDL
MODEL 8
REMARK VINA RESULT:      -6.5     21.108     23.875
REMARK  Name = 25338403
REMARK  7 active torsions:
REMARK  status: ('A' for Active; 'I' for Inactive)
REMARK    1  A    between atoms: O_4  and  C_17
REMARK    2  A    between atoms: O_4  and  C_21
REMARK    3  A    between atoms: N_5  and  C_14
REMARK    4  A    between atoms: N_6  and  C_9
REMARK    5  A    between atoms: C_10  and  C_13
REMARK    6  A    between atoms: C_15  and  C_17
REMARK    7  A    between atoms: C_16  and  C_18
REMARK                            x       y       z     vdW  Elec       q    Type
REMARK                         _______ _______ _______ _____ _____    ______ ____
ROOT
ATOM      5  N   UNL     1     -16.479   4.615  25.656  0.00  0.00    -0.293 NA
ATOM      9  C   UNL     1     -18.020   6.319  26.052  0.00  0.00    +0.089 C 
ATOM     10  C   UNL     1     -16.944   4.991  24.307  0.00  0.00    +0.147 C 
ATOM     11  C   UNL     1     -17.848   6.217  24.537  0.00  0.00    +0.052 C 
ATOM     12  C   UNL     1     -17.575   4.959  26.568  0.00  0.00    +0.107 C 
ATOM     14  C   UNL     1     -16.103   3.211  25.763  0.00  0.00    +0.105 C 
ENDROOT
BRANCH  10  13
ATOM      2  O   UNL     1     -15.364   4.217  22.611  0.00  0.00    -0.336 OA
ATOM      7  N   UNL     1     -15.199   6.399  23.086  0.00  0.00    -0.190 NA
ATOM      8  N   UNL     1     -14.338   4.716  21.798  0.00  0.00    -0.056 NA
ATOM     13  C   UNL     1     -15.817   5.272  23.336  0.00  0.00    +0.245 A 
ATOM     16  C   UNL     1     -14.301   6.008  22.136  0.00  0.00    +0.202 A 
BRANCH  16  18
ATOM      1 CL   UNL     1     -10.489   9.849  19.676  0.00  0.00    -0.084 Cl
ATOM     18  C   UNL     1     -13.380   6.935  21.544  0.00  0.00    +0.023 A 
ATOM     19  C   UNL     1     -13.618   8.305  21.632  0.00  0.00    +0.013 A 
ATOM     20  C   UNL     1     -12.248   6.464  20.878  0.00  0.00    +0.013 A 
ATOM     22  C   UNL     1     -12.724   9.208  21.055  0.00  0.00    +0.021 A 
ATOM     23  C   UNL     1     -11.354   7.365  20.301  0.00  0.00    +0.021 A 
ATOM     24  C   UNL     1     -11.592   8.737  20.388  0.00  0.00    +0.041 A 
ENDBRANCH  16  18
ENDBRANCH  10  13
BRANCH   9   6
ATOM      3  O   UNL     1     -18.740   9.109  26.299  0.00  0.00    -0.272 OA
ATOM      6  N   UNL     1     -17.215   7.382  26.607  0.00  0.00    -0.308 N 
ATOM     15  C   UNL     1     -17.650   8.695  26.683  0.00  0.00    +0.251 C 
ATOM     30  H   UNL     1     -16.269   7.158  26.905  0.00  0.00    +0.149 HD
BRANCH  15  17
ATOM     17  C   UNL     1     -16.606   9.596  27.309  0.00  0.00    +0.324 C 
BRANCH  17   4
ATOM      4  O   UNL     1     -16.130  10.536  26.369  0.00  0.00    -0.483 OA
BRANCH   4  21
ATOM     21  C   UNL     1     -14.775  10.556  26.133  0.00  0.00    +0.121 A 
ATOM     25  C   UNL     1     -13.881  10.452  27.198  0.00  0.00    +0.045 A 
ATOM     26  C   UNL     1     -14.297  10.680  24.829  0.00  0.00    +0.045 A 
ATOM     27  C   UNL     1     -12.506  10.474  26.959  0.00  0.00    +0.004 A 
ATOM     28  C   UNL     1     -12.923  10.701  24.590  0.00  0.00    +0.004 A 
ATOM     29  C   UNL     1     -12.027  10.598  25.655  0.00  0.00    +0.000 A 
ENDBRANCH   4  21
ENDBRANCH  17   4
ENDBRANCH  15  17
ENDBRANCH   9   6
TORSDOF 6
ENDMDL
MODEL 9
REMARK VINA RESULT:      -6.5     23.789     26.182
REMARK  Name = 25338403
REMARK  7 active torsions:
REMARK  status: ('A' for Active; 'I' for Inactive)
REMARK    1  A    between atoms: O_4  and  C_17
REMARK    2  A    between atoms: O_4  and  C_21
REMARK    3  A    between atoms: N_5  and  C_14
REMARK    4  A    between atoms: N_6  and  C_9
REMARK    5  A    between atoms: C_10  and  C_13
REMARK    6  A    between atoms: C_15  and  C_17
REMARK    7  A    between atoms: C_16  and  C_18
REMARK                            x       y       z     vdW  Elec       q    Type
REMARK                         _______ _______ _______ _____ _____    ______ ____
ROOT
ATOM      5  N   UNL     1       9.854   5.822   7.492  0.00  0.00    -0.293 NA
ATOM      9  C   UNL     1       9.010   7.975   7.789  0.00  0.00    +0.089 C 
ATOM     10  C   UNL     1       9.261   6.152   6.182  0.00  0.00    +0.147 C 
ATOM     11  C   UNL     1       8.833   7.627   6.311  0.00  0.00    +0.052 C 
ATOM     12  C   UNL     1       9.121   6.624   8.478  0.00  0.00    +0.107 C 
ATOM     14  C   UNL     1       9.806   4.399   7.803  0.00  0.00    +0.105 C 
ENDROOT
BRANCH  10  13
ATOM      2  O   UNL     1      11.387   6.578   5.055  0.00  0.00    -0.336 OA
ATOM      7  N   UNL     1      10.038   5.164   3.960  0.00  0.00    -0.190 NA
ATOM      8  N   UNL     1      12.072   6.209   3.891  0.00  0.00    -0.056 NA
ATOM     13  C   UNL     1      10.200   5.918   5.018  0.00  0.00    +0.245 A 
ATOM     16  C   UNL     1      11.213   5.374   3.299  0.00  0.00    +0.202 A 
BRANCH  16  18
ATOM      1 CL   UNL     1      12.395   2.727  -1.891  0.00  0.00    -0.084 Cl
ATOM     18  C   UNL     1      11.497   4.734   2.046  0.00  0.00    +0.023 A 
ATOM     19  C   UNL     1      12.632   3.935   1.914  0.00  0.00    +0.013 A 
ATOM     20  C   UNL     1      10.639   4.913   0.961  0.00  0.00    +0.013 A 
ATOM     22  C   UNL     1      12.910   3.313   0.696  0.00  0.00    +0.021 A 
ATOM     23  C   UNL     1      10.917   4.293  -0.256  0.00  0.00    +0.021 A 
ATOM     24  C   UNL     1      12.052   3.493  -0.389  0.00  0.00    +0.041 A 
ENDBRANCH  16  18
ENDBRANCH  10  13
BRANCH   9   6
ATOM      3  O   UNL     1       9.117  10.716   8.704  0.00  0.00    -0.272 OA
ATOM      6  N   UNL     1      10.191   8.776   8.007  0.00  0.00    -0.308 N 
ATOM     15  C   UNL     1      10.141  10.088   8.450  0.00  0.00    +0.251 C 
ATOM     30  H   UNL     1      11.094   8.370   7.772  0.00  0.00    +0.149 HD
BRANCH  15  17
ATOM     17  C   UNL     1      11.525  10.685   8.592  0.00  0.00    +0.324 C 
BRANCH  17   4
ATOM      4  O   UNL     1      12.048  11.037   7.329  0.00  0.00    -0.483 OA
BRANCH   4  21
ATOM     21  C   UNL     1      13.245  10.466   6.964  0.00  0.00    +0.121 A 
ATOM     25  C   UNL     1      13.308   9.102   6.678  0.00  0.00    +0.045 A 
ATOM     26  C   UNL     1      14.395  11.250   6.879  0.00  0.00    +0.045 A 
ATOM     27  C   UNL     1      14.521   8.523   6.309  0.00  0.00    +0.004 A 
ATOM     28  C   UNL     1      15.608  10.671   6.508  0.00  0.00    +0.004 A 
ATOM     29  C   UNL     1      15.672   9.307   6.223  0.00  0.00    +0.000 A 
ENDBRANCH   4  21
ENDBRANCH  17   4
ENDBRANCH  15  17
ENDBRANCH   9   6
TORSDOF 6
ENDMDL
MODEL 10
REMARK VINA RESULT:      -6.5      3.963      7.275
REMARK  Name = 25338403
REMARK  7 active torsions:
REMARK  status: ('A' for Active; 'I' for Inactive)
REMARK    1  A    between atoms: O_4  and  C_17
REMARK    2  A    between atoms: O_4  and  C_21
REMARK    3  A    between atoms: N_5  and  C_14
REMARK    4  A    between atoms: N_6  and  C_9
REMARK    5  A    between atoms: C_10  and  C_13
REMARK    6  A    between atoms: C_15  and  C_17
REMARK    7  A    between atoms: C_16  and  C_18
REMARK                            x       y       z     vdW  Elec       q    Type
REMARK                         _______ _______ _______ _____ _____    ______ ____
ROOT
ATOM      5  N   UNL     1      -5.759 -11.998  16.581  0.00  0.00    -0.293 NA
ATOM      9  C   UNL     1      -3.746 -10.822  16.615  0.00  0.00    +0.089 C 
ATOM     10  C   UNL     1      -6.101 -10.733  17.259  0.00  0.00    +0.147 C 
ATOM     11  C   UNL     1      -4.822  -9.880  17.155  0.00  0.00    +0.052 C 
ATOM     12  C   UNL     1      -4.328 -12.211  16.827  0.00  0.00    +0.107 C 
ATOM     14  C   UNL     1      -6.562 -13.127  17.032  0.00  0.00    +0.105 C 
ENDROOT
BRANCH  10  13
ATOM      2  O   UNL     1      -7.919  -9.112  17.452  0.00  0.00    -0.336 OA
ATOM      7  N   UNL     1      -7.873 -10.206  15.497  0.00  0.00    -0.190 NA
ATOM      8  N   UNL     1      -8.995  -8.618  16.703  0.00  0.00    -0.056 NA
ATOM     13  C   UNL     1      -7.312 -10.041  16.669  0.00  0.00    +0.245 A 
ATOM     16  C   UNL     1      -8.901  -9.311  15.564  0.00  0.00    +0.202 A 
BRANCH  16  18
ATOM      1 CL   UNL     1     -12.701  -8.584  11.051  0.00  0.00    -0.084 Cl
ATOM     18  C   UNL     1      -9.817  -9.134  14.474  0.00  0.00    +0.023 A 
ATOM     19  C   UNL     1     -10.968  -8.368  14.650  0.00  0.00    +0.013 A 
ATOM     20  C   UNL     1      -9.556  -9.731  13.241  0.00  0.00    +0.013 A 
ATOM     22  C   UNL     1     -11.861  -8.197  13.591  0.00  0.00    +0.021 A 
ATOM     23  C   UNL     1     -10.449  -9.561  12.182  0.00  0.00    +0.021 A 
ATOM     24  C   UNL     1     -11.601  -8.794  12.357  0.00  0.00    +0.041 A 
ENDBRANCH  16  18
ENDBRANCH  10  13
BRANCH   9   6
ATOM      3  O   UNL     1      -1.257 -11.268  15.212  0.00  0.00    -0.272 OA
ATOM      6  N   UNL     1      -3.475 -10.573  15.219  0.00  0.00    -0.308 N 
ATOM     15  C   UNL     1      -2.243 -10.820  14.634  0.00  0.00    +0.251 C 
ATOM     30  H   UNL     1      -4.209 -10.147  14.659  0.00  0.00    +0.149 HD
BRANCH  15  17
ATOM     17  C   UNL     1      -2.241 -10.469  13.162  0.00  0.00    +0.324 C 
BRANCH  17   4
ATOM      4  O   UNL     1      -3.428 -10.914  12.541  0.00  0.00    -0.483 OA
BRANCH   4  21
ATOM     21  C   UNL     1      -3.999 -10.079  11.608  0.00  0.00    +0.121 A 
ATOM     25  C   UNL     1      -3.307  -9.763  10.440  0.00  0.00    +0.045 A 
ATOM     26  C   UNL     1      -5.270  -9.551  11.831  0.00  0.00    +0.045 A 
ATOM     27  C   UNL     1      -3.886  -8.917   9.494  0.00  0.00    +0.004 A 
ATOM     28  C   UNL     1      -5.850  -8.706  10.885  0.00  0.00    +0.004 A 
ATOM     29  C   UNL     1      -5.157  -8.388   9.716  0.00  0.00    +0.000 A 
ENDBRANCH   4  21
ENDBRANCH  17   4
ENDBRANCH  15  17
ENDBRANCH   9   6
TORSDOF 6
ENDMDL
