MODEL 1
REMARK VINA RESULT:      -7.9      0.000      0.000
REMARK  Name = 7143951
REMARK  3 active torsions:
REMARK  status: ('A' for Active; 'I' for Inactive)
REMARK    1  A    between atoms: N_2  and  C_11
REMARK    2  A    between atoms: C_11  and  C_16
REMARK    3  A    between atoms: C_14  and  C_17
REMARK                            x       y       z     vdW  Elec       q    Type
REMARK                         _______ _______ _______ _____ _____    ______ ____
ROOT
ATOM      1  O   UNL     1      -6.213 -11.634  11.014  0.00  0.00    -0.267 OA
ATOM      2  N   UNL     1      -3.208 -11.122  14.995  0.00  0.00    -0.297 NA
ATOM      3  N   UNL     1      -4.093 -11.688  11.983  0.00  0.00    -0.311 N 
ATOM      4  C   UNL     1      -3.464 -13.334  13.845  0.00  0.00    +0.024 C 
ATOM      5  C   UNL     1      -1.801 -11.735  13.024  0.00  0.00    +0.050 C 
ATOM      6  C   UNL     1      -2.059 -13.220  13.269  0.00  0.00    +0.017 C 
ATOM      7  C   UNL     1      -3.562 -12.536  15.162  0.00  0.00    +0.090 C 
ATOM      8  C   UNL     1      -1.889 -10.968  14.364  0.00  0.00    +0.094 C 
ATOM      9  C   UNL     1      -4.472 -12.857  12.790  0.00  0.00    +0.130 C 
ATOM     10  C   UNL     1      -2.795 -11.173  12.025  0.00  0.00    +0.026 A 
ATOM     12  C   UNL     1      -2.440 -10.177  11.198  0.00  0.00    +0.022 A 
ATOM     13  C   UNL     1      -5.070 -11.184  11.102  0.00  0.00    +0.259 A 
ATOM     14  C   UNL     1      -4.651 -10.045  10.212  0.00  0.00    +0.047 A 
ATOM     15  C   UNL     1      -3.387  -9.604  10.284  0.00  0.00    +0.015 A 
ENDROOT
BRANCH  14  17
ATOM     17  C   UNL     1      -5.604  -9.412   9.283  0.00  0.00    -0.012 A 
ATOM     20  C   UNL     1      -5.618  -9.782   7.937  0.00  0.00    +0.017 A 
ATOM     21  C   UNL     1      -6.492  -8.444   9.748  0.00  0.00    +0.009 A 
ATOM     24  C   UNL     1      -6.521  -9.188   7.040  0.00  0.00    -0.017 A 
ATOM     26  C   UNL     1      -7.395  -7.844   8.870  0.00  0.00    +0.009 A 
ATOM     27  C   UNL     1      -7.422  -8.204   7.513  0.00  0.00    -0.018 A 
ATOM     28  C   UNL     1      -6.548  -9.549   5.682  0.00  0.00    +0.008 A 
ATOM     29  C   UNL     1      -8.325  -7.611   6.615  0.00  0.00    +0.008 A 
ATOM     30  C   UNL     1      -7.452  -8.948   4.805  0.00  0.00    +0.001 A 
ATOM     31  C   UNL     1      -8.338  -7.981   5.271  0.00  0.00    +0.001 A 
ENDBRANCH  14  17
BRANCH   2  11
ATOM     11  C   UNL     1      -3.261 -10.413  16.272  0.00  0.00    +0.119 C 
BRANCH  11  16
ATOM     16  C   UNL     1      -4.677 -10.283  16.761  0.00  0.00    -0.033 A 
ATOM     18  C   UNL     1      -5.010 -10.749  18.026  0.00  0.00    +0.005 A 
ATOM     19  C   UNL     1      -5.634  -9.699  15.941  0.00  0.00    +0.005 A 
ATOM     22  C   UNL     1      -6.324 -10.627  18.480  0.00  0.00    +0.000 A 
ATOM     23  C   UNL     1      -6.948  -9.578  16.396  0.00  0.00    +0.000 A 
ATOM     25  C   UNL     1      -7.292 -10.041  17.665  0.00  0.00    +0.000 A 
ENDBRANCH  11  16
ENDBRANCH   2  11
TORSDOF 3
ENDMDL
MODEL 2
REMARK VINA RESULT:      -7.9     27.154     29.114
REMARK  Name = 7143951
REMARK  3 active torsions:
REMARK  status: ('A' for Active; 'I' for Inactive)
REMARK    1  A    between atoms: N_2  and  C_11
REMARK    2  A    between atoms: C_11  and  C_16
REMARK    3  A    between atoms: C_14  and  C_17
REMARK                            x       y       z     vdW  Elec       q    Type
REMARK                         _______ _______ _______ _____ _____    ______ ____
ROOT
ATOM      1  O   UNL     1      13.923  12.103  18.114  0.00  0.00    -0.267 OA
ATOM      2  N   UNL     1      13.888   8.123  21.165  0.00  0.00    -0.297 NA
ATOM      3  N   UNL     1      12.909  10.162  18.915  0.00  0.00    -0.311 N 
ATOM      4  C   UNL     1      12.134   9.905  21.344  0.00  0.00    +0.024 C 
ATOM      5  C   UNL     1      11.817   8.059  19.768  0.00  0.00    +0.050 C 
ATOM      6  C   UNL     1      11.090   8.966  20.757  0.00  0.00    +0.017 C 
ATOM      7  C   UNL     1      13.238   9.093  22.054  0.00  0.00    +0.090 C 
ATOM      8  C   UNL     1      12.902   7.248  20.512  0.00  0.00    +0.094 C 
ATOM      9  C   UNL     1      12.686  10.795  20.222  0.00  0.00    +0.130 C 
ATOM     10  C   UNL     1      12.439   8.873  18.648  0.00  0.00    +0.026 A 
ATOM     12  C   UNL     1      12.554   8.357  17.414  0.00  0.00    +0.022 A 
ATOM     13  C   UNL     1      13.526  10.952  17.925  0.00  0.00    +0.259 A 
ATOM     14  C   UNL     1      13.672  10.332  16.561  0.00  0.00    +0.047 A 
ATOM     15  C   UNL     1      13.185   9.099  16.360  0.00  0.00    +0.015 A 
ENDROOT
BRANCH  14  17
ATOM     17  C   UNL     1      14.341  11.052  15.463  0.00  0.00    -0.012 A 
ATOM     20  C   UNL     1      15.734  11.123  15.419  0.00  0.00    +0.017 A 
ATOM     21  C   UNL     1      13.582  11.665  14.468  0.00  0.00    +0.009 A 
ATOM     24  C   UNL     1      16.385  11.805  14.379  0.00  0.00    -0.017 A 
ATOM     26  C   UNL     1      14.212  12.347  13.427  0.00  0.00    +0.009 A 
ATOM     27  C   UNL     1      15.614  12.427  13.368  0.00  0.00    -0.018 A 
ATOM     28  C   UNL     1      17.786  11.885  14.320  0.00  0.00    +0.008 A 
ATOM     29  C   UNL     1      16.265  13.109  12.328  0.00  0.00    +0.008 A 
ATOM     30  C   UNL     1      18.417  12.567  13.279  0.00  0.00    +0.001 A 
ATOM     31  C   UNL     1      17.658  13.178  12.285  0.00  0.00    +0.001 A 
ENDBRANCH  14  17
BRANCH   2  11
ATOM     11  C   UNL     1      14.887   7.338  21.885  0.00  0.00    +0.119 C 
BRANCH  11  16
ATOM     16  C   UNL     1      15.949   6.826  20.952  0.00  0.00    -0.033 A 
ATOM     18  C   UNL     1      17.251   6.680  21.412  0.00  0.00    +0.005 A 
ATOM     19  C   UNL     1      15.615   6.505  19.643  0.00  0.00    +0.005 A 
ATOM     22  C   UNL     1      18.236   6.203  20.546  0.00  0.00    +0.000 A 
ATOM     23  C   UNL     1      16.600   6.030  18.778  0.00  0.00    +0.000 A 
ATOM     25  C   UNL     1      17.911   5.878  19.230  0.00  0.00    +0.000 A 
ENDBRANCH  11  16
ENDBRANCH   2  11
TORSDOF 3
ENDMDL
MODEL 3
REMARK VINA RESULT:      -7.8     22.916     24.863
REMARK  Name = 7143951
REMARK  3 active torsions:
REMARK  status: ('A' for Active; 'I' for Inactive)
REMARK    1  A    between atoms: N_2  and  C_11
REMARK    2  A    between atoms: C_11  and  C_16
REMARK    3  A    between atoms: C_14  and  C_17
REMARK                            x       y       z     vdW  Elec       q    Type
REMARK                         _______ _______ _______ _____ _____    ______ ____
ROOT
ATOM      1  O   UNL     1      10.241   3.823   3.324  0.00  0.00    -0.267 OA
ATOM      2  N   UNL     1       9.124   7.998   5.867  0.00  0.00    -0.297 NA
ATOM      3  N   UNL     1      10.855   5.561   4.751  0.00  0.00    -0.311 N 
ATOM      4  C   UNL     1       9.794   5.897   7.060  0.00  0.00    +0.024 C 
ATOM      5  C   UNL     1      11.525   7.444   6.283  0.00  0.00    +0.050 C 
ATOM      6  C   UNL     1      11.139   6.510   7.426  0.00  0.00    +0.017 C 
ATOM      7  C   UNL     1       8.738   7.008   6.880  0.00  0.00    +0.090 C 
ATOM      8  C   UNL     1      10.458   8.554   6.140  0.00  0.00    +0.094 C 
ATOM      9  C   UNL     1       9.968   5.039   5.800  0.00  0.00    +0.130 C 
ATOM     10  C   UNL     1      11.667   6.675   4.982  0.00  0.00    +0.026 A 
ATOM     12  C   UNL     1      12.550   7.068   4.052  0.00  0.00    +0.022 A 
ATOM     13  C   UNL     1      10.916   4.828   3.550  0.00  0.00    +0.259 A 
ATOM     14  C   UNL     1      11.892   5.314   2.512  0.00  0.00    +0.047 A 
ATOM     15  C   UNL     1      12.657   6.378   2.797  0.00  0.00    +0.015 A 
ENDROOT
BRANCH  14  17
ATOM     17  C   UNL     1      12.008   4.648   1.203  0.00  0.00    -0.012 A 
ATOM     20  C   UNL     1      11.068   4.902   0.204  0.00  0.00    +0.017 A 
ATOM     21  C   UNL     1      13.058   3.764   0.962  0.00  0.00    +0.009 A 
ATOM     24  C   UNL     1      11.166   4.276  -1.050  0.00  0.00    -0.017 A 
ATOM     26  C   UNL     1      13.171   3.133  -0.277  0.00  0.00    +0.009 A 
ATOM     27  C   UNL     1      12.232   3.377  -1.294  0.00  0.00    -0.018 A 
ATOM     28  C   UNL     1      10.228   4.520  -2.066  0.00  0.00    +0.008 A 
ATOM     29  C   UNL     1      12.330   2.751  -2.547  0.00  0.00    +0.008 A 
ATOM     30  C   UNL     1      10.340   3.889  -3.305  0.00  0.00    +0.001 A 
ATOM     31  C   UNL     1      11.389   3.006  -3.545  0.00  0.00    +0.001 A 
ENDBRANCH  14  17
BRANCH   2  11
ATOM     11  C   UNL     1       8.126   9.060   5.764  0.00  0.00    +0.119 C 
BRANCH  11  16
ATOM     16  C   UNL     1       7.660   9.229   4.345  0.00  0.00    -0.033 A 
ATOM     18  C   UNL     1       6.519   9.976   4.084  0.00  0.00    +0.005 A 
ATOM     19  C   UNL     1       8.376   8.637   3.313  0.00  0.00    +0.005 A 
ATOM     22  C   UNL     1       6.087  10.134   2.766  0.00  0.00    +0.000 A 
ATOM     23  C   UNL     1       7.944   8.794   1.996  0.00  0.00    +0.000 A 
ATOM     25  C   UNL     1       6.799   9.544   1.723  0.00  0.00    +0.000 A 
ENDBRANCH  11  16
ENDBRANCH   2  11
TORSDOF 3
ENDMDL
MODEL 4
REMARK VINA RESULT:      -7.6     18.351     21.413
REMARK  Name = 7143951
REMARK  3 active torsions:
REMARK  status: ('A' for Active; 'I' for Inactive)
REMARK    1  A    between atoms: N_2  and  C_11
REMARK    2  A    between atoms: C_11  and  C_16
REMARK    3  A    between atoms: C_14  and  C_17
REMARK                            x       y       z     vdW  Elec       q    Type
REMARK                         _______ _______ _______ _____ _____    ______ ____
ROOT
ATOM      1  O   UNL     1      -6.477   9.617   5.240  0.00  0.00    -0.267 OA
ATOM      2  N   UNL     1      -1.730  10.364   3.807  0.00  0.00    -0.297 NA
ATOM      3  N   UNL     1      -4.187   9.279   5.527  0.00  0.00    -0.311 N 
ATOM      4  C   UNL     1      -2.557  11.193   6.023  0.00  0.00    +0.024 C 
ATOM      5  C   UNL     1      -1.717   8.902   5.833  0.00  0.00    +0.050 C 
ATOM      6  C   UNL     1      -1.752  10.123   6.747  0.00  0.00    +0.017 C 
ATOM      7  C   UNL     1      -1.889  11.537   4.674  0.00  0.00    +0.090 C 
ATOM      8  C   UNL     1      -1.027   9.274   4.500  0.00  0.00    +0.094 C 
ATOM      9  C   UNL     1      -4.000  10.699   5.857  0.00  0.00    +0.130 C 
ATOM     10  C   UNL     1      -3.118   8.380   5.577  0.00  0.00    +0.026 A 
ATOM     12  C   UNL     1      -3.332   7.069   5.381  0.00  0.00    +0.022 A 
ATOM     13  C   UNL     1      -5.505   8.859   5.259  0.00  0.00    +0.259 A 
ATOM     14  C   UNL     1      -5.707   7.388   5.010  0.00  0.00    +0.047 A 
ATOM     15  C   UNL     1      -4.646   6.571   5.089  0.00  0.00    +0.015 A 
ENDROOT
BRANCH  14  17
ATOM     17  C   UNL     1      -7.036   6.846   4.678  0.00  0.00    -0.012 A 
ATOM     20  C   UNL     1      -7.738   7.340   3.578  0.00  0.00    +0.017 A 
ATOM     21  C   UNL     1      -7.593   5.838   5.463  0.00  0.00    +0.009 A 
ATOM     24  C   UNL     1      -9.006   6.833   3.249  0.00  0.00    -0.017 A 
ATOM     26  C   UNL     1      -8.851   5.322   5.151  0.00  0.00    +0.009 A 
ATOM     27  C   UNL     1      -9.571   5.809   4.047  0.00  0.00    -0.018 A 
ATOM     28  C   UNL     1      -9.726   7.320   2.145  0.00  0.00    +0.008 A 
ATOM     29  C   UNL     1     -10.838   5.302   3.718  0.00  0.00    +0.008 A 
ATOM     30  C   UNL     1     -10.984   6.804   1.833  0.00  0.00    +0.001 A 
ATOM     31  C   UNL     1     -11.539   5.797   2.618  0.00  0.00    +0.001 A 
ENDBRANCH  14  17
BRANCH   2  11
ATOM     11  C   UNL     1      -1.047  10.719   2.566  0.00  0.00    +0.119 C 
BRANCH  11  16
ATOM     16  C   UNL     1      -1.808  10.222   1.367  0.00  0.00    -0.033 A 
ATOM     18  C   UNL     1      -3.181  10.414   1.300  0.00  0.00    +0.005 A 
ATOM     19  C   UNL     1      -1.127   9.578   0.342  0.00  0.00    +0.005 A 
ATOM     22  C   UNL     1      -3.886   9.953   0.188  0.00  0.00    +0.000 A 
ATOM     23  C   UNL     1      -1.832   9.117  -0.769  0.00  0.00    +0.000 A 
ATOM     25  C   UNL     1      -3.212   9.306  -0.847  0.00  0.00    +0.000 A 
ENDBRANCH  11  16
ENDBRANCH   2  11
TORSDOF 3
ENDMDL
MODEL 5
REMARK VINA RESULT:      -7.6      3.162      6.310
REMARK  Name = 7143951
REMARK  3 active torsions:
REMARK  status: ('A' for Active; 'I' for Inactive)
REMARK    1  A    between atoms: N_2  and  C_11
REMARK    2  A    between atoms: C_11  and  C_16
REMARK    3  A    between atoms: C_14  and  C_17
REMARK                            x       y       z     vdW  Elec       q    Type
REMARK                         _______ _______ _______ _____ _____    ______ ____
ROOT
ATOM      1  O   UNL     1      -7.119 -12.415  14.485  0.00  0.00    -0.267 OA
ATOM      2  N   UNL     1      -9.593 -10.788  18.531  0.00  0.00    -0.297 NA
ATOM      3  N   UNL     1      -7.240 -12.048  16.784  0.00  0.00    -0.311 N 
ATOM      4  C   UNL     1      -8.971 -13.203  18.281  0.00  0.00    +0.024 C 
ATOM      5  C   UNL     1      -7.363 -11.642  19.266  0.00  0.00    +0.050 C 
ATOM      6  C   UNL     1      -7.910 -13.063  19.364  0.00  0.00    +0.017 C 
ATOM      7  C   UNL     1     -10.093 -12.167  18.502  0.00  0.00    +0.090 C 
ATOM      8  C   UNL     1      -8.506 -10.630  19.510  0.00  0.00    +0.094 C 
ATOM      9  C   UNL     1      -8.299 -13.060  16.909  0.00  0.00    +0.130 C 
ATOM     10  C   UNL     1      -6.723 -11.403  17.911  0.00  0.00    +0.026 A 
ATOM     12  C   UNL     1      -5.682 -10.565  17.787  0.00  0.00    +0.022 A 
ATOM     13  C   UNL     1      -6.711 -11.840  15.495  0.00  0.00    +0.259 A 
ATOM     14  C   UNL     1      -5.566 -10.869  15.385  0.00  0.00    +0.047 A 
ATOM     15  C   UNL     1      -5.101 -10.294  16.503  0.00  0.00    +0.015 A 
ENDROOT
BRANCH  14  17
ATOM     17  C   UNL     1      -4.965 -10.544  14.079  0.00  0.00    -0.012 A 
ATOM     20  C   UNL     1      -5.700  -9.835  13.129  0.00  0.00    +0.017 A 
ATOM     21  C   UNL     1      -3.662 -10.944  13.793  0.00  0.00    +0.009 A 
ATOM     24  C   UNL     1      -5.141  -9.516  11.880  0.00  0.00    -0.017 A 
ATOM     26  C   UNL     1      -3.090 -10.637  12.558  0.00  0.00    +0.009 A 
ATOM     27  C   UNL     1      -3.817  -9.924  11.590  0.00  0.00    -0.018 A 
ATOM     28  C   UNL     1      -5.867  -8.803  10.912  0.00  0.00    +0.008 A 
ATOM     29  C   UNL     1      -3.257  -9.605  10.342  0.00  0.00    +0.008 A 
ATOM     30  C   UNL     1      -5.296  -8.496   9.677  0.00  0.00    +0.001 A 
ATOM     31  C   UNL     1      -3.993  -8.896   9.393  0.00  0.00    +0.001 A 
ENDBRANCH  14  17
BRANCH   2  11
ATOM     11  C   UNL     1     -10.675  -9.843  18.796  0.00  0.00    +0.119 C 
BRANCH  11  16
ATOM     16  C   UNL     1     -10.885  -8.918  17.629  0.00  0.00    -0.033 A 
ATOM     18  C   UNL     1     -12.120  -8.884  16.996  0.00  0.00    +0.005 A 
ATOM     19  C   UNL     1      -9.840  -8.111  17.198  0.00  0.00    +0.005 A 
ATOM     22  C   UNL     1     -12.315  -8.025  15.914  0.00  0.00    +0.000 A 
ATOM     23  C   UNL     1     -10.035  -7.253  16.115  0.00  0.00    +0.000 A 
ATOM     25  C   UNL     1     -11.272  -7.210  15.474  0.00  0.00    +0.000 A 
ENDBRANCH  11  16
ENDBRANCH   2  11
TORSDOF 3
ENDMDL
MODEL 6
REMARK VINA RESULT:      -7.5     24.126     26.064
REMARK  Name = 7143951
REMARK  3 active torsions:
REMARK  status: ('A' for Active; 'I' for Inactive)
REMARK    1  A    between atoms: N_2  and  C_11
REMARK    2  A    between atoms: C_11  and  C_16
REMARK    3  A    between atoms: C_14  and  C_17
REMARK                            x       y       z     vdW  Elec       q    Type
REMARK                         _______ _______ _______ _____ _____    ______ ____
ROOT
ATOM      1  O   UNL     1      12.179   7.820   2.380  0.00  0.00    -0.267 OA
ATOM      2  N   UNL     1      13.551   4.251  -0.864  0.00  0.00    -0.297 NA
ATOM      3  N   UNL     1      12.768   5.613   1.912  0.00  0.00    -0.311 N 
ATOM      4  C   UNL     1      15.072   4.960   0.998  0.00  0.00    +0.024 C 
ATOM      5  C   UNL     1      13.393   3.227   1.409  0.00  0.00    +0.050 C 
ATOM      6  C   UNL     1      14.825   3.646   1.727  0.00  0.00    +0.017 C 
ATOM      7  C   UNL     1      14.882   4.766  -0.521  0.00  0.00    +0.090 C 
ATOM      8  C   UNL     1      13.240   3.024  -0.116  0.00  0.00    +0.094 C 
ATOM      9  C   UNL     1      14.138   6.030   1.578  0.00  0.00    +0.130 C 
ATOM     10  C   UNL     1      12.404   4.264   1.908  0.00  0.00    +0.026 A 
ATOM     12  C   UNL     1      11.182   3.896   2.324  0.00  0.00    +0.022 A 
ATOM     13  C   UNL     1      11.882   6.625   2.331  0.00  0.00    +0.259 A 
ATOM     14  C   UNL     1      10.509   6.184   2.759  0.00  0.00    +0.047 A 
ATOM     15  C   UNL     1      10.222   4.874   2.750  0.00  0.00    +0.015 A 
ENDROOT
BRANCH  14  17
ATOM     17  C   UNL     1       9.488   7.162   3.174  0.00  0.00    -0.012 A 
ATOM     20  C   UNL     1       8.791   7.897   2.214  0.00  0.00    +0.017 A 
ATOM     21  C   UNL     1       9.218   7.355   4.528  0.00  0.00    +0.009 A 
ATOM     24  C   UNL     1       7.815   8.832   2.594  0.00  0.00    -0.017 A 
ATOM     26  C   UNL     1       8.251   8.280   4.924  0.00  0.00    +0.009 A 
ATOM     27  C   UNL     1       7.541   9.028   3.969  0.00  0.00    -0.018 A 
ATOM     28  C   UNL     1       7.105   9.579   1.640  0.00  0.00    +0.008 A 
ATOM     29  C   UNL     1       6.565   9.963   4.350  0.00  0.00    +0.008 A 
ATOM     30  C   UNL     1       6.139  10.504   2.036  0.00  0.00    +0.001 A 
ATOM     31  C   UNL     1       5.870  10.696   3.388  0.00  0.00    +0.001 A 
ENDBRANCH  14  17
BRANCH   2  11
ATOM     11  C   UNL     1      13.429   4.031  -2.303  0.00  0.00    +0.119 C 
BRANCH  11  16
ATOM     16  C   UNL     1      11.985   3.950  -2.718  0.00  0.00    -0.033 A 
ATOM     18  C   UNL     1      11.537   2.840  -3.421  0.00  0.00    +0.005 A 
ATOM     19  C   UNL     1      11.120   4.986  -2.392  0.00  0.00    +0.005 A 
ATOM     22  C   UNL     1      10.197   2.765  -3.805  0.00  0.00    +0.000 A 
ATOM     23  C   UNL     1       9.781   4.911  -2.777  0.00  0.00    +0.000 A 
ATOM     25  C   UNL     1       9.320   3.800  -3.483  0.00  0.00    +0.000 A 
ENDBRANCH  11  16
ENDBRANCH   2  11
TORSDOF 3
ENDMDL
MODEL 7
REMARK VINA RESULT:      -7.5     23.456     25.415
REMARK  Name = 7143951
REMARK  3 active torsions:
REMARK  status: ('A' for Active; 'I' for Inactive)
REMARK    1  A    between atoms: N_2  and  C_11
REMARK    2  A    between atoms: C_11  and  C_16
REMARK    3  A    between atoms: C_14  and  C_17
REMARK                            x       y       z     vdW  Elec       q    Type
REMARK                         _______ _______ _______ _____ _____    ______ ____
ROOT
ATOM      1  O   UNL     1      10.223   7.232   1.907  0.00  0.00    -0.267 OA
ATOM      2  N   UNL     1      10.769   8.595   6.702  0.00  0.00    -0.297 NA
ATOM      3  N   UNL     1       9.638   7.040   4.156  0.00  0.00    -0.311 N 
ATOM      4  C   UNL     1       8.609   8.973   5.488  0.00  0.00    +0.024 C 
ATOM      5  C   UNL     1       9.012   6.822   6.585  0.00  0.00    +0.050 C 
ATOM      6  C   UNL     1       7.939   7.867   6.292  0.00  0.00    +0.017 C 
ATOM      7  C   UNL     1       9.768   9.590   6.298  0.00  0.00    +0.090 C 
ATOM      8  C   UNL     1      10.149   7.466   7.412  0.00  0.00    +0.094 C 
ATOM      9  C   UNL     1       9.070   8.396   4.143  0.00  0.00    +0.130 C 
ATOM     10  C   UNL     1       9.559   6.237   5.296  0.00  0.00    +0.026 A 
ATOM     12  C   UNL     1       9.983   4.964   5.253  0.00  0.00    +0.022 A 
ATOM     13  C   UNL     1      10.168   6.564   2.941  0.00  0.00    +0.259 A 
ATOM     14  C   UNL     1      10.666   5.144   2.933  0.00  0.00    +0.047 A 
ATOM     15  C   UNL     1      10.549   4.415   4.053  0.00  0.00    +0.015 A 
ENDROOT
BRANCH  14  17
ATOM     17  C   UNL     1      11.280   4.557   1.729  0.00  0.00    -0.012 A 
ATOM     20  C   UNL     1      10.600   4.588   0.511  0.00  0.00    +0.017 A 
ATOM     21  C   UNL     1      12.541   3.969   1.806  0.00  0.00    +0.009 A 
ATOM     24  C   UNL     1      11.172   4.033  -0.645  0.00  0.00    -0.017 A 
ATOM     26  C   UNL     1      13.125   3.413   0.668  0.00  0.00    +0.009 A 
ATOM     27  C   UNL     1      12.453   3.436  -0.566  0.00  0.00    -0.018 A 
ATOM     28  C   UNL     1      10.500   4.056  -1.878  0.00  0.00    +0.008 A 
ATOM     29  C   UNL     1      13.026   2.881  -1.722  0.00  0.00    +0.008 A 
ATOM     30  C   UNL     1      11.084   3.500  -3.017  0.00  0.00    +0.001 A 
ATOM     31  C   UNL     1      12.344   2.913  -2.939  0.00  0.00    +0.001 A 
ENDBRANCH  14  17
BRANCH   2  11
ATOM     11  C   UNL     1      11.820   9.206   7.511  0.00  0.00    +0.119 C 
BRANCH  11  16
ATOM     16  C   UNL     1      13.182   8.895   6.955  0.00  0.00    -0.033 A 
ATOM     18  C   UNL     1      14.016   9.934   6.564  0.00  0.00    +0.005 A 
ATOM     19  C   UNL     1      13.589   7.571   6.839  0.00  0.00    +0.005 A 
ATOM     22  C   UNL     1      15.280   9.644   6.049  0.00  0.00    +0.000 A 
ATOM     23  C   UNL     1      14.852   7.283   6.323  0.00  0.00    +0.000 A 
ATOM     25  C   UNL     1      15.698   8.319   5.929  0.00  0.00    +0.000 A 
ENDBRANCH  11  16
ENDBRANCH   2  11
TORSDOF 3
ENDMDL
MODEL 8
REMARK VINA RESULT:      -7.5     19.988     22.522
REMARK  Name = 7143951
REMARK  3 active torsions:
REMARK  status: ('A' for Active; 'I' for Inactive)
REMARK    1  A    between atoms: N_2  and  C_11
REMARK    2  A    between atoms: C_11  and  C_16
REMARK    3  A    between atoms: C_14  and  C_17
REMARK                            x       y       z     vdW  Elec       q    Type
REMARK                         _______ _______ _______ _____ _____    ______ ____
ROOT
ATOM      1  O   UNL     1     -15.052   8.735  20.427  0.00  0.00    -0.267 OA
ATOM      2  N   UNL     1     -11.613   9.402  16.840  0.00  0.00    -0.297 NA
ATOM      3  N   UNL     1     -12.839   9.045  19.763  0.00  0.00    -0.311 N 
ATOM      4  C   UNL     1     -12.037  11.167  18.569  0.00  0.00    +0.024 C 
ATOM      5  C   UNL     1     -10.446   9.369  19.049  0.00  0.00    +0.050 C 
ATOM      6  C   UNL     1     -10.703  10.861  19.237  0.00  0.00    +0.017 C 
ATOM      7  C   UNL     1     -11.973  10.806  17.070  0.00  0.00    +0.090 C 
ATOM      8  C   UNL     1     -10.370   9.044  17.540  0.00  0.00    +0.094 C 
ATOM      9  C   UNL     1     -13.147  10.410  19.310  0.00  0.00    +0.130 C 
ATOM     10  C   UNL     1     -11.534   8.546  19.714  0.00  0.00    +0.026 A 
ATOM     12  C   UNL     1     -11.255   7.342  20.236  0.00  0.00    +0.022 A 
ATOM     13  C   UNL     1     -13.898   8.314  20.337  0.00  0.00    +0.259 A 
ATOM     14  C   UNL     1     -13.559   6.953  20.882  0.00  0.00    +0.047 A 
ATOM     15  C   UNL     1     -12.287   6.534  20.822  0.00  0.00    +0.015 A 
ENDROOT
BRANCH  14  17
ATOM     17  C   UNL     1     -14.598   6.084  21.464  0.00  0.00    -0.012 A 
ATOM     20  C   UNL     1     -14.376   5.453  22.688  0.00  0.00    +0.017 A 
ATOM     21  C   UNL     1     -15.803   5.892  20.790  0.00  0.00    +0.009 A 
ATOM     24  C   UNL     1     -15.357   4.623  23.256  0.00  0.00    -0.017 A 
ATOM     26  C   UNL     1     -16.788   5.071  21.339  0.00  0.00    +0.009 A 
ATOM     27  C   UNL     1     -16.580   4.428  22.571  0.00  0.00    -0.018 A 
ATOM     28  C   UNL     1     -15.149   3.981  24.488  0.00  0.00    +0.008 A 
ATOM     29  C   UNL     1     -17.561   3.598  23.139  0.00  0.00    +0.008 A 
ATOM     30  C   UNL     1     -16.134   3.159  25.037  0.00  0.00    +0.001 A 
ATOM     31  C   UNL     1     -17.338   2.968  24.363  0.00  0.00    +0.001 A 
ENDBRANCH  14  17
BRANCH   2  11
ATOM     11  C   UNL     1     -11.509   9.113  15.412  0.00  0.00    +0.119 C 
BRANCH  11  16
ATOM     16  C   UNL     1     -12.719   8.366  14.921  0.00  0.00    -0.033 A 
ATOM     18  C   UNL     1     -12.687   7.756  13.674  0.00  0.00    +0.005 A 
ATOM     19  C   UNL     1     -13.852   8.296  15.721  0.00  0.00    +0.005 A 
ATOM     22  C   UNL     1     -13.809   7.063  13.220  0.00  0.00    +0.000 A 
ATOM     23  C   UNL     1     -14.974   7.603  15.266  0.00  0.00    +0.000 A 
ATOM     25  C   UNL     1     -14.952   6.986  14.015  0.00  0.00    +0.000 A 
ENDBRANCH  11  16
ENDBRANCH   2  11
TORSDOF 3
ENDMDL
MODEL 9
REMARK VINA RESULT:      -7.4     18.690     22.523
REMARK  Name = 7143951
REMARK  3 active torsions:
REMARK  status: ('A' for Active; 'I' for Inactive)
REMARK    1  A    between atoms: N_2  and  C_11
REMARK    2  A    between atoms: C_11  and  C_16
REMARK    3  A    between atoms: C_14  and  C_17
REMARK                            x       y       z     vdW  Elec       q    Type
REMARK                         _______ _______ _______ _____ _____    ______ ____
ROOT
ATOM      1  O   UNL     1      -5.917  10.575   3.672  0.00  0.00    -0.267 OA
ATOM      2  N   UNL     1      -1.395  10.117   1.553  0.00  0.00    -0.297 NA
ATOM      3  N   UNL     1      -3.604  10.331   3.844  0.00  0.00    -0.311 N 
ATOM      4  C   UNL     1      -1.957  12.097   2.984  0.00  0.00    +0.024 C 
ATOM      5  C   UNL     1      -1.108  10.055   4.034  0.00  0.00    +0.050 C 
ATOM      6  C   UNL     1      -1.051  11.579   4.092  0.00  0.00    +0.017 C 
ATOM      7  C   UNL     1      -1.466  11.582   1.614  0.00  0.00    +0.090 C 
ATOM      8  C   UNL     1      -0.594   9.571   2.659  0.00  0.00    +0.094 C 
ATOM      9  C   UNL     1      -3.401  11.677   3.288  0.00  0.00    +0.130 C 
ATOM     10  C   UNL     1      -2.522   9.559   4.276  0.00  0.00    +0.026 A 
ATOM     12  C   UNL     1      -2.736   8.381   4.882  0.00  0.00    +0.022 A 
ATOM     13  C   UNL     1      -4.937   9.908   4.009  0.00  0.00    +0.259 A 
ATOM     14  C   UNL     1      -5.143   8.567   4.662  0.00  0.00    +0.047 A 
ATOM     15  C   UNL     1      -4.068   7.879   5.071  0.00  0.00    +0.015 A 
ENDROOT
BRANCH  14  17
ATOM     17  C   UNL     1      -6.494   8.007   4.845  0.00  0.00    -0.012 A 
ATOM     20  C   UNL     1      -6.870   6.849   4.163  0.00  0.00    +0.017 A 
ATOM     21  C   UNL     1      -7.398   8.635   5.700  0.00  0.00    +0.009 A 
ATOM     24  C   UNL     1      -8.153   6.304   4.328  0.00  0.00    -0.017 A 
ATOM     26  C   UNL     1      -8.677   8.107   5.876  0.00  0.00    +0.009 A 
ATOM     27  C   UNL     1      -9.071   6.942   5.197  0.00  0.00    -0.018 A 
ATOM     28  C   UNL     1      -8.547   5.139   3.649  0.00  0.00    +0.008 A 
ATOM     29  C   UNL     1     -10.354   6.396   5.362  0.00  0.00    +0.008 A 
ATOM     30  C   UNL     1      -9.826   4.611   3.825  0.00  0.00    +0.001 A 
ATOM     31  C   UNL     1     -10.728   5.238   4.679  0.00  0.00    +0.001 A 
ENDBRANCH  14  17
BRANCH   2  11
ATOM     11  C   UNL     1      -0.876   9.671   0.262  0.00  0.00    +0.119 C 
BRANCH  11  16
ATOM     16  C   UNL     1      -1.883   9.892  -0.833  0.00  0.00    -0.033 A 
ATOM     18  C   UNL     1      -1.485  10.496  -2.018  0.00  0.00    +0.005 A 
ATOM     19  C   UNL     1      -3.199   9.488  -0.645  0.00  0.00    +0.005 A 
ATOM     22  C   UNL     1      -2.419  10.699  -3.033  0.00  0.00    +0.000 A 
ATOM     23  C   UNL     1      -4.133   9.693  -1.660  0.00  0.00    +0.000 A 
ATOM     25  C   UNL     1      -3.743  10.297  -2.855  0.00  0.00    +0.000 A 
ENDBRANCH  11  16
ENDBRANCH   2  11
TORSDOF 3
ENDMDL
MODEL 10
REMARK VINA RESULT:      -7.4     20.831     23.821
REMARK  Name = 7143951
REMARK  3 active torsions:
REMARK  status: ('A' for Active; 'I' for Inactive)
REMARK    1  A    between atoms: N_2  and  C_11
REMARK    2  A    between atoms: C_11  and  C_16
REMARK    3  A    between atoms: C_14  and  C_17
REMARK                            x       y       z     vdW  Elec       q    Type
REMARK                         _______ _______ _______ _____ _____    ______ ____
ROOT
ATOM      1  O   UNL     1       8.850 -11.992  32.054  0.00  0.00    -0.267 OA
ATOM      2  N   UNL     1       6.780  -8.576  35.085  0.00  0.00    -0.297 NA
ATOM      3  N   UNL     1       8.343  -9.777  32.576  0.00  0.00    -0.311 N 
ATOM      4  C   UNL     1       9.252  -8.605  34.667  0.00  0.00    +0.024 C 
ATOM      5  C   UNL     1       7.785  -7.386  33.131  0.00  0.00    +0.050 C 
ATOM      6  C   UNL     1       9.145  -7.341  33.824  0.00  0.00    +0.017 C 
ATOM      7  C   UNL     1       8.109  -8.649  35.703  0.00  0.00    +0.090 C 
ATOM      8  C   UNL     1       6.664  -7.410  34.195  0.00  0.00    +0.094 C 
ATOM      9  C   UNL     1       9.248  -9.823  33.734  0.00  0.00    +0.130 C 
ATOM     10  C   UNL     1       7.682  -8.597  32.224  0.00  0.00    +0.026 A 
ATOM     12  C   UNL     1       6.949  -8.547  31.101  0.00  0.00    +0.022 A 
ATOM     13  C   UNL     1       8.257 -10.945  31.793  0.00  0.00    +0.259 A 
ATOM     14  C   UNL     1       7.400 -10.866  30.558  0.00  0.00    +0.047 A 
ATOM     15  C   UNL     1       6.804  -9.702  30.261  0.00  0.00    +0.015 A 
ENDROOT
BRANCH  14  17
ATOM     17  C   UNL     1       7.204 -12.040  29.689  0.00  0.00    -0.012 A 
ATOM     20  C   UNL     1       6.132 -12.905  29.913  0.00  0.00    +0.017 A 
ATOM     21  C   UNL     1       8.090 -12.287  28.642  0.00  0.00    +0.009 A 
ATOM     24  C   UNL     1       5.932 -14.028  29.093  0.00  0.00    -0.017 A 
ATOM     26  C   UNL     1       7.907 -13.398  27.818  0.00  0.00    +0.009 A 
ATOM     27  C   UNL     1       6.833 -14.279  28.030  0.00  0.00    -0.018 A 
ATOM     28  C   UNL     1       4.859 -14.909  29.306  0.00  0.00    +0.008 A 
ATOM     29  C   UNL     1       6.633 -15.401  27.210  0.00  0.00    +0.008 A 
ATOM     30  C   UNL     1       4.676 -16.019  28.481  0.00  0.00    +0.001 A 
ATOM     31  C   UNL     1       5.561 -16.265  27.436  0.00  0.00    +0.001 A 
ENDBRANCH  14  17
BRANCH   2  11
ATOM     11  C   UNL     1       5.729  -8.565  36.099  0.00  0.00    +0.119 C 
BRANCH  11  16
ATOM     16  C   UNL     1       4.654  -9.566  35.776  0.00  0.00    -0.033 A 
ATOM     18  C   UNL     1       4.955 -10.661  34.978  0.00  0.00    +0.005 A 
ATOM     19  C   UNL     1       3.373  -9.382  36.280  0.00  0.00    +0.005 A 
ATOM     22  C   UNL     1       3.958 -11.590  34.679  0.00  0.00    +0.000 A 
ATOM     23  C   UNL     1       2.376 -10.310  35.981  0.00  0.00    +0.000 A 
ATOM     25  C   UNL     1       2.669 -11.415  35.181  0.00  0.00    +0.000 A 
ENDBRANCH  11  16
ENDBRANCH   2  11
TORSDOF 3
ENDMDL
