MODEL 1
REMARK VINA RESULT:      -6.9      0.000      0.000
REMARK  Name = 40533534
REMARK  5 active torsions:
REMARK  status: ('A' for Active; 'I' for Inactive)
REMARK    1  A    between atoms: S_1  and  N_6
REMARK    2  A    between atoms: S_1  and  C_20
REMARK    3  A    between atoms: O_5  and  C_28
REMARK    4  A    between atoms: O_5  and  C_31
REMARK    5  A    between atoms: C_18  and  C_21
REMARK                            x       y       z     vdW  Elec       q    Type
REMARK                         _______ _______ _______ _____ _____    ______ ____
ROOT
ATOM      4  O   UNL     1     -14.866   9.221  20.022  0.00  0.00    -0.267 OA
ATOM      6  N   UNL     1     -11.428   9.548  16.428  0.00  0.00    -0.176 NA
ATOM      7  N   UNL     1     -12.646   9.443  19.341  0.00  0.00    -0.311 N 
ATOM      9  C   UNL     1     -11.812  11.455  17.993  0.00  0.00    +0.025 C 
ATOM     10  C   UNL     1     -10.245   9.667  18.612  0.00  0.00    +0.052 C 
ATOM     11  C   UNL     1     -10.476  11.174  18.669  0.00  0.00    +0.017 C 
ATOM     12  C   UNL     1     -11.783  10.993  16.527  0.00  0.00    +0.114 C 
ATOM     13  C   UNL     1     -10.160   9.215  17.142  0.00  0.00    +0.119 C 
ATOM     14  C   UNL     1     -12.928  10.779  18.799  0.00  0.00    +0.130 C 
ATOM     15  C   UNL     1     -11.352   8.919  19.331  0.00  0.00    +0.026 A 
ATOM     16  C   UNL     1     -11.095   7.748  19.936  0.00  0.00    +0.022 A 
ATOM     17  C   UNL     1     -13.719   8.774  19.963  0.00  0.00    +0.259 A 
ATOM     18  C   UNL     1     -13.408   7.447  20.601  0.00  0.00    +0.048 A 
ATOM     19  C   UNL     1     -12.143   7.002  20.574  0.00  0.00    +0.015 A 
ENDROOT
BRANCH  18  21
ATOM      8  N   UNL     1     -16.329   5.121  20.998  0.00  0.00    -0.263 NA
ATOM     21  C   UNL     1     -14.464   6.640  21.238  0.00  0.00    +0.005 A 
ATOM     26  C   UNL     1     -14.611   6.615  22.620  0.00  0.00    +0.011 A 
ATOM     27  C   UNL     1     -15.340   5.882  20.477  0.00  0.00    +0.119 A 
ATOM     29  C   UNL     1     -15.617   5.844  23.192  0.00  0.00    +0.020 A 
ATOM     30  C   UNL     1     -16.442   5.122  22.345  0.00  0.00    +0.111 A 
ENDBRANCH  18  21
BRANCH   6   1
ATOM      1  S   UNL     1     -11.611   8.845  14.878  0.00  0.00    +0.061 S 
ATOM      2  O   UNL     1     -10.686   7.739  14.748  0.00  0.00    -0.153 OA
ATOM      3  O   UNL     1     -11.658   9.898  13.885  0.00  0.00    -0.153 OA
BRANCH   1  20
ATOM     20  C   UNL     1     -13.237   8.174  15.033  0.00  0.00    +0.106 A 
ATOM     22  C   UNL     1     -13.920   8.272  16.246  0.00  0.00    +0.032 A 
ATOM     23  C   UNL     1     -13.839   7.544  13.943  0.00  0.00    +0.032 A 
ATOM     24  C   UNL     1     -15.204   7.741  16.368  0.00  0.00    +0.047 A 
ATOM     25  C   UNL     1     -15.123   7.012  14.066  0.00  0.00    +0.047 A 
ATOM     28  C   UNL     1     -15.805   7.112  15.279  0.00  0.00    +0.120 A 
BRANCH  28   5
ATOM      5  O   UNL     1     -17.059   6.595  15.398  0.00  0.00    -0.495 OA
ATOM     31  C   UNL     1     -17.167   5.179  15.537  0.00  0.00    +0.277 C 
ENDBRANCH  28   5
ENDBRANCH   1  20
ENDBRANCH   6   1
TORSDOF 4
ENDMDL
MODEL 2
REMARK VINA RESULT:      -6.6     26.873     30.484
REMARK  Name = 40533534
REMARK  5 active torsions:
REMARK  status: ('A' for Active; 'I' for Inactive)
REMARK    1  A    between atoms: S_1  and  N_6
REMARK    2  A    between atoms: S_1  and  C_20
REMARK    3  A    between atoms: O_5  and  C_28
REMARK    4  A    between atoms: O_5  and  C_31
REMARK    5  A    between atoms: C_18  and  C_21
REMARK                            x       y       z     vdW  Elec       q    Type
REMARK                         _______ _______ _______ _____ _____    ______ ____
ROOT
ATOM      4  O   UNL     1      10.826   6.773   0.925  0.00  0.00    -0.267 OA
ATOM      6  N   UNL     1      11.316   7.058   5.876  0.00  0.00    -0.176 NA
ATOM      7  N   UNL     1      10.248   6.070   3.072  0.00  0.00    -0.311 N 
ATOM      9  C   UNL     1       9.145   7.626   4.782  0.00  0.00    +0.025 C 
ATOM     10  C   UNL     1       9.632   5.295   5.389  0.00  0.00    +0.052 C 
ATOM     11  C   UNL     1       8.528   6.348   5.335  0.00  0.00    +0.017 C 
ATOM     12  C   UNL     1      10.280   8.116   5.695  0.00  0.00    +0.114 C 
ATOM     13  C   UNL     1      10.742   5.763   6.348  0.00  0.00    +0.119 C 
ATOM     14  C   UNL     1       9.617   7.368   3.346  0.00  0.00    +0.130 C 
ATOM     15  C   UNL     1      10.202   5.034   4.007  0.00  0.00    +0.026 A 
ATOM     16  C   UNL     1      10.682   3.820   3.691  0.00  0.00    +0.022 A 
ATOM     17  C   UNL     1      10.799   5.894   1.787  0.00  0.00    +0.259 A 
ATOM     18  C   UNL     1      11.361   4.532   1.475  0.00  0.00    +0.048 A 
ATOM     19  C   UNL     1      11.274   3.572   2.408  0.00  0.00    +0.015 A 
ENDROOT
BRANCH  18  21
ATOM      8  N   UNL     1      11.771   3.705  -2.165  0.00  0.00    -0.263 NA
ATOM     21  C   UNL     1      12.004   4.251   0.179  0.00  0.00    +0.005 A 
ATOM     26  C   UNL     1      13.387   4.259   0.048  0.00  0.00    +0.011 A 
ATOM     27  C   UNL     1      11.246   3.971  -0.947  0.00  0.00    +0.119 A 
ATOM     29  C   UNL     1      13.964   3.990  -1.188  0.00  0.00    +0.020 A 
ATOM     30  C   UNL     1      13.120   3.722  -2.254  0.00  0.00    +0.111 A 
ENDBRANCH  18  21
BRANCH   6   1
ATOM      1  S   UNL     1      12.755   7.557   6.656  0.00  0.00    +0.061 S 
ATOM      2  O   UNL     1      13.195   6.509   7.553  0.00  0.00    -0.153 OA
ATOM      3  O   UNL     1      12.592   8.917   7.124  0.00  0.00    -0.153 OA
BRANCH   1  20
ATOM     20  C   UNL     1      13.860   7.587   5.279  0.00  0.00    +0.106 A 
ATOM     22  C   UNL     1      13.388   7.287   4.000  0.00  0.00    +0.032 A 
ATOM     23  C   UNL     1      15.204   7.909   5.469  0.00  0.00    +0.032 A 
ATOM     24  C   UNL     1      14.261   7.310   2.912  0.00  0.00    +0.047 A 
ATOM     25  C   UNL     1      16.076   7.931   4.380  0.00  0.00    +0.047 A 
ATOM     28  C   UNL     1      15.604   7.632   3.102  0.00  0.00    +0.120 A 
BRANCH  28   5
ATOM      5  O   UNL     1      16.455   7.657   2.039  0.00  0.00    -0.495 OA
ATOM     31  C   UNL     1      16.043   6.963   0.863  0.00  0.00    +0.277 C 
ENDBRANCH  28   5
ENDBRANCH   1  20
ENDBRANCH   6   1
TORSDOF 4
ENDMDL
MODEL 3
REMARK VINA RESULT:      -6.4     30.165     31.773
REMARK  Name = 40533534
REMARK  5 active torsions:
REMARK  status: ('A' for Active; 'I' for Inactive)
REMARK    1  A    between atoms: S_1  and  N_6
REMARK    2  A    between atoms: S_1  and  C_20
REMARK    3  A    between atoms: O_5  and  C_28
REMARK    4  A    between atoms: O_5  and  C_31
REMARK    5  A    between atoms: C_18  and  C_21
REMARK                            x       y       z     vdW  Elec       q    Type
REMARK                         _______ _______ _______ _____ _____    ______ ____
ROOT
ATOM      4  O   UNL     1       9.192 -12.009  31.696  0.00  0.00    -0.267 OA
ATOM      6  N   UNL     1       7.048  -9.019  35.057  0.00  0.00    -0.176 NA
ATOM      7  N   UNL     1       8.484  -9.896  32.384  0.00  0.00    -0.311 N 
ATOM      9  C   UNL     1       9.450  -8.720  34.444  0.00  0.00    +0.025 C 
ATOM     10  C   UNL     1       7.705  -7.614  33.114  0.00  0.00    +0.052 C 
ATOM     11  C   UNL     1       9.104  -7.437  33.699  0.00  0.00    +0.017 C 
ATOM     12  C   UNL     1       8.445  -8.973  35.579  0.00  0.00    +0.114 C 
ATOM     13  C   UNL     1       6.691  -7.810  34.256  0.00  0.00    +0.119 C 
ATOM     14  C   UNL     1       9.504  -9.879  33.440  0.00  0.00    +0.130 C 
ATOM     15  C   UNL     1       7.659  -8.792  32.158  0.00  0.00    +0.026 A 
ATOM     16  C   UNL     1       6.815  -8.784  31.114  0.00  0.00    +0.022 A 
ATOM     17  C   UNL     1       8.457 -11.031  31.549  0.00  0.00    +0.259 A 
ATOM     18  C   UNL     1       7.475 -11.008  30.409  0.00  0.00    +0.048 A 
ATOM     19  C   UNL     1       6.721  -9.913  30.233  0.00  0.00    +0.015 A 
ENDROOT
BRANCH  18  21
ATOM      8  N   UNL     1       7.998 -13.286  27.470  0.00  0.00    -0.263 NA
ATOM     21  C   UNL     1       7.330 -12.161  29.503  0.00  0.00    +0.005 A 
ATOM     26  C   UNL     1       6.436 -13.187  29.786  0.00  0.00    +0.011 A 
ATOM     27  C   UNL     1       8.082 -12.256  28.343  0.00  0.00    +0.119 A 
ATOM     29  C   UNL     1       6.322 -14.263  28.912  0.00  0.00    +0.020 A 
ATOM     30  C   UNL     1       7.118 -14.265  27.778  0.00  0.00    +0.111 A 
ENDBRANCH  18  21
BRANCH   6   1
ATOM      1  S   UNL     1       5.859  -9.546  36.170  0.00  0.00    +0.061 S 
ATOM      2  O   UNL     1       4.913  -8.473  36.396  0.00  0.00    -0.153 OA
ATOM      3  O   UNL     1       6.511 -10.210  37.278  0.00  0.00    -0.153 OA
BRANCH   1  20
ATOM     20  C   UNL     1       5.052 -10.780  35.198  0.00  0.00    +0.106 A 
ATOM     22  C   UNL     1       3.724 -11.118  35.462  0.00  0.00    +0.032 A 
ATOM     23  C   UNL     1       5.742 -11.418  34.167  0.00  0.00    +0.032 A 
ATOM     24  C   UNL     1       3.087 -12.093  34.696  0.00  0.00    +0.047 A 
ATOM     25  C   UNL     1       5.104 -12.394  33.401  0.00  0.00    +0.047 A 
ATOM     28  C   UNL     1       3.776 -12.730  33.665  0.00  0.00    +0.120 A 
BRANCH  28   5
ATOM      5  O   UNL     1       3.153 -13.681  32.915  0.00  0.00    -0.495 OA
ATOM     31  C   UNL     1       3.982 -14.654  32.282  0.00  0.00    +0.277 C 
ENDBRANCH  28   5
ENDBRANCH   1  20
ENDBRANCH   6   1
TORSDOF 4
ENDMDL
MODEL 4
REMARK VINA RESULT:      -6.4     19.307     21.123
REMARK  Name = 40533534
REMARK  5 active torsions:
REMARK  status: ('A' for Active; 'I' for Inactive)
REMARK    1  A    between atoms: S_1  and  N_6
REMARK    2  A    between atoms: S_1  and  C_20
REMARK    3  A    between atoms: O_5  and  C_28
REMARK    4  A    between atoms: O_5  and  C_31
REMARK    5  A    between atoms: C_18  and  C_21
REMARK                            x       y       z     vdW  Elec       q    Type
REMARK                         _______ _______ _______ _____ _____    ______ ____
ROOT
ATOM      4  O   UNL     1      -5.449 -13.081  15.754  0.00  0.00    -0.267 OA
ATOM      6  N   UNL     1      -9.666 -11.557  17.931  0.00  0.00    -0.176 NA
ATOM      7  N   UNL     1      -6.657 -12.480  17.656  0.00  0.00    -0.311 N 
ATOM      9  C   UNL     1      -8.700 -13.796  18.466  0.00  0.00    +0.025 C 
ATOM     10  C   UNL     1      -7.951 -11.816  19.713  0.00  0.00    +0.052 C 
ATOM     11  C   UNL     1      -8.297 -13.296  19.848  0.00  0.00    +0.017 C 
ATOM     12  C   UNL     1      -9.925 -13.026  17.949  0.00  0.00    +0.114 C 
ATOM     13  C   UNL     1      -9.196 -11.037  19.250  0.00  0.00    +0.119 C 
ATOM     14  C   UNL     1      -7.494 -13.680  17.525  0.00  0.00    +0.130 C 
ATOM     15  C   UNL     1      -6.806 -11.610  18.739  0.00  0.00    +0.026 A 
ATOM     16  C   UNL     1      -5.954 -10.585  18.902  0.00  0.00    +0.022 A 
ATOM     17  C   UNL     1      -5.634 -12.315  16.702  0.00  0.00    +0.259 A 
ATOM     18  C   UNL     1      -4.717 -11.136  16.891  0.00  0.00    +0.048 A 
ATOM     19  C   UNL     1      -4.900 -10.345  17.958  0.00  0.00    +0.015 A 
ENDROOT
BRANCH  18  21
ATOM      8  N   UNL     1      -2.983 -10.401  13.642  0.00  0.00    -0.263 NA
ATOM     21  C   UNL     1      -3.643 -10.843  15.926  0.00  0.00    +0.005 A 
ATOM     26  C   UNL     1      -2.320 -10.728  16.338  0.00  0.00    +0.011 A 
ATOM     27  C   UNL     1      -3.920 -10.672  14.579  0.00  0.00    +0.119 A 
ATOM     29  C   UNL     1      -1.328 -10.450  15.404  0.00  0.00    +0.020 A 
ATOM     30  C   UNL     1      -1.708 -10.297  14.081  0.00  0.00    +0.111 A 
ENDBRANCH  18  21
BRANCH   6   1
ATOM      1  S   UNL     1     -10.848 -10.606  17.139  0.00  0.00    +0.061 S 
ATOM      2  O   UNL     1     -11.028  -9.370  17.870  0.00  0.00    -0.153 OA
ATOM      3  O   UNL     1     -11.980 -11.444  16.802  0.00  0.00    -0.153 OA
BRANCH   1  20
ATOM     20  C   UNL     1      -9.990 -10.228  15.643  0.00  0.00    +0.106 A 
ATOM     22  C   UNL     1     -10.705  -9.845  14.507  0.00  0.00    +0.032 A 
ATOM     23  C   UNL     1      -8.598 -10.311  15.596  0.00  0.00    +0.032 A 
ATOM     24  C   UNL     1     -10.027  -9.547  13.325  0.00  0.00    +0.047 A 
ATOM     25  C   UNL     1      -7.921 -10.013  14.413  0.00  0.00    +0.047 A 
ATOM     28  C   UNL     1      -8.636  -9.630  13.278  0.00  0.00    +0.120 A 
BRANCH  28   5
ATOM      5  O   UNL     1      -7.975  -9.336  12.124  0.00  0.00    -0.495 OA
ATOM     31  C   UNL     1      -6.560  -9.172  12.211  0.00  0.00    +0.277 C 
ENDBRANCH  28   5
ENDBRANCH   1  20
ENDBRANCH   6   1
TORSDOF 4
ENDMDL
MODEL 5
REMARK VINA RESULT:      -6.4     19.676     21.308
REMARK  Name = 40533534
REMARK  5 active torsions:
REMARK  status: ('A' for Active; 'I' for Inactive)
REMARK    1  A    between atoms: S_1  and  N_6
REMARK    2  A    between atoms: S_1  and  C_20
REMARK    3  A    between atoms: O_5  and  C_28
REMARK    4  A    between atoms: O_5  and  C_31
REMARK    5  A    between atoms: C_18  and  C_21
REMARK                            x       y       z     vdW  Elec       q    Type
REMARK                         _______ _______ _______ _____ _____    ______ ____
ROOT
ATOM      4  O   UNL     1      -6.827 -13.010  15.302  0.00  0.00    -0.267 OA
ATOM      6  N   UNL     1      -6.650 -10.504  10.998  0.00  0.00    -0.176 NA
ATOM      7  N   UNL     1      -7.829 -11.647  13.696  0.00  0.00    -0.311 N 
ATOM      9  C   UNL     1      -8.226 -12.419  11.286  0.00  0.00    +0.025 C 
ATOM     10  C   UNL     1      -8.912 -10.162  11.973  0.00  0.00    +0.052 C 
ATOM     11  C   UNL     1      -9.402 -11.451  11.320  0.00  0.00    +0.017 C 
ATOM     12  C   UNL     1      -7.068 -11.833  10.464  0.00  0.00    +0.114 C 
ATOM     13  C   UNL     1      -7.789  -9.546  11.117  0.00  0.00    +0.119 C 
ATOM     14  C   UNL     1      -7.815 -12.750  12.726  0.00  0.00    +0.130 C 
ATOM     15  C   UNL     1      -8.418 -10.420  13.385  0.00  0.00    +0.026 A 
ATOM     16  C   UNL     1      -8.526  -9.466  14.324  0.00  0.00    +0.022 A 
ATOM     17  C   UNL     1      -7.322 -11.928  14.980  0.00  0.00    +0.259 A 
ATOM     18  C   UNL     1      -7.424 -10.827  16.002  0.00  0.00    +0.048 A 
ATOM     19  C   UNL     1      -8.014  -9.676  15.649  0.00  0.00    +0.015 A 
ENDROOT
BRANCH  18  21
ATOM      8  N   UNL     1      -7.293 -11.381  19.714  0.00  0.00    -0.263 NA
ATOM     21  C   UNL     1      -6.883 -10.996  17.362  0.00  0.00    +0.005 A 
ATOM     26  C   UNL     1      -5.515 -10.939  17.602  0.00  0.00    +0.011 A 
ATOM     27  C   UNL     1      -7.723 -11.218  18.442  0.00  0.00    +0.119 A 
ATOM     29  C   UNL     1      -5.035 -11.103  18.897  0.00  0.00    +0.020 A 
ATOM     30  C   UNL     1      -5.956 -11.319  19.908  0.00  0.00    +0.111 A 
ENDBRANCH  18  21
BRANCH   6   1
ATOM      1  S   UNL     1      -5.209  -9.860  10.337  0.00  0.00    +0.061 S 
ATOM      2  O   UNL     1      -5.348  -8.426  10.206  0.00  0.00    -0.153 OA
ATOM      3  O   UNL     1      -4.799 -10.675   9.213  0.00  0.00    -0.153 OA
BRANCH   1  20
ATOM     20  C   UNL     1      -4.091 -10.174  11.668  0.00  0.00    +0.106 A 
ATOM     22  C   UNL     1      -2.715 -10.172  11.438  0.00  0.00    +0.032 A 
ATOM     23  C   UNL     1      -4.584 -10.424  12.949  0.00  0.00    +0.032 A 
ATOM     24  C   UNL     1      -1.832 -10.420  12.489  0.00  0.00    +0.047 A 
ATOM     25  C   UNL     1      -3.700 -10.673  14.000  0.00  0.00    +0.047 A 
ATOM     28  C   UNL     1      -2.325 -10.670  13.770  0.00  0.00    +0.120 A 
BRANCH  28   5
ATOM      5  O   UNL     1      -1.463 -10.910  14.796  0.00  0.00    -0.495 OA
ATOM     31  C   UNL     1      -1.945 -10.672  16.117  0.00  0.00    +0.277 C 
ENDBRANCH  28   5
ENDBRANCH   1  20
ENDBRANCH   6   1
TORSDOF 4
ENDMDL
MODEL 6
REMARK VINA RESULT:      -6.4     19.002     20.475
REMARK  Name = 40533534
REMARK  5 active torsions:
REMARK  status: ('A' for Active; 'I' for Inactive)
REMARK    1  A    between atoms: S_1  and  N_6
REMARK    2  A    between atoms: S_1  and  C_20
REMARK    3  A    between atoms: O_5  and  C_28
REMARK    4  A    between atoms: O_5  and  C_31
REMARK    5  A    between atoms: C_18  and  C_21
REMARK                            x       y       z     vdW  Elec       q    Type
REMARK                         _______ _______ _______ _____ _____    ______ ____
ROOT
ATOM      4  O   UNL     1      -7.839  -8.857  17.222  0.00  0.00    -0.267 OA
ATOM      6  N   UNL     1      -4.000 -11.641  15.688  0.00  0.00    -0.176 NA
ATOM      7  N   UNL     1      -6.723 -10.901  17.110  0.00  0.00    -0.311 N 
ATOM      9  C   UNL     1      -4.398 -11.262  18.124  0.00  0.00    +0.025 C 
ATOM     10  C   UNL     1      -5.530 -13.117  16.977  0.00  0.00    +0.052 C 
ATOM     11  C   UNL     1      -4.846 -12.710  18.279  0.00  0.00    +0.017 C 
ATOM     12  C   UNL     1      -3.408 -11.126  16.957  0.00  0.00    +0.114 C 
ATOM     13  C   UNL     1      -4.520 -13.035  15.818  0.00  0.00    +0.119 C 
ATOM     14  C   UNL     1      -5.638 -10.375  17.948  0.00  0.00    +0.130 C 
ATOM     15  C   UNL     1      -6.732 -12.235  16.695  0.00  0.00    +0.026 A 
ATOM     16  C   UNL     1      -7.791 -12.726  16.029  0.00  0.00    +0.022 A 
ATOM     17  C   UNL     1      -7.796 -10.028  16.843  0.00  0.00    +0.259 A 
ATOM     18  C   UNL     1      -8.952 -10.597  16.064  0.00  0.00    +0.048 A 
ATOM     19  C   UNL     1      -8.911 -11.889  15.706  0.00  0.00    +0.015 A 
ENDROOT
BRANCH  18  21
ATOM      8  N   UNL     1     -12.241  -8.799  16.291  0.00  0.00    -0.263 NA
ATOM     21  C   UNL     1     -10.105  -9.760  15.690  0.00  0.00    +0.005 A 
ATOM     26  C   UNL     1     -10.174  -9.151  14.442  0.00  0.00    +0.011 A 
ATOM     27  C   UNL     1     -11.155  -9.555  16.571  0.00  0.00    +0.119 A 
ATOM     29  C   UNL     1     -11.275  -8.367  14.117  0.00  0.00    +0.020 A 
ATOM     30  C   UNL     1     -12.273  -8.223  15.068  0.00  0.00    +0.111 A 
ENDBRANCH  18  21
BRANCH   6   1
ATOM      1  S   UNL     1      -3.105 -11.315  14.267  0.00  0.00    +0.061 S 
ATOM      2  O   UNL     1      -2.742 -12.567  13.638  0.00  0.00    -0.153 OA
ATOM      3  O   UNL     1      -2.103 -10.311  14.559  0.00  0.00    -0.153 OA
BRANCH   1  20
ATOM     20  C   UNL     1      -4.357 -10.558  13.279  0.00  0.00    +0.106 A 
ATOM     22  C   UNL     1      -5.604 -10.267  13.835  0.00  0.00    +0.032 A 
ATOM     23  C   UNL     1      -4.102 -10.251  11.942  0.00  0.00    +0.032 A 
ATOM     24  C   UNL     1      -6.593  -9.669  13.055  0.00  0.00    +0.047 A 
ATOM     25  C   UNL     1      -5.092  -9.654  11.162  0.00  0.00    +0.047 A 
ATOM     28  C   UNL     1      -6.337  -9.363  11.719  0.00  0.00    +0.120 A 
BRANCH  28   5
ATOM      5  O   UNL     1      -7.303  -8.778  10.957  0.00  0.00    -0.495 OA
ATOM     31  C   UNL     1      -7.408  -9.207   9.601  0.00  0.00    +0.277 C 
ENDBRANCH  28   5
ENDBRANCH   1  20
ENDBRANCH   6   1
TORSDOF 4
ENDMDL
MODEL 7
REMARK VINA RESULT:      -6.3     14.792     17.230
REMARK  Name = 40533534
REMARK  5 active torsions:
REMARK  status: ('A' for Active; 'I' for Inactive)
REMARK    1  A    between atoms: S_1  and  N_6
REMARK    2  A    between atoms: S_1  and  C_20
REMARK    3  A    between atoms: O_5  and  C_28
REMARK    4  A    between atoms: O_5  and  C_31
REMARK    5  A    between atoms: C_18  and  C_21
REMARK                            x       y       z     vdW  Elec       q    Type
REMARK                         _______ _______ _______ _____ _____    ______ ____
ROOT
ATOM      4  O   UNL     1      -6.495   9.769   5.447  0.00  0.00    -0.267 OA
ATOM      6  N   UNL     1      -1.794  10.558   3.994  0.00  0.00    -0.176 NA
ATOM      7  N   UNL     1      -4.208   9.363   5.645  0.00  0.00    -0.311 N 
ATOM      9  C   UNL     1      -2.533  11.189   6.293  0.00  0.00    +0.025 C 
ATOM     10  C   UNL     1      -1.738   8.907   5.852  0.00  0.00    +0.052 C 
ATOM     11  C   UNL     1      -1.720  10.040   6.875  0.00  0.00    +0.017 C 
ATOM     12  C   UNL     1      -1.913  11.676   4.973  0.00  0.00    +0.114 C 
ATOM     13  C   UNL     1      -1.066   9.378   4.550  0.00  0.00    +0.119 C 
ATOM     14  C   UNL     1      -3.988  10.733   6.125  0.00  0.00    +0.130 C 
ATOM     15  C   UNL     1      -3.157   8.445   5.577  0.00  0.00    +0.026 A 
ATOM     16  C   UNL     1      -3.401   7.166   5.248  0.00  0.00    +0.022 A 
ATOM     17  C   UNL     1      -5.539   8.997   5.364  0.00  0.00    +0.259 A 
ATOM     18  C   UNL     1      -5.775   7.565   4.963  0.00  0.00    +0.048 A 
ATOM     19  C   UNL     1      -4.730   6.726   4.931  0.00  0.00    +0.015 A 
ENDROOT
BRANCH  18  21
ATOM      8  N   UNL     1      -9.004   7.167   3.088  0.00  0.00    -0.263 NA
ATOM     21  C   UNL     1      -7.122   7.087   4.602  0.00  0.00    +0.005 A 
ATOM     26  C   UNL     1      -7.779   6.142   5.382  0.00  0.00    +0.011 A 
ATOM     27  C   UNL     1      -7.771   7.564   3.475  0.00  0.00    +0.119 A 
ATOM     29  C   UNL     1      -9.049   5.709   5.016  0.00  0.00    +0.020 A 
ATOM     30  C   UNL     1      -9.613   6.248   3.871  0.00  0.00    +0.111 A 
ENDBRANCH  18  21
BRANCH   6   1
ATOM      1  S   UNL     1      -1.360  11.011   2.402  0.00  0.00    +0.061 S 
ATOM      2  O   UNL     1      -0.406  10.055   1.880  0.00  0.00    -0.153 OA
ATOM      3  O   UNL     1      -1.081  12.431   2.375  0.00  0.00    -0.153 OA
BRANCH   1  20
ATOM     20  C   UNL     1      -2.897  10.745   1.574  0.00  0.00    +0.106 A 
ATOM     22  C   UNL     1      -3.033  11.089   0.228  0.00  0.00    +0.032 A 
ATOM     23  C   UNL     1      -3.975  10.192   2.265  0.00  0.00    +0.032 A 
ATOM     24  C   UNL     1      -4.247  10.879  -0.425  0.00  0.00    +0.047 A 
ATOM     25  C   UNL     1      -5.189   9.983   1.610  0.00  0.00    +0.047 A 
ATOM     28  C   UNL     1      -5.324  10.326   0.266  0.00  0.00    +0.120 A 
BRANCH  28   5
ATOM      5  O   UNL     1      -6.509  10.120  -0.374  0.00  0.00    -0.495 OA
ATOM     31  C   UNL     1      -7.646   9.840   0.442  0.00  0.00    +0.277 C 
ENDBRANCH  28   5
ENDBRANCH   1  20
ENDBRANCH   6   1
TORSDOF 4
ENDMDL
MODEL 8
REMARK VINA RESULT:      -6.3     19.788     21.470
REMARK  Name = 40533534
REMARK  5 active torsions:
REMARK  status: ('A' for Active; 'I' for Inactive)
REMARK    1  A    between atoms: S_1  and  N_6
REMARK    2  A    between atoms: S_1  and  C_20
REMARK    3  A    between atoms: O_5  and  C_28
REMARK    4  A    between atoms: O_5  and  C_31
REMARK    5  A    between atoms: C_18  and  C_21
REMARK                            x       y       z     vdW  Elec       q    Type
REMARK                         _______ _______ _______ _____ _____    ______ ____
ROOT
ATOM      4  O   UNL     1      -7.945 -12.408  12.473  0.00  0.00    -0.267 OA
ATOM      6  N   UNL     1      -3.065 -11.415  12.684  0.00  0.00    -0.176 NA
ATOM      7  N   UNL     1      -5.996 -11.559  11.514  0.00  0.00    -0.311 N 
ATOM      9  C   UNL     1      -3.959 -13.025  10.999  0.00  0.00    +0.025 C 
ATOM     10  C   UNL     1      -3.897 -10.625  10.478  0.00  0.00    +0.052 C 
ATOM     11  C   UNL     1      -3.692 -12.017   9.889  0.00  0.00    +0.017 C 
ATOM     12  C   UNL     1      -2.985 -12.812  12.168  0.00  0.00    +0.114 C 
ATOM     13  C   UNL     1      -2.882 -10.391  11.612  0.00  0.00    +0.119 C 
ATOM     14  C   UNL     1      -5.427 -12.911  11.430  0.00  0.00    +0.130 C 
ATOM     15  C   UNL     1      -5.314 -10.456  10.995  0.00  0.00    +0.026 A 
ATOM     16  C   UNL     1      -5.902  -9.249  10.975  0.00  0.00    +0.022 A 
ATOM     17  C   UNL     1      -7.299 -11.452  12.039  0.00  0.00    +0.259 A 
ATOM     18  C   UNL     1      -7.918 -10.080  12.036  0.00  0.00    +0.048 A 
ATOM     19  C   UNL     1      -7.221  -9.062  11.511  0.00  0.00    +0.015 A 
ENDROOT
BRANCH  18  21
ATOM      8  N   UNL     1     -11.651  -9.758  12.278  0.00  0.00    -0.263 NA
ATOM     21  C   UNL     1      -9.257  -9.846  12.604  0.00  0.00    +0.005 A 
ATOM     26  C   UNL     1      -9.419  -9.508  13.943  0.00  0.00    +0.011 A 
ATOM     27  C   UNL     1     -10.395  -9.958  11.821  0.00  0.00    +0.119 A 
ATOM     29  C   UNL     1     -10.696  -9.294  14.450  0.00  0.00    +0.020 A 
ATOM     30  C   UNL     1     -11.770  -9.430  13.585  0.00  0.00    +0.111 A 
ENDBRANCH  18  21
BRANCH   6   1
ATOM      1  S   UNL     1      -2.224 -11.115  14.144  0.00  0.00    +0.061 S 
ATOM      2  O   UNL     1      -1.466  -9.889  14.011  0.00  0.00    -0.153 OA
ATOM      3  O   UNL     1      -1.589 -12.340  14.583  0.00  0.00    -0.153 OA
BRANCH   1  20
ATOM     20  C   UNL     1      -3.584 -10.793  15.224  0.00  0.00    +0.106 A 
ATOM     22  C   UNL     1      -3.426 -10.932  16.604  0.00  0.00    +0.032 A 
ATOM     23  C   UNL     1      -4.815 -10.399  14.699  0.00  0.00    +0.032 A 
ATOM     24  C   UNL     1      -4.500 -10.677  17.457  0.00  0.00    +0.047 A 
ATOM     25  C   UNL     1      -5.889 -10.146  15.553  0.00  0.00    +0.047 A 
ATOM     28  C   UNL     1      -5.730 -10.284  16.932  0.00  0.00    +0.120 A 
BRANCH  28   5
ATOM      5  O   UNL     1      -6.778 -10.034  17.765  0.00  0.00    -0.495 OA
ATOM     31  C   UNL     1      -7.830  -9.216  17.257  0.00  0.00    +0.277 C 
ENDBRANCH  28   5
ENDBRANCH   1  20
ENDBRANCH   6   1
TORSDOF 4
ENDMDL
MODEL 9
REMARK VINA RESULT:      -6.3     29.662     31.319
REMARK  Name = 40533534
REMARK  5 active torsions:
REMARK  status: ('A' for Active; 'I' for Inactive)
REMARK    1  A    between atoms: S_1  and  N_6
REMARK    2  A    between atoms: S_1  and  C_20
REMARK    3  A    between atoms: O_5  and  C_28
REMARK    4  A    between atoms: O_5  and  C_31
REMARK    5  A    between atoms: C_18  and  C_21
REMARK                            x       y       z     vdW  Elec       q    Type
REMARK                         _______ _______ _______ _____ _____    ______ ____
ROOT
ATOM      4  O   UNL     1       9.339  -9.561  33.004  0.00  0.00    -0.267 OA
ATOM      6  N   UNL     1       8.096  -6.001  36.264  0.00  0.00    -0.176 NA
ATOM      7  N   UNL     1       8.627  -7.391  33.476  0.00  0.00    -0.311 N 
ATOM      9  C   UNL     1      10.072  -5.714  34.765  0.00  0.00    +0.025 C 
ATOM     10  C   UNL     1       7.841  -5.051  33.980  0.00  0.00    +0.052 C 
ATOM     11  C   UNL     1       9.317  -4.662  33.964  0.00  0.00    +0.017 C 
ATOM     12  C   UNL     1       9.566  -5.755  36.216  0.00  0.00    +0.114 C 
ATOM     13  C   UNL     1       7.321  -5.035  35.430  0.00  0.00    +0.119 C 
ATOM     14  C   UNL     1       9.936  -7.069  34.058  0.00  0.00    +0.130 C 
ATOM     15  C   UNL     1       7.631  -6.419  33.358  0.00  0.00    +0.026 A 
ATOM     16  C   UNL     1       6.485  -6.702  32.718  0.00  0.00    +0.022 A 
ATOM     17  C   UNL     1       8.470  -8.688  32.949  0.00  0.00    +0.259 A 
ATOM     18  C   UNL     1       7.161  -8.987  32.269  0.00  0.00    +0.048 A 
ATOM     19  C   UNL     1       6.249  -8.009  32.172  0.00  0.00    +0.015 A 
ENDROOT
BRANCH  18  21
ATOM      8  N   UNL     1       6.105 -12.587  32.100  0.00  0.00    -0.263 NA
ATOM     21  C   UNL     1       6.873 -10.326  31.724  0.00  0.00    +0.005 A 
ATOM     26  C   UNL     1       7.077 -10.611  30.378  0.00  0.00    +0.011 A 
ATOM     27  C   UNL     1       6.390 -11.339  32.536  0.00  0.00    +0.119 A 
ATOM     29  C   UNL     1       6.795 -11.883  29.893  0.00  0.00    +0.020 A 
ATOM     30  C   UNL     1       6.316 -12.827  30.787  0.00  0.00    +0.111 A 
ENDBRANCH  18  21
BRANCH   6   1
ATOM      1  S   UNL     1       7.450  -6.324  37.815  0.00  0.00    +0.061 S 
ATOM      2  O   UNL     1       6.837  -5.120  38.333  0.00  0.00    -0.153 OA
ATOM      3  O   UNL     1       8.429  -7.055  38.592  0.00  0.00    -0.153 OA
BRANCH   1  20
ATOM     20  C   UNL     1       6.155  -7.445  37.384  0.00  0.00    +0.106 A 
ATOM     22  C   UNL     1       4.979  -7.473  38.134  0.00  0.00    +0.032 A 
ATOM     23  C   UNL     1       6.308  -8.303  36.294  0.00  0.00    +0.032 A 
ATOM     24  C   UNL     1       3.956  -8.359  37.793  0.00  0.00    +0.047 A 
ATOM     25  C   UNL     1       5.285  -9.189  35.955  0.00  0.00    +0.047 A 
ATOM     28  C   UNL     1       4.110  -9.216  36.704  0.00  0.00    +0.120 A 
BRANCH  28   5
ATOM      5  O   UNL     1       3.110 -10.079  36.371  0.00  0.00    -0.495 OA
ATOM     31  C   UNL     1       1.771  -9.627  36.568  0.00  0.00    +0.277 C 
ENDBRANCH  28   5
ENDBRANCH   1  20
ENDBRANCH   6   1
TORSDOF 4
ENDMDL
MODEL 10
REMARK VINA RESULT:      -6.1     20.635     22.399
REMARK  Name = 40533534
REMARK  5 active torsions:
REMARK  status: ('A' for Active; 'I' for Inactive)
REMARK    1  A    between atoms: S_1  and  N_6
REMARK    2  A    between atoms: S_1  and  C_20
REMARK    3  A    between atoms: O_5  and  C_28
REMARK    4  A    between atoms: O_5  and  C_31
REMARK    5  A    between atoms: C_18  and  C_21
REMARK                            x       y       z     vdW  Elec       q    Type
REMARK                         _______ _______ _______ _____ _____    ______ ____
ROOT
ATOM      4  O   UNL     1      -5.673 -12.444  10.443  0.00  0.00    -0.267 OA
ATOM      6  N   UNL     1      -3.549 -12.077  14.937  0.00  0.00    -0.176 NA
ATOM      7  N   UNL     1      -3.780 -12.244  11.791  0.00  0.00    -0.311 N 
ATOM      9  C   UNL     1      -3.088 -14.046  13.474  0.00  0.00    +0.025 C 
ATOM     10  C   UNL     1      -1.732 -12.011  13.240  0.00  0.00    +0.052 C 
ATOM     11  C   UNL     1      -1.674 -13.536  13.225  0.00  0.00    +0.017 C 
ATOM     12  C   UNL     1      -3.604 -13.564  14.839  0.00  0.00    +0.114 C 
ATOM     13  C   UNL     1      -2.195 -11.527  14.627  0.00  0.00    +0.119 C 
ATOM     14  C   UNL     1      -3.988 -13.600  12.315  0.00  0.00    +0.130 C 
ATOM     15  C   UNL     1      -2.664 -11.490  12.161  0.00  0.00    +0.026 A 
ATOM     16  C   UNL     1      -2.431 -10.302  11.581  0.00  0.00    +0.022 A 
ATOM     17  C   UNL     1      -4.697 -11.793  10.821  0.00  0.00    +0.259 A 
ATOM     18  C   UNL     1      -4.429 -10.441  10.215  0.00  0.00    +0.048 A 
ATOM     19  C   UNL     1      -3.333  -9.771  10.598  0.00  0.00    +0.015 A 
ENDROOT
BRANCH  18  21
ATOM      8  N   UNL     1      -7.261  -8.446   8.765  0.00  0.00    -0.263 NA
ATOM     21  C   UNL     1      -5.349  -9.853   9.225  0.00  0.00    +0.005 A 
ATOM     26  C   UNL     1      -5.207 -10.117   7.868  0.00  0.00    +0.011 A 
ATOM     27  C   UNL     1      -6.383  -9.018   9.620  0.00  0.00    +0.119 A 
ATOM     29  C   UNL     1      -6.091  -9.547   6.959  0.00  0.00    +0.020 A 
ATOM     30  C   UNL     1      -7.091  -8.726   7.453  0.00  0.00    +0.111 A 
ENDBRANCH  18  21
BRANCH   6   1
ATOM      1  S   UNL     1      -4.329 -11.395  16.298  0.00  0.00    +0.061 S 
ATOM      2  O   UNL     1      -3.541 -10.285  16.790  0.00  0.00    -0.153 OA
ATOM      3  O   UNL     1      -4.749 -12.460  17.185  0.00  0.00    -0.153 OA
BRANCH   1  20
ATOM     20  C   UNL     1      -5.773 -10.731  15.528  0.00  0.00    +0.106 A 
ATOM     22  C   UNL     1      -5.768 -10.454  14.160  0.00  0.00    +0.032 A 
ATOM     23  C   UNL     1      -6.918 -10.484  16.285  0.00  0.00    +0.032 A 
ATOM     24  C   UNL     1      -6.908  -9.929  13.551  0.00  0.00    +0.047 A 
ATOM     25  C   UNL     1      -8.057  -9.959  15.676  0.00  0.00    +0.047 A 
ATOM     28  C   UNL     1      -8.052  -9.682  14.309  0.00  0.00    +0.120 A 
BRANCH  28   5
ATOM      5  O   UNL     1      -9.166  -9.172  13.714  0.00  0.00    -0.495 OA
ATOM     31  C   UNL     1     -10.413  -9.400  14.368  0.00  0.00    +0.277 C 
ENDBRANCH  28   5
ENDBRANCH   1  20
ENDBRANCH   6   1
TORSDOF 4
ENDMDL
