MODEL 1
REMARK VINA RESULT:      -6.9      0.000      0.000
REMARK  Name = 45783496
REMARK  11 active torsions:
REMARK  status: ('A' for Active; 'I' for Inactive)
REMARK    1  A    between atoms: O_3  and  C_31
REMARK    2  A    between atoms: O_3  and  C_32
REMARK    3  A    between atoms: N_4  and  C_14
REMARK    4  A    between atoms: N_7  and  C_22
REMARK    5  A    between atoms: N_9  and  C_27
REMARK    6  A    between atoms: N_9  and  C_29
REMARK    7  A    between atoms: C_10  and  C_15
REMARK    8  A    between atoms: C_14  and  C_16
REMARK    9  A    between atoms: C_19  and  C_23
REMARK   10  A    between atoms: C_28  and  C_30
REMARK   11  A    between atoms: C_29  and  C_31
REMARK                            x       y       z     vdW  Elec       q    Type
REMARK                         _______ _______ _______ _____ _____    ______ ____
ROOT
ATOM      4  N   UNL     1     -11.416 -10.332  17.365  0.00  0.00    -0.287 NA
ATOM     10  C   UNL     1     -10.950 -11.325  18.352  0.00  0.00    +0.146 C 
ATOM     11  C   UNL     1     -11.316 -12.690  17.740  0.00  0.00    +0.030 C 
ATOM     12  C   UNL     1     -12.038 -12.360  16.441  0.00  0.00    +0.017 C 
ATOM     13  C   UNL     1     -12.541 -10.947  16.660  0.00  0.00    +0.085 C 
ENDROOT
BRANCH  10  15
ATOM      1  O   UNL     1      -9.134 -10.926  19.939  0.00  0.00    -0.336 OA
ATOM      5  N   UNL     1      -8.447 -11.311  17.842  0.00  0.00    -0.190 NA
ATOM      6  N   UNL     1      -7.735 -10.855  19.969  0.00  0.00    -0.056 NA
ATOM     15  C   UNL     1      -9.471 -11.198  18.651  0.00  0.00    +0.245 A 
ATOM     19  C   UNL     1      -7.405 -11.093  18.696  0.00  0.00    +0.204 A 
BRANCH  19  23
ATOM      8  N   UNL     1      -4.398 -10.446  16.607  0.00  0.00    -0.240 NA
ATOM     23  C   UNL     1      -6.043 -11.121  18.244  0.00  0.00    +0.041 A 
ATOM     24  C   UNL     1      -5.067 -11.813  18.951  0.00  0.00    +0.016 A 
ATOM     25  C   UNL     1      -5.661 -10.459  17.087  0.00  0.00    +0.124 A 
ATOM     26  C   UNL     1      -3.757 -11.822  18.488  0.00  0.00    +0.044 A 
ATOM     27  C   UNL     1      -3.475 -11.130  17.321  0.00  0.00    +0.119 A 
BRANCH  27   9
ATOM      9  N   UNL     1      -2.136 -11.148  16.862  0.00  0.00    -0.327 N 
ATOM     34  H   UNL     1      -1.485 -11.719  17.388  0.00  0.00    +0.148 HD
BRANCH   9  29
ATOM     29  C   UNL     1      -1.700 -10.403  15.725  0.00  0.00    +0.131 C 
BRANCH  29  31
ATOM     31  C   UNL     1      -1.878 -11.231  14.463  0.00  0.00    +0.178 C 
BRANCH  31   3
ATOM      3  O   UNL     1      -2.370 -10.401  13.418  0.00  0.00    -0.381 OA
ATOM     32  C   UNL     1      -2.019 -10.911  12.139  0.00  0.00    +0.194 C 
ENDBRANCH  31   3
ENDBRANCH  29  31
ENDBRANCH   9  29
ENDBRANCH  27   9
ENDBRANCH  19  23
ENDBRANCH  10  15
BRANCH   4  14
ATOM     14  C   UNL     1     -11.778  -9.053  17.963  0.00  0.00    +0.120 C 
BRANCH  14  16
ATOM     16  C   UNL     1     -11.824  -7.949  16.941  0.00  0.00    -0.033 A 
ATOM     17  C   UNL     1     -10.647  -7.306  16.555  0.00  0.00    +0.007 A 
ATOM     18  C   UNL     1     -13.042  -7.568  16.379  0.00  0.00    +0.007 A 
ATOM     20  C   UNL     1     -10.689  -6.283  15.608  0.00  0.00    +0.023 A 
ATOM     21  C   UNL     1     -13.085  -6.545  15.432  0.00  0.00    +0.023 A 
ATOM     22  C   UNL     1     -11.908  -5.903  15.047  0.00  0.00    +0.033 A 
BRANCH  22   7
ATOM      2  O   UNL     1     -12.585  -5.981  12.114  0.00  0.00    -0.276 OA
ATOM      7  N   UNL     1     -11.951  -4.879  14.100  0.00  0.00    -0.286 N 
ATOM     28  C   UNL     1     -12.273  -4.973  12.738  0.00  0.00    +0.214 C 
ATOM     30  C   UNL     1     -12.203  -3.631  12.055  0.00  0.00    +0.109 C 
ATOM     33  H   UNL     1     -11.717  -3.953  14.450  0.00  0.00    +0.155 HD
ENDBRANCH  22   7
ENDBRANCH  14  16
ENDBRANCH   4  14
TORSDOF 9
ENDMDL
MODEL 2
REMARK VINA RESULT:      -6.9      3.490      8.311
REMARK  Name = 45783496
REMARK  11 active torsions:
REMARK  status: ('A' for Active; 'I' for Inactive)
REMARK    1  A    between atoms: O_3  and  C_31
REMARK    2  A    between atoms: O_3  and  C_32
REMARK    3  A    between atoms: N_4  and  C_14
REMARK    4  A    between atoms: N_7  and  C_22
REMARK    5  A    between atoms: N_9  and  C_27
REMARK    6  A    between atoms: N_9  and  C_29
REMARK    7  A    between atoms: C_10  and  C_15
REMARK    8  A    between atoms: C_14  and  C_16
REMARK    9  A    between atoms: C_19  and  C_23
REMARK   10  A    between atoms: C_28  and  C_30
REMARK   11  A    between atoms: C_29  and  C_31
REMARK                            x       y       z     vdW  Elec       q    Type
REMARK                         _______ _______ _______ _____ _____    ______ ____
ROOT
ATOM      4  N   UNL     1      -2.959 -10.441  13.866  0.00  0.00    -0.287 NA
ATOM     10  C   UNL     1      -3.229 -11.206  15.100  0.00  0.00    +0.146 C 
ATOM     11  C   UNL     1      -2.140 -10.750  16.090  0.00  0.00    +0.030 C 
ATOM     12  C   UNL     1      -1.272  -9.778  15.304  0.00  0.00    +0.017 C 
ATOM     13  C   UNL     1      -1.523 -10.161  13.859  0.00  0.00    +0.085 C 
ENDROOT
BRANCH  10  15
ATOM      1  O   UNL     1      -5.085 -11.883  16.539  0.00  0.00    -0.336 OA
ATOM      5  N   UNL     1      -5.487 -10.036  15.338  0.00  0.00    -0.190 NA
ATOM      6  N   UNL     1      -6.382 -11.475  16.876  0.00  0.00    -0.056 NA
ATOM     15  C   UNL     1      -4.629 -10.982  15.630  0.00  0.00    +0.245 A 
ATOM     19  C   UNL     1      -6.545 -10.381  16.126  0.00  0.00    +0.204 A 
BRANCH  19  23
ATOM      8  N   UNL     1      -9.317  -8.247  17.388  0.00  0.00    -0.240 NA
ATOM     23  C   UNL     1      -7.754  -9.607  16.143  0.00  0.00    +0.041 A 
ATOM     24  C   UNL     1      -8.525  -9.456  14.996  0.00  0.00    +0.016 A 
ATOM     25  C   UNL     1      -8.190  -8.988  17.304  0.00  0.00    +0.124 A 
ATOM     26  C   UNL     1      -9.691  -8.702  15.044  0.00  0.00    +0.044 A 
ATOM     27  C   UNL     1     -10.041  -8.123  16.253  0.00  0.00    +0.119 A 
BRANCH  27   9
ATOM      9  N   UNL     1     -11.231  -7.356  16.285  0.00  0.00    -0.327 N 
ATOM     34  H   UNL     1     -12.037  -7.788  16.722  0.00  0.00    +0.148 HD
BRANCH   9  29
ATOM     29  C   UNL     1     -11.317  -6.042  15.733  0.00  0.00    +0.131 C 
BRANCH  29  31
ATOM     31  C   UNL     1     -12.548  -5.928  14.851  0.00  0.00    +0.178 C 
BRANCH  31   3
ATOM      3  O   UNL     1     -12.362  -4.877  13.911  0.00  0.00    -0.381 OA
ATOM     32  C   UNL     1     -12.518  -5.339  12.577  0.00  0.00    +0.194 C 
ENDBRANCH  31   3
ENDBRANCH  29  31
ENDBRANCH   9  29
ENDBRANCH  27   9
ENDBRANCH  19  23
ENDBRANCH  10  15
BRANCH   4  14
ATOM     14  C   UNL     1      -3.389 -11.132  12.657  0.00  0.00    +0.120 C 
BRANCH  14  16
ATOM     16  C   UNL     1      -4.141 -10.219  11.727  0.00  0.00    -0.033 A 
ATOM     17  C   UNL     1      -3.571  -9.838  10.511  0.00  0.00    +0.007 A 
ATOM     18  C   UNL     1      -5.408  -9.753  12.078  0.00  0.00    +0.007 A 
ATOM     20  C   UNL     1      -4.267  -8.992   9.649  0.00  0.00    +0.023 A 
ATOM     21  C   UNL     1      -6.104  -8.906  11.216  0.00  0.00    +0.023 A 
ATOM     22  C   UNL     1      -5.533  -8.525  10.002  0.00  0.00    +0.033 A 
BRANCH  22   7
ATOM      2  O   UNL     1      -8.194  -8.883   8.637  0.00  0.00    -0.276 OA
ATOM      7  N   UNL     1      -6.230  -7.678   9.139  0.00  0.00    -0.286 N 
ATOM     28  C   UNL     1      -7.473  -7.897   8.528  0.00  0.00    +0.214 C 
ATOM     30  C   UNL     1      -7.882  -6.732   7.663  0.00  0.00    +0.109 C 
ATOM     33  H   UNL     1      -5.771  -6.794   8.934  0.00  0.00    +0.155 HD
ENDBRANCH  22   7
ENDBRANCH  14  16
ENDBRANCH   4  14
TORSDOF 9
ENDMDL
MODEL 3
REMARK VINA RESULT:      -6.6     25.615     30.288
REMARK  Name = 45783496
REMARK  11 active torsions:
REMARK  status: ('A' for Active; 'I' for Inactive)
REMARK    1  A    between atoms: O_3  and  C_31
REMARK    2  A    between atoms: O_3  and  C_32
REMARK    3  A    between atoms: N_4  and  C_14
REMARK    4  A    between atoms: N_7  and  C_22
REMARK    5  A    between atoms: N_9  and  C_27
REMARK    6  A    between atoms: N_9  and  C_29
REMARK    7  A    between atoms: C_10  and  C_15
REMARK    8  A    between atoms: C_14  and  C_16
REMARK    9  A    between atoms: C_19  and  C_23
REMARK   10  A    between atoms: C_28  and  C_30
REMARK   11  A    between atoms: C_29  and  C_31
REMARK                            x       y       z     vdW  Elec       q    Type
REMARK                         _______ _______ _______ _____ _____    ______ ____
ROOT
ATOM      4  N   UNL     1      10.230   5.365   6.190  0.00  0.00    -0.287 NA
ATOM     10  C   UNL     1      10.018   6.499   7.111  0.00  0.00    +0.146 C 
ATOM     11  C   UNL     1       9.862   5.852   8.500  0.00  0.00    +0.030 C 
ATOM     12  C   UNL     1       9.939   4.352   8.250  0.00  0.00    +0.017 C 
ATOM     13  C   UNL     1       9.556   4.214   6.790  0.00  0.00    +0.085 C 
ENDROOT
BRANCH  10  15
ATOM      1  O   UNL     1      10.850   8.769   7.473  0.00  0.00    -0.336 OA
ATOM      5  N   UNL     1      12.386   7.350   6.672  0.00  0.00    -0.190 NA
ATOM      6  N   UNL     1      12.030   9.510   7.337  0.00  0.00    -0.056 NA
ATOM     15  C   UNL     1      11.146   7.509   7.061  0.00  0.00    +0.245 A 
ATOM     19  C   UNL     1      12.889   8.604   6.860  0.00  0.00    +0.204 A 
BRANCH  19  23
ATOM      8  N   UNL     1      15.988  10.591   6.337  0.00  0.00    -0.240 NA
ATOM     23  C   UNL     1      14.257   8.919   6.561  0.00  0.00    +0.041 A 
ATOM     24  C   UNL     1      15.162   7.924   6.214  0.00  0.00    +0.016 A 
ATOM     25  C   UNL     1      14.715  10.227   6.607  0.00  0.00    +0.124 A 
ATOM     26  C   UNL     1      16.481   8.259   5.929  0.00  0.00    +0.044 A 
ATOM     27  C   UNL     1      16.841   9.595   6.004  0.00  0.00    +0.119 A 
BRANCH  27   9
ATOM      9  N   UNL     1      18.188   9.922   5.712  0.00  0.00    -0.327 N 
ATOM     34  H   UNL     1      18.347  10.798   5.228  0.00  0.00    +0.148 HD
BRANCH   9  29
ATOM     29  C   UNL     1      19.281   9.075   6.068  0.00  0.00    +0.131 C 
BRANCH  29  31
ATOM     31  C   UNL     1      20.132   8.783   4.845  0.00  0.00    +0.178 C 
BRANCH  31   3
ATOM      3  O   UNL     1      19.936   7.434   4.442  0.00  0.00    -0.381 OA
ATOM     32  C   UNL     1      21.092   6.644   4.684  0.00  0.00    +0.194 C 
ENDBRANCH  31   3
ENDBRANCH  29  31
ENDBRANCH   9  29
ENDBRANCH  27   9
ENDBRANCH  19  23
ENDBRANCH  10  15
BRANCH   4  14
ATOM     14  C   UNL     1       9.761   5.631   4.836  0.00  0.00    +0.120 C 
BRANCH  14  16
ATOM     16  C   UNL     1      10.846   5.418   3.815  0.00  0.00    -0.033 A 
ATOM     17  C   UNL     1      10.954   4.191   3.158  0.00  0.00    +0.007 A 
ATOM     18  C   UNL     1      11.743   6.445   3.524  0.00  0.00    +0.007 A 
ATOM     20  C   UNL     1      11.959   3.993   2.212  0.00  0.00    +0.023 A 
ATOM     21  C   UNL     1      12.749   6.246   2.578  0.00  0.00    +0.023 A 
ATOM     22  C   UNL     1      12.857   5.020   1.922  0.00  0.00    +0.033 A 
BRANCH  22   7
ATOM      2  O   UNL     1      15.208   3.139   1.934  0.00  0.00    -0.276 OA
ATOM      7  N   UNL     1      13.862   4.822   0.976  0.00  0.00    -0.286 N 
ATOM     28  C   UNL     1      14.941   3.928   1.033  0.00  0.00    +0.214 C 
ATOM     30  C   UNL     1      15.808   4.020  -0.196  0.00  0.00    +0.109 C 
ATOM     33  H   UNL     1      13.797   5.403   0.144  0.00  0.00    +0.155 HD
ENDBRANCH  22   7
ENDBRANCH  14  16
ENDBRANCH   4  14
TORSDOF 9
ENDMDL
MODEL 4
REMARK VINA RESULT:      -6.5     17.900     21.488
REMARK  Name = 45783496
REMARK  11 active torsions:
REMARK  status: ('A' for Active; 'I' for Inactive)
REMARK    1  A    between atoms: O_3  and  C_31
REMARK    2  A    between atoms: O_3  and  C_32
REMARK    3  A    between atoms: N_4  and  C_14
REMARK    4  A    between atoms: N_7  and  C_22
REMARK    5  A    between atoms: N_9  and  C_27
REMARK    6  A    between atoms: N_9  and  C_29
REMARK    7  A    between atoms: C_10  and  C_15
REMARK    8  A    between atoms: C_14  and  C_16
REMARK    9  A    between atoms: C_19  and  C_23
REMARK   10  A    between atoms: C_28  and  C_30
REMARK   11  A    between atoms: C_29  and  C_31
REMARK                            x       y       z     vdW  Elec       q    Type
REMARK                         _______ _______ _______ _____ _____    ______ ____
ROOT
ATOM      4  N   UNL     1     -11.030   9.395  17.362  0.00  0.00    -0.287 NA
ATOM     10  C   UNL     1     -10.395  10.389  18.250  0.00  0.00    +0.146 C 
ATOM     11  C   UNL     1     -10.006  11.554  17.320  0.00  0.00    +0.030 C 
ATOM     12  C   UNL     1     -10.405  11.098  15.924  0.00  0.00    +0.017 C 
ATOM     13  C   UNL     1     -10.438   9.586  16.038  0.00  0.00    +0.085 C 
ENDROOT
BRANCH  10  15
ATOM      1  O   UNL     1     -12.255  11.744  19.075  0.00  0.00    -0.336 OA
ATOM      5  N   UNL     1     -11.311  10.442  20.633  0.00  0.00    -0.190 NA
ATOM      6  N   UNL     1     -12.959  11.985  20.261  0.00  0.00    -0.056 NA
ATOM     15  C   UNL     1     -11.304  10.824  19.381  0.00  0.00    +0.245 A 
ATOM     19  C   UNL     1     -12.343  11.181  21.133  0.00  0.00    +0.204 A 
BRANCH  19  23
ATOM      8  N   UNL     1     -12.643  12.006  24.747  0.00  0.00    -0.240 NA
ATOM     23  C   UNL     1     -12.735  11.092  22.511  0.00  0.00    +0.041 A 
ATOM     24  C   UNL     1     -13.550  10.059  22.959  0.00  0.00    +0.016 A 
ATOM     25  C   UNL     1     -12.311  12.032  23.437  0.00  0.00    +0.124 A 
ATOM     26  C   UNL     1     -13.913   9.998  24.299  0.00  0.00    +0.044 A 
ATOM     27  C   UNL     1     -13.437  10.986  25.146  0.00  0.00    +0.119 A 
BRANCH  27   9
ATOM      9  N   UNL     1     -13.816  10.912  26.508  0.00  0.00    -0.327 N 
ATOM     34  H   UNL     1     -14.664  11.401  26.770  0.00  0.00    +0.148 HD
BRANCH   9  29
ATOM     29  C   UNL     1     -13.055  10.196  27.482  0.00  0.00    +0.131 C 
BRANCH  29  31
ATOM     31  C   UNL     1     -12.172  11.156  28.260  0.00  0.00    +0.178 C 
BRANCH  31   3
ATOM      3  O   UNL     1     -10.841  11.084  27.762  0.00  0.00    -0.381 OA
ATOM     32  C   UNL     1     -10.559   9.805  27.211  0.00  0.00    +0.194 C 
ENDBRANCH  31   3
ENDBRANCH  29  31
ENDBRANCH   9  29
ENDBRANCH  27   9
ENDBRANCH  19  23
ENDBRANCH  10  15
BRANCH   4  14
ATOM     14  C   UNL     1     -10.883   8.025  17.836  0.00  0.00    +0.120 C 
BRANCH  14  16
ATOM     16  C   UNL     1     -11.908   7.681  18.882  0.00  0.00    -0.033 A 
ATOM     17  C   UNL     1     -11.511   7.075  20.076  0.00  0.00    +0.007 A 
ATOM     18  C   UNL     1     -13.256   7.967  18.662  0.00  0.00    +0.007 A 
ATOM     20  C   UNL     1     -12.461   6.756  21.045  0.00  0.00    +0.023 A 
ATOM     21  C   UNL     1     -14.205   7.648  19.632  0.00  0.00    +0.023 A 
ATOM     22  C   UNL     1     -13.808   7.042  20.823  0.00  0.00    +0.033 A 
BRANCH  22   7
ATOM      2  O   UNL     1     -14.628   4.373  21.953  0.00  0.00    -0.276 OA
ATOM      7  N   UNL     1     -14.758   6.723  21.794  0.00  0.00    -0.286 N 
ATOM     28  C   UNL     1     -15.102   5.455  22.284  0.00  0.00    +0.214 C 
ATOM     30  C   UNL     1     -16.182   5.536  23.333  0.00  0.00    +0.109 C 
ATOM     33  H   UNL     1     -15.258   7.515  22.190  0.00  0.00    +0.155 HD
ENDBRANCH  22   7
ENDBRANCH  14  16
ENDBRANCH   4  14
TORSDOF 9
ENDMDL
MODEL 5
REMARK VINA RESULT:      -6.5      4.011      8.460
REMARK  Name = 45783496
REMARK  11 active torsions:
REMARK  status: ('A' for Active; 'I' for Inactive)
REMARK    1  A    between atoms: O_3  and  C_31
REMARK    2  A    between atoms: O_3  and  C_32
REMARK    3  A    between atoms: N_4  and  C_14
REMARK    4  A    between atoms: N_7  and  C_22
REMARK    5  A    between atoms: N_9  and  C_27
REMARK    6  A    between atoms: N_9  and  C_29
REMARK    7  A    between atoms: C_10  and  C_15
REMARK    8  A    between atoms: C_14  and  C_16
REMARK    9  A    between atoms: C_19  and  C_23
REMARK   10  A    between atoms: C_28  and  C_30
REMARK   11  A    between atoms: C_29  and  C_31
REMARK                            x       y       z     vdW  Elec       q    Type
REMARK                         _______ _______ _______ _____ _____    ______ ____
ROOT
ATOM      4  N   UNL     1      -3.106 -10.501  14.062  0.00  0.00    -0.287 NA
ATOM     10  C   UNL     1      -3.272 -11.187  15.359  0.00  0.00    +0.146 C 
ATOM     11  C   UNL     1      -2.055 -10.745  16.194  0.00  0.00    +0.030 C 
ATOM     12  C   UNL     1      -1.234  -9.865  15.264  0.00  0.00    +0.017 C 
ATOM     13  C   UNL     1      -1.668 -10.304  13.879  0.00  0.00    +0.085 C 
ENDROOT
BRANCH  10  15
ATOM      1  O   UNL     1      -5.174  -9.684  15.669  0.00  0.00    -0.336 OA
ATOM      5  N   UNL     1      -5.263 -11.541  16.918  0.00  0.00    -0.190 NA
ATOM      6  N   UNL     1      -6.361  -9.599  16.409  0.00  0.00    -0.056 NA
ATOM     15  C   UNL     1      -4.589 -10.857  16.028  0.00  0.00    +0.245 A 
ATOM     19  C   UNL     1      -6.342 -10.730  17.120  0.00  0.00    +0.204 A 
BRANCH  19  23
ATOM      8  N   UNL     1      -9.598 -10.653  18.913  0.00  0.00    -0.240 NA
ATOM     23  C   UNL     1      -7.385 -11.081  18.041  0.00  0.00    +0.041 A 
ATOM     24  C   UNL     1      -7.231 -12.139  18.930  0.00  0.00    +0.016 A 
ATOM     25  C   UNL     1      -8.578 -10.375  18.072  0.00  0.00    +0.124 A 
ATOM     26  C   UNL     1      -8.259 -12.454  19.810  0.00  0.00    +0.044 A 
ATOM     27  C   UNL     1      -9.413 -11.688  19.763  0.00  0.00    +0.119 A 
BRANCH  27   9
ATOM      9  N   UNL     1     -10.452 -12.023  20.665  0.00  0.00    -0.327 N 
ATOM     34  H   UNL     1     -10.469 -11.517  21.543  0.00  0.00    +0.148 HD
BRANCH   9  29
ATOM     29  C   UNL     1     -11.431 -13.020  20.377  0.00  0.00    +0.131 C 
BRANCH  29  31
ATOM     31  C   UNL     1     -11.922 -13.656  21.667  0.00  0.00    +0.178 C 
BRANCH  31   3
ATOM      3  O   UNL     1     -13.251 -13.226  21.931  0.00  0.00    -0.381 OA
ATOM     32  C   UNL     1     -13.427 -12.888  23.300  0.00  0.00    +0.194 C 
ENDBRANCH  31   3
ENDBRANCH  29  31
ENDBRANCH   9  29
ENDBRANCH  27   9
ENDBRANCH  19  23
ENDBRANCH  10  15
BRANCH   4  14
ATOM     14  C   UNL     1      -3.706 -11.226  12.949  0.00  0.00    +0.120 C 
BRANCH  14  16
ATOM     16  C   UNL     1      -4.374 -10.298  11.971  0.00  0.00    -0.033 A 
ATOM     17  C   UNL     1      -3.767 -10.022  10.745  0.00  0.00    +0.007 A 
ATOM     18  C   UNL     1      -5.600  -9.713  12.288  0.00  0.00    +0.007 A 
ATOM     20  C   UNL     1      -4.385  -9.162   9.838  0.00  0.00    +0.023 A 
ATOM     21  C   UNL     1      -6.218  -8.853  11.381  0.00  0.00    +0.023 A 
ATOM     22  C   UNL     1      -5.611  -8.577  10.157  0.00  0.00    +0.033 A 
BRANCH  22   7
ATOM      2  O   UNL     1      -8.242  -8.822   8.712  0.00  0.00    -0.276 OA
ATOM      7  N   UNL     1      -6.230  -7.716   9.250  0.00  0.00    -0.286 N 
ATOM     28  C   UNL     1      -7.463  -7.881   8.603  0.00  0.00    +0.214 C 
ATOM     30  C   UNL     1      -7.777  -6.719   7.695  0.00  0.00    +0.109 C 
ATOM     33  H   UNL     1      -5.715  -6.865   9.037  0.00  0.00    +0.155 HD
ENDBRANCH  22   7
ENDBRANCH  14  16
ENDBRANCH   4  14
TORSDOF 9
ENDMDL
MODEL 6
REMARK VINA RESULT:      -6.5      4.134      9.453
REMARK  Name = 45783496
REMARK  11 active torsions:
REMARK  status: ('A' for Active; 'I' for Inactive)
REMARK    1  A    between atoms: O_3  and  C_31
REMARK    2  A    between atoms: O_3  and  C_32
REMARK    3  A    between atoms: N_4  and  C_14
REMARK    4  A    between atoms: N_7  and  C_22
REMARK    5  A    between atoms: N_9  and  C_27
REMARK    6  A    between atoms: N_9  and  C_29
REMARK    7  A    between atoms: C_10  and  C_15
REMARK    8  A    between atoms: C_14  and  C_16
REMARK    9  A    between atoms: C_19  and  C_23
REMARK   10  A    between atoms: C_28  and  C_30
REMARK   11  A    between atoms: C_29  and  C_31
REMARK                            x       y       z     vdW  Elec       q    Type
REMARK                         _______ _______ _______ _____ _____    ______ ____
ROOT
ATOM      4  N   UNL     1      -3.378 -11.783  14.489  0.00  0.00    -0.287 NA
ATOM     10  C   UNL     1      -2.350 -11.769  13.429  0.00  0.00    +0.146 C 
ATOM     11  C   UNL     1      -2.152 -13.249  13.054  0.00  0.00    +0.030 C 
ATOM     12  C   UNL     1      -3.064 -14.022  13.995  0.00  0.00    +0.017 C 
ATOM     13  C   UNL     1      -3.257 -13.076  15.164  0.00  0.00    +0.085 C 
ENDROOT
BRANCH  10  15
ATOM      1  O   UNL     1      -1.774 -10.131  11.709  0.00  0.00    -0.336 OA
ATOM      5  N   UNL     1      -3.907 -10.811  11.647  0.00  0.00    -0.190 NA
ATOM      6  N   UNL     1      -2.371  -9.444  10.644  0.00  0.00    -0.056 NA
ATOM     15  C   UNL     1      -2.747 -10.914  12.244  0.00  0.00    +0.245 A 
ATOM     19  C   UNL     1      -3.627  -9.898  10.672  0.00  0.00    +0.204 A 
BRANCH  19  23
ATOM      8  N   UNL     1      -6.417  -7.930   9.199  0.00  0.00    -0.240 NA
ATOM     23  C   UNL     1      -4.627  -9.462   9.740  0.00  0.00    +0.041 A 
ATOM     24  C   UNL     1      -4.795 -10.101   8.517  0.00  0.00    +0.016 A 
ATOM     25  C   UNL     1      -5.457  -8.390  10.031  0.00  0.00    +0.124 A 
ATOM     26  C   UNL     1      -5.772  -9.657   7.635  0.00  0.00    +0.044 A 
ATOM     27  C   UNL     1      -6.551  -8.577   8.018  0.00  0.00    +0.119 A 
BRANCH  27   9
ATOM      9  N   UNL     1      -7.542  -8.134   7.109  0.00  0.00    -0.327 N 
ATOM     34  H   UNL     1      -7.793  -8.776   6.366  0.00  0.00    +0.148 HD
BRANCH   9  29
ATOM     29  C   UNL     1      -8.164  -6.853   7.210  0.00  0.00    +0.131 C 
BRANCH  29  31
ATOM     31  C   UNL     1      -9.637  -6.962   6.856  0.00  0.00    +0.178 C 
BRANCH  31   3
ATOM      3  O   UNL     1     -10.400  -6.162   7.751  0.00  0.00    -0.381 OA
ATOM     32  C   UNL     1      -9.579  -5.239   8.453  0.00  0.00    +0.194 C 
ENDBRANCH  31   3
ENDBRANCH  29  31
ENDBRANCH   9  29
ENDBRANCH  27   9
ENDBRANCH  19  23
ENDBRANCH  10  15
BRANCH   4  14
ATOM     14  C   UNL     1      -3.260 -10.666  15.418  0.00  0.00    +0.120 C 
BRANCH  14  16
ATOM     16  C   UNL     1      -4.479 -10.533  16.291  0.00  0.00    -0.033 A 
ATOM     17  C   UNL     1      -4.429 -10.939  17.626  0.00  0.00    +0.007 A 
ATOM     18  C   UNL     1      -5.659 -10.005  15.768  0.00  0.00    +0.007 A 
ATOM     20  C   UNL     1      -5.557 -10.816  18.435  0.00  0.00    +0.023 A 
ATOM     21  C   UNL     1      -6.788  -9.882  16.577  0.00  0.00    +0.023 A 
ATOM     22  C   UNL     1      -6.737 -10.288  17.911  0.00  0.00    +0.033 A 
BRANCH  22   7
ATOM      2  O   UNL     1      -8.942 -12.252  18.501  0.00  0.00    -0.276 OA
ATOM      7  N   UNL     1      -7.867 -10.165  18.720  0.00  0.00    -0.286 N 
ATOM     28  C   UNL     1      -8.868 -11.117  18.960  0.00  0.00    +0.214 C 
ATOM     30  C   UNL     1      -9.923 -10.593  19.900  0.00  0.00    +0.109 C 
ATOM     33  H   UNL     1      -7.968  -9.269  19.192  0.00  0.00    +0.155 HD
ENDBRANCH  22   7
ENDBRANCH  14  16
ENDBRANCH   4  14
TORSDOF 9
ENDMDL
MODEL 7
REMARK VINA RESULT:      -6.3     25.926     28.140
REMARK  Name = 45783496
REMARK  11 active torsions:
REMARK  status: ('A' for Active; 'I' for Inactive)
REMARK    1  A    between atoms: O_3  and  C_31
REMARK    2  A    between atoms: O_3  and  C_32
REMARK    3  A    between atoms: N_4  and  C_14
REMARK    4  A    between atoms: N_7  and  C_22
REMARK    5  A    between atoms: N_9  and  C_27
REMARK    6  A    between atoms: N_9  and  C_29
REMARK    7  A    between atoms: C_10  and  C_15
REMARK    8  A    between atoms: C_14  and  C_16
REMARK    9  A    between atoms: C_19  and  C_23
REMARK   10  A    between atoms: C_28  and  C_30
REMARK   11  A    between atoms: C_29  and  C_31
REMARK                            x       y       z     vdW  Elec       q    Type
REMARK                         _______ _______ _______ _____ _____    ______ ____
ROOT
ATOM      4  N   UNL     1       9.394   7.719   6.281  0.00  0.00    -0.287 NA
ATOM     10  C   UNL     1      10.520   6.775   6.432  0.00  0.00    +0.146 C 
ATOM     11  C   UNL     1      10.295   6.112   7.804  0.00  0.00    +0.030 C 
ATOM     12  C   UNL     1       9.058   6.790   8.374  0.00  0.00    +0.017 C 
ATOM     13  C   UNL     1       9.002   8.112   7.635  0.00  0.00    +0.085 C 
ENDROOT
BRANCH  10  15
ATOM      1  O   UNL     1      10.072   4.538   5.553  0.00  0.00    -0.336 OA
ATOM      5  N   UNL     1      11.088   5.905   4.098  0.00  0.00    -0.190 NA
ATOM      6  N   UNL     1      10.251   3.794   4.380  0.00  0.00    -0.056 NA
ATOM     15  C   UNL     1      10.591   5.769   5.302  0.00  0.00    +0.245 A 
ATOM     19  C   UNL     1      10.856   4.669   3.570  0.00  0.00    +0.204 A 
BRANCH  19  23
ATOM      8  N   UNL     1      10.641   4.162  -0.107  0.00  0.00    -0.240 NA
ATOM     23  C   UNL     1      11.241   4.340   2.227  0.00  0.00    +0.041 A 
ATOM     24  C   UNL     1      12.526   3.894   1.939  0.00  0.00    +0.016 A 
ATOM     25  C   UNL     1      10.343   4.455   1.178  0.00  0.00    +0.124 A 
ATOM     26  C   UNL     1      12.869   3.582   0.629  0.00  0.00    +0.044 A 
ATOM     27  C   UNL     1      11.900   3.731  -0.350  0.00  0.00    +0.119 A 
BRANCH  27   9
ATOM      9  N   UNL     1      12.265   3.411  -1.680  0.00  0.00    -0.327 N 
ATOM     34  H   UNL     1      12.938   4.024  -2.125  0.00  0.00    +0.148 HD
BRANCH   9  29
ATOM     29  C   UNL     1      11.722   2.291  -2.380  0.00  0.00    +0.131 C 
BRANCH  29  31
ATOM     31  C   UNL     1      10.908   2.768  -3.571  0.00  0.00    +0.178 C 
BRANCH  31   3
ATOM      3  O   UNL     1       9.573   3.030  -3.158  0.00  0.00    -0.381 OA
ATOM     32  C   UNL     1       9.162   4.339  -3.524  0.00  0.00    +0.194 C 
ENDBRANCH  31   3
ENDBRANCH  29  31
ENDBRANCH   9  29
ENDBRANCH  27   9
ENDBRANCH  19  23
ENDBRANCH  10  15
BRANCH   4  14
ATOM     14  C   UNL     1       9.718   8.869   5.447  0.00  0.00    +0.120 C 
BRANCH  14  16
ATOM     16  C   UNL     1       8.700   9.077   4.359  0.00  0.00    -0.033 A 
ATOM     17  C   UNL     1       8.988   8.684   3.051  0.00  0.00    +0.007 A 
ATOM     18  C   UNL     1       7.468   9.660   4.655  0.00  0.00    +0.007 A 
ATOM     20  C   UNL     1       8.046   8.876   2.041  0.00  0.00    +0.023 A 
ATOM     21  C   UNL     1       6.526   9.852   3.646  0.00  0.00    +0.023 A 
ATOM     22  C   UNL     1       6.814   9.460   2.339  0.00  0.00    +0.033 A 
BRANCH  22   7
ATOM      2  O   UNL     1       6.568  11.648   0.284  0.00  0.00    -0.276 OA
ATOM      7  N   UNL     1       5.871   9.652   1.329  0.00  0.00    -0.286 N 
ATOM     28  C   UNL     1       5.803  10.696   0.395  0.00  0.00    +0.214 C 
ATOM     30  C   UNL     1       4.625  10.538  -0.533  0.00  0.00    +0.109 C 
ATOM     33  H   UNL     1       5.146   8.941   1.271  0.00  0.00    +0.155 HD
ENDBRANCH  22   7
ENDBRANCH  14  16
ENDBRANCH   4  14
TORSDOF 9
ENDMDL
MODEL 8
REMARK VINA RESULT:      -6.2      3.400      6.687
REMARK  Name = 45783496
REMARK  11 active torsions:
REMARK  status: ('A' for Active; 'I' for Inactive)
REMARK    1  A    between atoms: O_3  and  C_31
REMARK    2  A    between atoms: O_3  and  C_32
REMARK    3  A    between atoms: N_4  and  C_14
REMARK    4  A    between atoms: N_7  and  C_22
REMARK    5  A    between atoms: N_9  and  C_27
REMARK    6  A    between atoms: N_9  and  C_29
REMARK    7  A    between atoms: C_10  and  C_15
REMARK    8  A    between atoms: C_14  and  C_16
REMARK    9  A    between atoms: C_19  and  C_23
REMARK   10  A    between atoms: C_28  and  C_30
REMARK   11  A    between atoms: C_29  and  C_31
REMARK                            x       y       z     vdW  Elec       q    Type
REMARK                         _______ _______ _______ _____ _____    ______ ____
ROOT
ATOM      4  N   UNL     1      -9.375 -11.339  19.185  0.00  0.00    -0.287 NA
ATOM     10  C   UNL     1     -10.020 -11.405  17.859  0.00  0.00    +0.146 C 
ATOM     11  C   UNL     1     -11.369 -10.683  18.042  0.00  0.00    +0.030 C 
ATOM     12  C   UNL     1     -11.418 -10.303  19.515  0.00  0.00    +0.017 C 
ATOM     13  C   UNL     1     -10.457 -11.276  20.168  0.00  0.00    +0.085 C 
ENDROOT
BRANCH  10  15
ATOM      1  O   UNL     1      -8.776  -9.502  16.960  0.00  0.00    -0.336 OA
ATOM      5  N   UNL     1      -8.755 -11.312  15.642  0.00  0.00    -0.190 NA
ATOM      6  N   UNL     1      -8.017  -9.155  15.836  0.00  0.00    -0.056 NA
ATOM     15  C   UNL     1      -9.172 -10.787  16.767  0.00  0.00    +0.245 A 
ATOM     19  C   UNL     1      -8.051 -10.274  15.106  0.00  0.00    +0.204 A 
BRANCH  19  23
ATOM      8  N   UNL     1      -5.853 -11.589  12.411  0.00  0.00    -0.240 NA
ATOM     23  C   UNL     1      -7.391 -10.388  13.836  0.00  0.00    +0.041 A 
ATOM     24  C   UNL     1      -7.618  -9.462  12.824  0.00  0.00    +0.016 A 
ATOM     25  C   UNL     1      -6.506 -11.424  13.582  0.00  0.00    +0.124 A 
ATOM     26  C   UNL     1      -6.963  -9.599  11.606  0.00  0.00    +0.044 A 
ATOM     27  C   UNL     1      -6.098 -10.669  11.450  0.00  0.00    +0.119 A 
BRANCH  27   9
ATOM      9  N   UNL     1      -5.439 -10.796  10.203  0.00  0.00    -0.327 N 
ATOM     34  H   UNL     1      -6.032 -10.877   9.384  0.00  0.00    +0.148 HD
BRANCH   9  29
ATOM     29  C   UNL     1      -4.017 -10.816  10.080  0.00  0.00    +0.131 C 
BRANCH  29  31
ATOM     31  C   UNL     1      -3.449  -9.442  10.391  0.00  0.00    +0.178 C 
BRANCH  31   3
ATOM      3  O   UNL     1      -2.101  -9.574  10.824  0.00  0.00    -0.381 OA
ATOM     32  C   UNL     1      -2.007 -10.360  12.003  0.00  0.00    +0.194 C 
ENDBRANCH  31   3
ENDBRANCH  29  31
ENDBRANCH   9  29
ENDBRANCH  27   9
ENDBRANCH  19  23
ENDBRANCH  10  15
BRANCH   4  14
ATOM     14  C   UNL     1      -8.467 -12.451  19.438  0.00  0.00    +0.120 C 
BRANCH  14  16
ATOM     16  C   UNL     1      -7.094 -12.191  18.879  0.00  0.00    -0.033 A 
ATOM     17  C   UNL     1      -6.393 -11.044  19.255  0.00  0.00    +0.007 A 
ATOM     18  C   UNL     1      -6.520 -13.096  17.986  0.00  0.00    +0.007 A 
ATOM     20  C   UNL     1      -5.121 -10.803  18.738  0.00  0.00    +0.023 A 
ATOM     21  C   UNL     1      -5.248 -12.854  17.468  0.00  0.00    +0.023 A 
ATOM     22  C   UNL     1      -4.549 -11.708  17.844  0.00  0.00    +0.033 A 
BRANCH  22   7
ATOM      2  O   UNL     1      -3.703 -10.451  15.241  0.00  0.00    -0.276 OA
ATOM      7  N   UNL     1      -3.276 -11.466  17.327  0.00  0.00    -0.286 N 
ATOM     28  C   UNL     1      -2.938 -10.875  16.101  0.00  0.00    +0.214 C 
ATOM     30  C   UNL     1      -1.444 -10.795  15.913  0.00  0.00    +0.109 C 
ATOM     33  H   UNL     1      -2.503 -11.759  17.920  0.00  0.00    +0.155 HD
ENDBRANCH  22   7
ENDBRANCH  14  16
ENDBRANCH   4  14
TORSDOF 9
ENDMDL
MODEL 9
REMARK VINA RESULT:      -6.2      3.637      7.997
REMARK  Name = 45783496
REMARK  11 active torsions:
REMARK  status: ('A' for Active; 'I' for Inactive)
REMARK    1  A    between atoms: O_3  and  C_31
REMARK    2  A    between atoms: O_3  and  C_32
REMARK    3  A    between atoms: N_4  and  C_14
REMARK    4  A    between atoms: N_7  and  C_22
REMARK    5  A    between atoms: N_9  and  C_27
REMARK    6  A    between atoms: N_9  and  C_29
REMARK    7  A    between atoms: C_10  and  C_15
REMARK    8  A    between atoms: C_14  and  C_16
REMARK    9  A    between atoms: C_19  and  C_23
REMARK   10  A    between atoms: C_28  and  C_30
REMARK   11  A    between atoms: C_29  and  C_31
REMARK                            x       y       z     vdW  Elec       q    Type
REMARK                         _______ _______ _______ _____ _____    ______ ____
ROOT
ATOM      4  N   UNL     1      -3.625 -10.056  11.415  0.00  0.00    -0.287 NA
ATOM     10  C   UNL     1      -2.677 -10.727  12.327  0.00  0.00    +0.146 C 
ATOM     11  C   UNL     1      -1.334 -10.009  12.096  0.00  0.00    +0.030 C 
ATOM     12  C   UNL     1      -1.612  -8.995  10.995  0.00  0.00    +0.017 C 
ATOM     13  C   UNL     1      -2.832  -9.555  10.292  0.00  0.00    +0.085 C 
ENDROOT
BRANCH  10  15
ATOM      1  O   UNL     1      -2.147 -10.735  14.713  0.00  0.00    -0.336 OA
ATOM      5  N   UNL     1      -4.335 -10.582  14.264  0.00  0.00    -0.190 NA
ATOM      6  N   UNL     1      -2.795 -10.673  15.953  0.00  0.00    -0.056 NA
ATOM     15  C   UNL     1      -3.125 -10.675  13.772  0.00  0.00    +0.245 A 
ATOM     19  C   UNL     1      -4.082 -10.584  15.604  0.00  0.00    +0.204 A 
BRANCH  19  23
ATOM      8  N   UNL     1      -6.041 -11.162  18.711  0.00  0.00    -0.240 NA
ATOM     23  C   UNL     1      -5.139 -10.494  16.571  0.00  0.00    +0.041 A 
ATOM     24  C   UNL     1      -6.253  -9.695  16.342  0.00  0.00    +0.016 A 
ATOM     25  C   UNL     1      -5.081 -11.202  17.761  0.00  0.00    +0.124 A 
ATOM     26  C   UNL     1      -7.261  -9.628  17.296  0.00  0.00    +0.044 A 
ATOM     27  C   UNL     1      -7.110 -10.374  18.454  0.00  0.00    +0.119 A 
BRANCH  27   9
ATOM      9  N   UNL     1      -8.145 -10.295  19.417  0.00  0.00    -0.327 N 
ATOM     34  H   UNL     1      -8.283  -9.394  19.860  0.00  0.00    +0.148 HD
BRANCH   9  29
ATOM     29  C   UNL     1      -8.960 -11.414  19.766  0.00  0.00    +0.131 C 
BRANCH  29  31
ATOM     31  C   UNL     1     -10.416 -10.989  19.852  0.00  0.00    +0.178 C 
BRANCH  31   3
ATOM      3  O   UNL     1     -10.743 -10.188  18.724  0.00  0.00    -0.381 OA
ATOM     32  C   UNL     1     -12.059  -9.660  18.824  0.00  0.00    +0.194 C 
ENDBRANCH  31   3
ENDBRANCH  29  31
ENDBRANCH   9  29
ENDBRANCH  27   9
ENDBRANCH  19  23
ENDBRANCH  10  15
BRANCH   4  14
ATOM     14  C   UNL     1      -4.710 -10.924  10.975  0.00  0.00    +0.120 C 
BRANCH  14  16
ATOM     16  C   UNL     1      -5.857 -10.138  10.400  0.00  0.00    -0.033 A 
ATOM     17  C   UNL     1      -5.970  -9.980   9.017  0.00  0.00    +0.007 A 
ATOM     18  C   UNL     1      -6.809  -9.568  11.245  0.00  0.00    +0.007 A 
ATOM     20  C   UNL     1      -7.032  -9.252   8.483  0.00  0.00    +0.023 A 
ATOM     21  C   UNL     1      -7.871  -8.840  10.711  0.00  0.00    +0.023 A 
ATOM     22  C   UNL     1      -7.982  -8.681   9.329  0.00  0.00    +0.033 A 
BRANCH  22   7
ATOM      2  O   UNL     1      -8.062  -5.901   8.175  0.00  0.00    -0.276 OA
ATOM      7  N   UNL     1      -9.045  -7.953   8.795  0.00  0.00    -0.286 N 
ATOM     28  C   UNL     1      -9.026  -6.653   8.269  0.00  0.00    +0.214 C 
ATOM     30  C   UNL     1     -10.390  -6.225   7.790  0.00  0.00    +0.109 C 
ATOM     33  H   UNL     1      -9.942  -8.433   8.790  0.00  0.00    +0.155 HD
ENDBRANCH  22   7
ENDBRANCH  14  16
ENDBRANCH   4  14
TORSDOF 9
ENDMDL
MODEL 10
REMARK VINA RESULT:      -6.1      2.400      8.589
REMARK  Name = 45783496
REMARK  11 active torsions:
REMARK  status: ('A' for Active; 'I' for Inactive)
REMARK    1  A    between atoms: O_3  and  C_31
REMARK    2  A    between atoms: O_3  and  C_32
REMARK    3  A    between atoms: N_4  and  C_14
REMARK    4  A    between atoms: N_7  and  C_22
REMARK    5  A    between atoms: N_9  and  C_27
REMARK    6  A    between atoms: N_9  and  C_29
REMARK    7  A    between atoms: C_10  and  C_15
REMARK    8  A    between atoms: C_14  and  C_16
REMARK    9  A    between atoms: C_19  and  C_23
REMARK   10  A    between atoms: C_28  and  C_30
REMARK   11  A    between atoms: C_29  and  C_31
REMARK                            x       y       z     vdW  Elec       q    Type
REMARK                         _______ _______ _______ _____ _____    ______ ____
ROOT
ATOM      4  N   UNL     1      -5.573 -11.816  17.886  0.00  0.00    -0.287 NA
ATOM     10  C   UNL     1      -6.983 -12.037  18.264  0.00  0.00    +0.146 C 
ATOM     11  C   UNL     1      -7.108 -11.439  19.678  0.00  0.00    +0.030 C 
ATOM     12  C   UNL     1      -5.707 -10.964  20.033  0.00  0.00    +0.017 C 
ATOM     13  C   UNL     1      -4.810 -11.791  19.134  0.00  0.00    +0.085 C 
ENDROOT
BRANCH  10  15
ATOM      1  O   UNL     1      -8.433 -12.233  16.307  0.00  0.00    -0.336 OA
ATOM      5  N   UNL     1      -8.409 -10.190  17.224  0.00  0.00    -0.190 NA
ATOM      6  N   UNL     1      -9.297 -11.449  15.532  0.00  0.00    -0.056 NA
ATOM     15  C   UNL     1      -7.954 -11.417  17.281  0.00  0.00    +0.245 A 
ATOM     19  C   UNL     1      -9.229 -10.258  16.136  0.00  0.00    +0.204 A 
BRANCH  19  23
ATOM      8  N   UNL     1     -10.443  -6.754  15.866  0.00  0.00    -0.240 NA
ATOM     23  C   UNL     1      -9.968  -9.117  15.678  0.00  0.00    +0.041 A 
ATOM     24  C   UNL     1     -10.896  -9.229  14.649  0.00  0.00    +0.016 A 
ATOM     25  C   UNL     1      -9.780  -7.868  16.249  0.00  0.00    +0.124 A 
ATOM     26  C   UNL     1     -11.597  -8.105  14.228  0.00  0.00    +0.044 A 
ATOM     27  C   UNL     1     -11.337  -6.901  14.863  0.00  0.00    +0.119 A 
BRANCH  27   9
ATOM      9  N   UNL     1     -12.059  -5.766  14.422  0.00  0.00    -0.327 N 
ATOM     34  H   UNL     1     -12.342  -5.104  15.135  0.00  0.00    +0.148 HD
BRANCH   9  29
ATOM     29  C   UNL     1     -12.386  -5.545  13.050  0.00  0.00    +0.131 C 
BRANCH  29  31
ATOM     31  C   UNL     1     -12.510  -4.056  12.778  0.00  0.00    +0.178 C 
BRANCH  31   3
ATOM      3  O   UNL     1     -13.698  -3.561  13.384  0.00  0.00    -0.381 OA
ATOM     32  C   UNL     1     -14.680  -3.231  12.412  0.00  0.00    +0.194 C 
ENDBRANCH  31   3
ENDBRANCH  29  31
ENDBRANCH   9  29
ENDBRANCH  27   9
ENDBRANCH  19  23
ENDBRANCH  10  15
BRANCH   4  14
ATOM     14  C   UNL     1      -5.066 -12.814  16.952  0.00  0.00    +0.120 C 
BRANCH  14  16
ATOM     16  C   UNL     1      -4.650 -12.197  15.644  0.00  0.00    -0.033 A 
ATOM     17  C   UNL     1      -3.631 -11.244  15.616  0.00  0.00    +0.007 A 
ATOM     18  C   UNL     1      -5.280 -12.578  14.460  0.00  0.00    +0.007 A 
ATOM     20  C   UNL     1      -3.245 -10.671  14.405  0.00  0.00    +0.023 A 
ATOM     21  C   UNL     1      -4.894 -12.005  13.249  0.00  0.00    +0.023 A 
ATOM     22  C   UNL     1      -3.876 -11.052  13.221  0.00  0.00    +0.033 A 
BRANCH  22   7
ATOM      2  O   UNL     1      -5.295  -9.067  11.456  0.00  0.00    -0.276 OA
ATOM      7  N   UNL     1      -3.490 -10.480  12.009  0.00  0.00    -0.286 N 
ATOM     28  C   UNL     1      -4.194  -9.556  11.224  0.00  0.00    +0.214 C 
ATOM     30  C   UNL     1      -3.429  -9.182   9.980  0.00  0.00    +0.109 C 
ATOM     33  H   UNL     1      -2.581 -10.775  11.658  0.00  0.00    +0.155 HD
ENDBRANCH  22   7
ENDBRANCH  14  16
ENDBRANCH   4  14
TORSDOF 9
ENDMDL
