MODEL 1
REMARK VINA RESULT:      -8.2      0.000      0.000
REMARK  Name = 45783322
REMARK  5 active torsions:
REMARK  status: ('A' for Active; 'I' for Inactive)
REMARK    1  A    between atoms: N_5  and  C_15
REMARK    2  A    between atoms: C_11  and  C_19
REMARK    3  A    between atoms: C_15  and  C_22
REMARK    4  A    between atoms: C_16  and  C_24
REMARK    5  A    between atoms: C_25  and  C_28
REMARK                            x       y       z     vdW  Elec       q    Type
REMARK                         _______ _______ _______ _____ _____    ______ ____
ROOT
ATOM      1  O   UNL     1      16.399   5.818  18.468  0.00  0.00    -0.336 OA
ATOM      7  N   UNL     1      16.572   7.200  20.223  0.00  0.00    -0.190 NA
ATOM      8  N   UNL     1      17.692   5.642  18.976  0.00  0.00    -0.056 NA
ATOM     19  C   UNL     1      15.807   6.752  19.259  0.00  0.00    +0.245 A 
ATOM     25  C   UNL     1      17.718   6.490  20.009  0.00  0.00    +0.202 A 
ENDROOT
BRANCH  25  28
ATOM      6  N   UNL     1      22.095   5.066  21.464  0.00  0.00    -0.315 N 
ATOM      9  N   UNL     1      21.122   6.973  22.475  0.00  0.00    -0.240 NA
ATOM     16  C   UNL     1      24.262   3.146  21.249  0.00  0.00    +0.078 C 
ATOM     17  C   UNL     1      24.485   4.641  21.033  0.00  0.00    +0.031 C 
ATOM     18  C   UNL     1      22.808   2.758  20.987  0.00  0.00    +0.031 C 
ATOM     20  C   UNL     1      23.459   5.520  21.753  0.00  0.00    +0.107 C 
ATOM     21  C   UNL     1      21.813   3.650  21.729  0.00  0.00    +0.107 C 
ATOM     23  C   UNL     1      21.031   5.968  21.576  0.00  0.00    +0.122 A 
ATOM     26  C   UNL     1      19.939   5.766  20.746  0.00  0.00    +0.055 A 
ATOM     28  C   UNL     1      18.873   6.653  20.846  0.00  0.00    +0.027 A 
ATOM     33  C   UNL     1      18.930   7.699  21.760  0.00  0.00    +0.031 A 
ATOM     34  C   UNL     1      20.066   7.814  22.545  0.00  0.00    +0.113 A 
BRANCH  16  24
ATOM      2  O   UNL     1      25.378   3.432  23.344  0.00  0.00    -0.276 OA
ATOM     10  N   UNL     1      24.231   1.471  22.981  0.00  0.00    -0.329 N 
ATOM     24  C   UNL     1      24.682   2.720  22.625  0.00  0.00    +0.214 C 
ATOM     36  H   UNL     1      24.453   1.081  23.892  0.00  0.00    +0.145 HD
ATOM     37  H   UNL     1      23.709   0.871  22.351  0.00  0.00    +0.145 HD
ENDBRANCH  16  24
ENDBRANCH  25  28
BRANCH  19  11
ATOM      5  N   UNL     1      13.852   8.204  19.770  0.00  0.00    -0.287 NA
ATOM     11  C   UNL     1      14.381   7.124  18.913  0.00  0.00    +0.146 C 
ATOM     12  C   UNL     1      14.238   7.660  17.476  0.00  0.00    +0.030 C 
ATOM     13  C   UNL     1      13.565   9.017  17.623  0.00  0.00    +0.017 C 
ATOM     14  C   UNL     1      12.867   8.926  18.965  0.00  0.00    +0.085 C 
BRANCH   5  15
ATOM     15  C   UNL     1      13.287   7.719  21.023  0.00  0.00    +0.120 C 
BRANCH  15  22
ATOM      3  O   UNL     1      13.200  12.057  23.403  0.00  0.00    -0.453 OA
ATOM      4  O   UNL     1      10.846  11.881  23.885  0.00  0.00    -0.453 OA
ATOM     22  C   UNL     1      12.599   8.816  21.791  0.00  0.00    -0.030 A 
ATOM     27  C   UNL     1      13.330   9.928  22.214  0.00  0.00    +0.054 A 
ATOM     29  C   UNL     1      11.225   8.713  22.072  0.00  0.00    +0.009 A 
ATOM     30  C   UNL     1      12.657  10.910  22.913  0.00  0.00    +0.167 A 
ATOM     31  C   UNL     1      10.567   9.721  22.780  0.00  0.00    +0.050 A 
ATOM     32  C   UNL     1      11.312  10.809  23.187  0.00  0.00    +0.166 A 
ATOM     35  C   UNL     1      12.047  12.668  24.016  0.00  0.00    +0.466 C 
ENDBRANCH  15  22
ENDBRANCH   5  15
ENDBRANCH  19  11
TORSDOF 5
ENDMDL
MODEL 2
REMARK VINA RESULT:      -8.2      2.451     11.591
REMARK  Name = 45783322
REMARK  5 active torsions:
REMARK  status: ('A' for Active; 'I' for Inactive)
REMARK    1  A    between atoms: N_5  and  C_15
REMARK    2  A    between atoms: C_11  and  C_19
REMARK    3  A    between atoms: C_15  and  C_22
REMARK    4  A    between atoms: C_16  and  C_24
REMARK    5  A    between atoms: C_25  and  C_28
REMARK                            x       y       z     vdW  Elec       q    Type
REMARK                         _______ _______ _______ _____ _____    ______ ____
ROOT
ATOM      1  O   UNL     1      20.350   6.965  22.837  0.00  0.00    -0.336 OA
ATOM      7  N   UNL     1      20.029   5.595  21.093  0.00  0.00    -0.190 NA
ATOM      8  N   UNL     1      19.121   7.332  22.274  0.00  0.00    -0.056 NA
ATOM     19  C   UNL     1      20.817   5.936  22.082  0.00  0.00    +0.245 A 
ATOM     25  C   UNL     1      19.002   6.479  21.252  0.00  0.00    +0.202 A 
ENDROOT
BRANCH  25  28
ATOM      6  N   UNL     1      14.540   7.950  20.140  0.00  0.00    -0.315 N 
ATOM      9  N   UNL     1      15.666   6.496  18.649  0.00  0.00    -0.240 NA
ATOM     16  C   UNL     1      12.185   9.471  20.895  0.00  0.00    +0.078 C 
ATOM     17  C   UNL     1      12.924   9.727  19.584  0.00  0.00    +0.031 C 
ATOM     18  C   UNL     1      13.103   8.832  21.936  0.00  0.00    +0.031 C 
ATOM     20  C   UNL     1      13.703   8.511  19.076  0.00  0.00    +0.107 C 
ATOM     21  C   UNL     1      13.856   7.616  21.396  0.00  0.00    +0.107 C 
ATOM     23  C   UNL     1      15.672   7.199  19.804  0.00  0.00    +0.122 A 
ATOM     26  C   UNL     1      16.738   7.227  20.689  0.00  0.00    +0.055 A 
ATOM     28  C   UNL     1      17.869   6.485  20.370  0.00  0.00    +0.027 A 
ATOM     33  C   UNL     1      17.900   5.749  19.190  0.00  0.00    +0.031 A 
ATOM     34  C   UNL     1      16.783   5.787  18.372  0.00  0.00    +0.113 A 
BRANCH  16  24
ATOM      2  O   UNL     1      10.533   8.373  19.558  0.00  0.00    -0.276 OA
ATOM     10  N   UNL     1      10.379   8.190  21.847  0.00  0.00    -0.329 N 
ATOM     24  C   UNL     1      10.963   8.626  20.681  0.00  0.00    +0.214 C 
ATOM     36  H   UNL     1       9.547   7.609  21.822  0.00  0.00    +0.145 HD
ATOM     37  H   UNL     1      10.711   8.460  22.766  0.00  0.00    +0.145 HD
ENDBRANCH  16  24
ENDBRANCH  25  28
BRANCH  19  11
ATOM      5  N   UNL     1      22.824   4.639  21.385  0.00  0.00    -0.287 NA
ATOM     11  C   UNL     1      22.152   5.350  22.491  0.00  0.00    +0.146 C 
ATOM     12  C   UNL     1      23.162   6.425  22.935  0.00  0.00    +0.030 C 
ATOM     13  C   UNL     1      24.390   6.201  22.064  0.00  0.00    +0.017 C 
ATOM     14  C   UNL     1      24.261   4.754  21.632  0.00  0.00    +0.085 C 
BRANCH   5  15
ATOM     15  C   UNL     1      22.399   3.251  21.253  0.00  0.00    +0.120 C 
BRANCH  15  22
ATOM      3  O   UNL     1      24.342   1.078  25.253  0.00  0.00    -0.453 OA
ATOM      4  O   UNL     1      25.877  -0.235  23.940  0.00  0.00    -0.453 OA
ATOM     22  C   UNL     1      23.349   2.306  21.940  0.00  0.00    -0.030 A 
ATOM     27  C   UNL     1      23.330   2.197  23.333  0.00  0.00    +0.054 A 
ATOM     29  C   UNL     1      24.245   1.540  21.174  0.00  0.00    +0.009 A 
ATOM     30  C   UNL     1      24.216   1.316  23.918  0.00  0.00    +0.167 A 
ATOM     31  C   UNL     1      25.132   0.655  21.792  0.00  0.00    +0.050 A 
ATOM     32  C   UNL     1      25.093   0.566  23.169  0.00  0.00    +0.166 A 
ATOM     35  C   UNL     1      25.396   0.093  25.258  0.00  0.00    +0.466 C 
ENDBRANCH  15  22
ENDBRANCH   5  15
ENDBRANCH  19  11
TORSDOF 5
ENDMDL
MODEL 3
REMARK VINA RESULT:      -8.2      2.633     11.208
REMARK  Name = 45783322
REMARK  5 active torsions:
REMARK  status: ('A' for Active; 'I' for Inactive)
REMARK    1  A    between atoms: N_5  and  C_15
REMARK    2  A    between atoms: C_11  and  C_19
REMARK    3  A    between atoms: C_15  and  C_22
REMARK    4  A    between atoms: C_16  and  C_24
REMARK    5  A    between atoms: C_25  and  C_28
REMARK                            x       y       z     vdW  Elec       q    Type
REMARK                         _______ _______ _______ _____ _____    ______ ____
ROOT
ATOM      1  O   UNL     1      20.484   8.286  23.458  0.00  0.00    -0.336 OA
ATOM      7  N   UNL     1      19.814   6.268  22.752  0.00  0.00    -0.190 NA
ATOM      8  N   UNL     1      19.514   8.519  22.475  0.00  0.00    -0.056 NA
ATOM     19  C   UNL     1      20.601   6.935  23.559  0.00  0.00    +0.245 A 
ATOM     25  C   UNL     1      19.167   7.282  22.108  0.00  0.00    +0.202 A 
ENDROOT
BRANCH  25  28
ATOM      6  N   UNL     1      14.848   8.146  20.132  0.00  0.00    -0.315 N 
ATOM      9  N   UNL     1      16.254   6.524  19.134  0.00  0.00    -0.240 NA
ATOM     16  C   UNL     1      12.331   9.591  20.238  0.00  0.00    +0.078 C 
ATOM     17  C   UNL     1      13.242   9.644  19.013  0.00  0.00    +0.031 C 
ATOM     18  C   UNL     1      13.119   9.243  21.500  0.00  0.00    +0.031 C 
ATOM     20  C   UNL     1      14.148   8.419  18.873  0.00  0.00    +0.107 C 
ATOM     21  C   UNL     1      14.004   8.009  21.327  0.00  0.00    +0.107 C 
ATOM     23  C   UNL     1      16.054   7.437  20.111  0.00  0.00    +0.122 A 
ATOM     26  C   UNL     1      16.975   7.722  21.107  0.00  0.00    +0.055 A 
ATOM     28  C   UNL     1      18.178   7.025  21.100  0.00  0.00    +0.027 A 
ATOM     33  C   UNL     1      18.420   6.078  20.111  0.00  0.00    +0.031 A 
ATOM     34  C   UNL     1      17.435   5.866  19.160  0.00  0.00    +0.113 A 
BRANCH  16  24
ATOM      2  O   UNL     1      10.900   8.190  18.931  0.00  0.00    -0.276 OA
ATOM     10  N   UNL     1      10.538   8.300  21.200  0.00  0.00    -0.329 N 
ATOM     24  C   UNL     1      11.200   8.625  20.039  0.00  0.00    +0.214 C 
ATOM     36  H   UNL     1       9.756   7.654  21.186  0.00  0.00    +0.145 HD
ATOM     37  H   UNL     1      10.760   8.717  22.098  0.00  0.00    +0.145 HD
ENDBRANCH  16  24
ENDBRANCH  25  28
BRANCH  19  11
ATOM      5  N   UNL     1      22.782   5.799  23.935  0.00  0.00    -0.287 NA
ATOM     11  C   UNL     1      21.602   6.417  24.570  0.00  0.00    +0.146 C 
ATOM     12  C   UNL     1      22.178   7.533  25.462  0.00  0.00    +0.030 C 
ATOM     13  C   UNL     1      23.688   7.424  25.309  0.00  0.00    +0.017 C 
ATOM     14  C   UNL     1      23.899   5.992  24.860  0.00  0.00    +0.085 C 
BRANCH   5  15
ATOM     15  C   UNL     1      22.585   4.393  23.601  0.00  0.00    +0.120 C 
BRANCH  15  22
ATOM      3  O   UNL     1      25.714   5.282  19.871  0.00  0.00    -0.453 OA
ATOM      4  O   UNL     1      25.509   3.042  19.008  0.00  0.00    -0.453 OA
ATOM     22  C   UNL     1      23.353   3.996  22.369  0.00  0.00    -0.030 A 
ATOM     27  C   UNL     1      24.181   4.928  21.738  0.00  0.00    +0.054 A 
ATOM     29  C   UNL     1      23.233   2.689  21.865  0.00  0.00    +0.009 A 
ATOM     30  C   UNL     1      24.868   4.517  20.614  0.00  0.00    +0.167 A 
ATOM     31  C   UNL     1      23.940   2.299  20.725  0.00  0.00    +0.050 A 
ATOM     32  C   UNL     1      24.750   3.238  20.121  0.00  0.00    +0.166 A 
ATOM     35  C   UNL     1      26.117   4.340  18.857  0.00  0.00    +0.466 C 
ENDBRANCH  15  22
ENDBRANCH   5  15
ENDBRANCH  19  11
TORSDOF 5
ENDMDL
MODEL 4
REMARK VINA RESULT:      -8.2      1.710      2.017
REMARK  Name = 45783322
REMARK  5 active torsions:
REMARK  status: ('A' for Active; 'I' for Inactive)
REMARK    1  A    between atoms: N_5  and  C_15
REMARK    2  A    between atoms: C_11  and  C_19
REMARK    3  A    between atoms: C_15  and  C_22
REMARK    4  A    between atoms: C_16  and  C_24
REMARK    5  A    between atoms: C_25  and  C_28
REMARK                            x       y       z     vdW  Elec       q    Type
REMARK                         _______ _______ _______ _____ _____    ______ ____
ROOT
ATOM      1  O   UNL     1      14.225   6.594  20.007  0.00  0.00    -0.336 OA
ATOM      7  N   UNL     1      15.678   8.076  19.163  0.00  0.00    -0.190 NA
ATOM      8  N   UNL     1      15.308   6.626  20.894  0.00  0.00    -0.056 NA
ATOM     19  C   UNL     1      14.523   7.475  19.016  0.00  0.00    +0.245 A 
ATOM     25  C   UNL     1      16.121   7.523  20.329  0.00  0.00    +0.202 A 
ENDROOT
BRANCH  25  28
ATOM      6  N   UNL     1      20.771   6.573  21.216  0.00  0.00    -0.315 N 
ATOM      9  N   UNL     1      19.849   8.602  22.017  0.00  0.00    -0.240 NA
ATOM     16  C   UNL     1      23.001   4.729  20.975  0.00  0.00    +0.078 C 
ATOM     17  C   UNL     1      23.078   6.162  20.452  0.00  0.00    +0.031 C 
ATOM     18  C   UNL     1      21.554   4.244  21.053  0.00  0.00    +0.031 C 
ATOM     20  C   UNL     1      22.128   7.124  21.169  0.00  0.00    +0.107 C 
ATOM     21  C   UNL     1      20.637   5.225  21.783  0.00  0.00    +0.107 C 
ATOM     23  C   UNL     1      19.679   7.439  21.349  0.00  0.00    +0.122 A 
ATOM     26  C   UNL     1      18.480   7.040  20.778  0.00  0.00    +0.055 A 
ATOM     28  C   UNL     1      17.386   7.888  20.902  0.00  0.00    +0.027 A 
ATOM     33  C   UNL     1      17.522   9.093  21.583  0.00  0.00    +0.031 A 
ATOM     34  C   UNL     1      18.763   9.400  22.118  0.00  0.00    +0.113 A 
BRANCH  16  24
ATOM      2  O   UNL     1      23.219   3.884  23.201  0.00  0.00    -0.276 OA
ATOM     10  N   UNL     1      24.820   5.346  22.430  0.00  0.00    -0.329 N 
ATOM     24  C   UNL     1      23.675   4.594  22.309  0.00  0.00    +0.214 C 
ATOM     36  H   UNL     1      25.360   5.331  23.290  0.00  0.00    +0.145 HD
ATOM     37  H   UNL     1      25.148   5.975  21.705  0.00  0.00    +0.145 HD
ENDBRANCH  16  24
ENDBRANCH  25  28
BRANCH  19  11
ATOM      5  N   UNL     1      12.480   8.655  18.224  0.00  0.00    -0.287 NA
ATOM     11  C   UNL     1      13.495   7.628  17.915  0.00  0.00    +0.146 C 
ATOM     12  C   UNL     1      14.116   8.082  16.581  0.00  0.00    +0.030 C 
ATOM     13  C   UNL     1      13.345   9.335  16.189  0.00  0.00    +0.017 C 
ATOM     14  C   UNL     1      12.037   9.198  16.941  0.00  0.00    +0.085 C 
BRANCH   5  15
ATOM     15  C   UNL     1      11.368   8.143  19.017  0.00  0.00    +0.120 C 
BRANCH  15  22
ATOM      3  O   UNL     1      12.235  11.842  22.189  0.00  0.00    -0.453 OA
ATOM      4  O   UNL     1      11.176  10.682  24.016  0.00  0.00    -0.453 OA
ATOM     22  C   UNL     1      11.300   8.793  20.373  0.00  0.00    -0.030 A 
ATOM     27  C   UNL     1      11.848  10.065  20.560  0.00  0.00    +0.054 A 
ATOM     29  C   UNL     1      10.683   8.116  21.439  0.00  0.00    +0.009 A 
ATOM     30  C   UNL     1      11.760  10.621  21.820  0.00  0.00    +0.167 A 
ATOM     31  C   UNL     1      10.607   8.702  22.705  0.00  0.00    +0.050 A 
ATOM     32  C   UNL     1      11.156   9.958  22.863  0.00  0.00    +0.166 A 
ATOM     35  C   UNL     1      11.860  11.874  23.581  0.00  0.00    +0.466 C 
ENDBRANCH  15  22
ENDBRANCH   5  15
ENDBRANCH  19  11
TORSDOF 5
ENDMDL
MODEL 5
REMARK VINA RESULT:      -8.0     30.177     33.201
REMARK  Name = 45783322
REMARK  5 active torsions:
REMARK  status: ('A' for Active; 'I' for Inactive)
REMARK    1  A    between atoms: N_5  and  C_15
REMARK    2  A    between atoms: C_11  and  C_19
REMARK    3  A    between atoms: C_15  and  C_22
REMARK    4  A    between atoms: C_16  and  C_24
REMARK    5  A    between atoms: C_25  and  C_28
REMARK                            x       y       z     vdW  Elec       q    Type
REMARK                         _______ _______ _______ _____ _____    ______ ____
ROOT
ATOM      1  O   UNL     1     -14.429   9.992  33.238  0.00  0.00    -0.336 OA
ATOM      7  N   UNL     1     -13.231   8.375  32.252  0.00  0.00    -0.190 NA
ATOM      8  N   UNL     1     -14.863   8.786  33.802  0.00  0.00    -0.056 NA
ATOM     19  C   UNL     1     -13.469   9.661  32.335  0.00  0.00    +0.245 A 
ATOM     25  C   UNL     1     -14.110   7.880  33.171  0.00  0.00    +0.202 A 
ENDROOT
BRANCH  25  28
ATOM      6  N   UNL     1     -14.488   3.326  31.616  0.00  0.00    -0.315 N 
ATOM      9  N   UNL     1     -14.407   3.731  33.947  0.00  0.00    -0.240 NA
ATOM     16  C   UNL     1     -14.735   1.498  29.373  0.00  0.00    +0.078 C 
ATOM     17  C   UNL     1     -13.603   1.378  30.391  0.00  0.00    +0.031 C 
ATOM     18  C   UNL     1     -15.287   2.922  29.321  0.00  0.00    +0.031 C 
ATOM     20  C   UNL     1     -13.948   1.971  31.760  0.00  0.00    +0.107 C 
ATOM     21  C   UNL     1     -15.630   3.476  30.704  0.00  0.00    +0.107 C 
ATOM     23  C   UNL     1     -14.397   4.221  32.687  0.00  0.00    +0.122 A 
ATOM     26  C   UNL     1     -14.302   5.570  32.380  0.00  0.00    +0.055 A 
ATOM     28  C   UNL     1     -14.212   6.472  33.434  0.00  0.00    +0.027 A 
ATOM     33  C   UNL     1     -14.219   6.006  34.744  0.00  0.00    +0.031 A 
ATOM     34  C   UNL     1     -14.318   4.638  34.945  0.00  0.00    +0.113 A 
BRANCH  16  24
ATOM      2  O   UNL     1     -15.697  -0.404  30.459  0.00  0.00    -0.276 OA
ATOM     10  N   UNL     1     -16.978   0.739  28.926  0.00  0.00    -0.329 N 
ATOM     24  C   UNL     1     -15.834   0.516  29.656  0.00  0.00    +0.214 C 
ATOM     36  H   UNL     1     -17.788   0.137  29.038  0.00  0.00    +0.145 HD
ATOM     37  H   UNL     1     -17.052   1.466  28.223  0.00  0.00    +0.145 HD
ENDBRANCH  16  24
ENDBRANCH  25  28
BRANCH  19  11
ATOM      5  N   UNL     1     -11.373  10.892  31.800  0.00  0.00    -0.287 NA
ATOM     11  C   UNL     1     -12.830  10.806  31.577  0.00  0.00    +0.146 C 
ATOM     12  C   UNL     1     -12.984  10.667  30.051  0.00  0.00    +0.030 C 
ATOM     13  C   UNL     1     -11.568  10.748  29.500  0.00  0.00    +0.017 C 
ATOM     14  C   UNL     1     -10.803  11.476  30.587  0.00  0.00    +0.085 C 
BRANCH   5  15
ATOM     15  C   UNL     1     -11.019  11.652  32.993  0.00  0.00    +0.120 C 
BRANCH  15  22
ATOM      3  O   UNL     1     -10.912   8.360  36.688  0.00  0.00    -0.453 OA
ATOM      4  O   UNL     1      -8.507   8.419  36.828  0.00  0.00    -0.453 OA
ATOM     22  C   UNL     1     -10.311  10.799  34.012  0.00  0.00    -0.030 A 
ATOM     27  C   UNL     1     -11.054   9.978  34.864  0.00  0.00    +0.054 A 
ATOM     29  C   UNL     1      -8.908  10.833  34.094  0.00  0.00    +0.009 A 
ATOM     30  C   UNL     1     -10.361   9.213  35.780  0.00  0.00    +0.167 A 
ATOM     31  C   UNL     1      -8.232  10.047  35.030  0.00  0.00    +0.050 A 
ATOM     32  C   UNL     1      -8.989   9.246  35.861  0.00  0.00    +0.166 A 
ATOM     35  C   UNL     1      -9.731   7.860  37.347  0.00  0.00    +0.466 C 
ENDBRANCH  15  22
ENDBRANCH   5  15
ENDBRANCH  19  11
TORSDOF 5
ENDMDL
MODEL 6
REMARK VINA RESULT:      -7.8     15.078     18.198
REMARK  Name = 45783322
REMARK  5 active torsions:
REMARK  status: ('A' for Active; 'I' for Inactive)
REMARK    1  A    between atoms: N_5  and  C_15
REMARK    2  A    between atoms: C_11  and  C_19
REMARK    3  A    between atoms: C_15  and  C_22
REMARK    4  A    between atoms: C_16  and  C_24
REMARK    5  A    between atoms: C_25  and  C_28
REMARK                            x       y       z     vdW  Elec       q    Type
REMARK                         _______ _______ _______ _____ _____    ______ ____
ROOT
ATOM      1  O   UNL     1      12.577   8.231   7.044  0.00  0.00    -0.336 OA
ATOM      7  N   UNL     1      12.823   7.465   4.953  0.00  0.00    -0.190 NA
ATOM      8  N   UNL     1      13.858   8.620   6.635  0.00  0.00    -0.056 NA
ATOM     19  C   UNL     1      12.036   7.556   5.996  0.00  0.00    +0.245 A 
ATOM     25  C   UNL     1      13.929   8.134   5.392  0.00  0.00    +0.202 A 
ENDROOT
BRANCH  25  28
ATOM      6  N   UNL     1      18.722   8.120   4.815  0.00  0.00    -0.315 N 
ATOM      9  N   UNL     1      17.350   8.609   2.948  0.00  0.00    -0.240 NA
ATOM     16  C   UNL     1      21.349   7.812   6.012  0.00  0.00    +0.078 C 
ATOM     17  C   UNL     1      20.898   6.962   4.826  0.00  0.00    +0.031 C 
ATOM     18  C   UNL     1      20.154   8.335   6.807  0.00  0.00    +0.031 C 
ATOM     20  C   UNL     1      19.817   7.630   3.973  0.00  0.00    +0.107 C 
ATOM     21  C   UNL     1      19.101   9.005   5.924  0.00  0.00    +0.107 C 
ATOM     23  C   UNL     1      17.449   8.293   4.259  0.00  0.00    +0.122 A 
ATOM     26  C   UNL     1      16.361   8.126   5.101  0.00  0.00    +0.055 A 
ATOM     28  C   UNL     1      15.090   8.296   4.564  0.00  0.00    +0.027 A 
ATOM     33  C   UNL     1      14.948   8.622   3.220  0.00  0.00    +0.031 A 
ATOM     34  C   UNL     1      16.099   8.766   2.461  0.00  0.00    +0.113 A 
BRANCH  16  24
ATOM      2  O   UNL     1      22.784   8.954   4.477  0.00  0.00    -0.276 OA
ATOM     10  N   UNL     1      22.354   9.945   6.509  0.00  0.00    -0.329 N 
ATOM     24  C   UNL     1      22.227   8.947   5.572  0.00  0.00    +0.214 C 
ATOM     36  H   UNL     1      22.923  10.764   6.318  0.00  0.00    +0.145 HD
ATOM     37  H   UNL     1      21.936   9.894   7.432  0.00  0.00    +0.145 HD
ENDBRANCH  16  24
ENDBRANCH  25  28
BRANCH  19  11
ATOM      5  N   UNL     1      10.283   5.975   5.207  0.00  0.00    -0.287 NA
ATOM     11  C   UNL     1      10.632   7.022   6.188  0.00  0.00    +0.146 C 
ATOM     12  C   UNL     1      10.434   6.353   7.561  0.00  0.00    +0.030 C 
ATOM     13  C   UNL     1       9.915   4.956   7.251  0.00  0.00    +0.017 C 
ATOM     14  C   UNL     1       9.317   5.097   5.866  0.00  0.00    +0.085 C 
BRANCH   5  15
ATOM     15  C   UNL     1       9.771   6.511   3.952  0.00  0.00    +0.120 C 
BRANCH  15  22
ATOM      3  O   UNL     1      12.944   3.377   1.808  0.00  0.00    -0.453 OA
ATOM      4  O   UNL     1      12.180   3.932  -0.408  0.00  0.00    -0.453 OA
ATOM     22  C   UNL     1      10.396   5.840   2.758  0.00  0.00    -0.030 A 
ATOM     27  C   UNL     1      11.411   4.899   2.946  0.00  0.00    +0.054 A 
ATOM     29  C   UNL     1       9.950   6.164   1.465  0.00  0.00    +0.009 A 
ATOM     30  C   UNL     1      11.952   4.308   1.822  0.00  0.00    +0.167 A 
ATOM     31  C   UNL     1      10.514   5.551   0.344  0.00  0.00    +0.050 A 
ATOM     32  C   UNL     1      11.515   4.626   0.556  0.00  0.00    +0.166 A 
ATOM     35  C   UNL     1      13.082   3.142   0.392  0.00  0.00    +0.466 C 
ENDBRANCH  15  22
ENDBRANCH   5  15
ENDBRANCH  19  11
TORSDOF 5
ENDMDL
MODEL 7
REMARK VINA RESULT:      -7.8      3.491     10.826
REMARK  Name = 45783322
REMARK  5 active torsions:
REMARK  status: ('A' for Active; 'I' for Inactive)
REMARK    1  A    between atoms: N_5  and  C_15
REMARK    2  A    between atoms: C_11  and  C_19
REMARK    3  A    between atoms: C_15  and  C_22
REMARK    4  A    between atoms: C_16  and  C_24
REMARK    5  A    between atoms: C_25  and  C_28
REMARK                            x       y       z     vdW  Elec       q    Type
REMARK                         _______ _______ _______ _____ _____    ______ ____
ROOT
ATOM      1  O   UNL     1      20.372   7.838  23.147  0.00  0.00    -0.336 OA
ATOM      7  N   UNL     1      20.031   6.078  21.803  0.00  0.00    -0.190 NA
ATOM      8  N   UNL     1      19.191   8.108  22.444  0.00  0.00    -0.056 NA
ATOM     19  C   UNL     1      20.802   6.625  22.709  0.00  0.00    +0.245 A 
ATOM     25  C   UNL     1      19.056   7.025  21.673  0.00  0.00    +0.202 A 
ENDROOT
BRANCH  25  28
ATOM      6  N   UNL     1      14.586   8.124  20.220  0.00  0.00    -0.315 N 
ATOM      9  N   UNL     1      15.827   6.533  18.983  0.00  0.00    -0.240 NA
ATOM     16  C   UNL     1      12.143   9.625  20.678  0.00  0.00    +0.078 C 
ATOM     17  C   UNL     1      12.922   9.733  19.370  0.00  0.00    +0.031 C 
ATOM     18  C   UNL     1      13.045   9.178  21.827  0.00  0.00    +0.031 C 
ATOM     20  C   UNL     1      13.769   8.495  19.061  0.00  0.00    +0.107 C 
ATOM     21  C   UNL     1      13.867   7.935  21.487  0.00  0.00    +0.107 C 
ATOM     23  C   UNL     1      15.760   7.387  20.029  0.00  0.00    +0.122 A 
ATOM     26  C   UNL     1      16.788   7.584  20.937  0.00  0.00    +0.055 A 
ATOM     28  C   UNL     1      17.960   6.857  20.761  0.00  0.00    +0.027 A 
ATOM     33  C   UNL     1      18.067   5.969  19.697  0.00  0.00    +0.031 A 
ATOM     34  C   UNL     1      16.982   5.844  18.844  0.00  0.00    +0.113 A 
BRANCH  16  24
ATOM      2  O   UNL     1      10.509   8.386  19.448  0.00  0.00    -0.276 OA
ATOM     10  N   UNL     1      10.453   8.280  21.745  0.00  0.00    -0.329 N 
ATOM     24  C   UNL     1      10.966   8.704  20.542  0.00  0.00    +0.214 C 
ATOM     36  H   UNL     1       9.656   7.651  21.775  0.00  0.00    +0.145 HD
ATOM     37  H   UNL     1      10.803   8.602  22.641  0.00  0.00    +0.145 HD
ENDBRANCH  16  24
ENDBRANCH  25  28
BRANCH  19  11
ATOM      5  N   UNL     1      23.278   6.823  22.855  0.00  0.00    -0.287 NA
ATOM     11  C   UNL     1      22.081   6.098  23.326  0.00  0.00    +0.146 C 
ATOM     12  C   UNL     1      22.109   6.251  24.858  0.00  0.00    +0.030 C 
ATOM     13  C   UNL     1      23.387   7.020  25.158  0.00  0.00    +0.017 C 
ATOM     14  C   UNL     1      24.254   6.758  23.943  0.00  0.00    +0.085 C 
BRANCH   5  15
ATOM     15  C   UNL     1      23.814   6.296  21.606  0.00  0.00    +0.120 C 
BRANCH  15  22
ATOM      3  O   UNL     1      26.444   8.760  18.214  0.00  0.00    -0.453 OA
ATOM      4  O   UNL     1      24.632  10.273  17.735  0.00  0.00    -0.453 OA
ATOM     22  C   UNL     1      23.998   7.377  20.574  0.00  0.00    -0.030 A 
ATOM     27  C   UNL     1      25.217   7.491  19.901  0.00  0.00    +0.054 A 
ATOM     29  C   UNL     1      22.941   8.260  20.295  0.00  0.00    +0.009 A 
ATOM     30  C   UNL     1      25.339   8.496  18.963  0.00  0.00    +0.167 A 
ATOM     31  C   UNL     1      23.090   9.269  19.340  0.00  0.00    +0.050 A 
ATOM     32  C   UNL     1      24.304   9.360  18.690  0.00  0.00    +0.166 A 
ATOM     35  C   UNL     1      25.988   9.886  17.438  0.00  0.00    +0.466 C 
ENDBRANCH  15  22
ENDBRANCH   5  15
ENDBRANCH  19  11
TORSDOF 5
ENDMDL
MODEL 8
REMARK VINA RESULT:      -7.7     28.400     31.082
REMARK  Name = 45783322
REMARK  5 active torsions:
REMARK  status: ('A' for Active; 'I' for Inactive)
REMARK    1  A    between atoms: N_5  and  C_15
REMARK    2  A    between atoms: C_11  and  C_19
REMARK    3  A    between atoms: C_15  and  C_22
REMARK    4  A    between atoms: C_16  and  C_24
REMARK    5  A    between atoms: C_25  and  C_28
REMARK                            x       y       z     vdW  Elec       q    Type
REMARK                         _______ _______ _______ _____ _____    ______ ____
ROOT
ATOM      1  O   UNL     1      -3.931 -11.343  17.773  0.00  0.00    -0.336 OA
ATOM      7  N   UNL     1      -5.220 -10.570  16.111  0.00  0.00    -0.190 NA
ATOM      8  N   UNL     1      -3.135 -11.361  16.621  0.00  0.00    -0.056 NA
ATOM     19  C   UNL     1      -5.143 -10.865  17.385  0.00  0.00    +0.245 A 
ATOM     25  C   UNL     1      -3.964 -10.891  15.685  0.00  0.00    +0.202 A 
ENDROOT
BRANCH  25  28
ATOM      6  N   UNL     1      -4.994  -9.697  11.122  0.00  0.00    -0.315 N 
ATOM      9  N   UNL     1      -2.800 -10.418  11.644  0.00  0.00    -0.240 NA
ATOM     16  C   UNL     1      -6.976  -8.819   9.190  0.00  0.00    +0.078 C 
ATOM     17  C   UNL     1      -5.677  -8.050   9.419  0.00  0.00    +0.031 C 
ATOM     18  C   UNL     1      -7.353  -9.650  10.416  0.00  0.00    +0.031 C 
ATOM     20  C   UNL     1      -4.542  -8.920   9.964  0.00  0.00    +0.107 C 
ATOM     21  C   UNL     1      -6.199 -10.513  10.926  0.00  0.00    +0.107 C 
ATOM     23  C   UNL     1      -4.058 -10.146  12.060  0.00  0.00    +0.122 A 
ATOM     26  C   UNL     1      -4.488 -10.284  13.371  0.00  0.00    +0.055 A 
ATOM     28  C   UNL     1      -3.570 -10.731  14.314  0.00  0.00    +0.027 A 
ATOM     33  C   UNL     1      -2.267 -11.021  13.924  0.00  0.00    +0.031 A 
ATOM     34  C   UNL     1      -1.936 -10.850  12.589  0.00  0.00    +0.113 A 
BRANCH  16  24
ATOM      2  O   UNL     1      -7.375 -10.817   7.938  0.00  0.00    -0.276 OA
ATOM     10  N   UNL     1      -6.219  -9.107   6.921  0.00  0.00    -0.329 N 
ATOM     24  C   UNL     1      -6.892  -9.688   7.970  0.00  0.00    +0.214 C 
ATOM     36  H   UNL     1      -6.103  -9.603   6.043  0.00  0.00    +0.145 HD
ATOM     37  H   UNL     1      -5.773  -8.198   6.985  0.00  0.00    +0.145 HD
ENDBRANCH  16  24
ENDBRANCH  25  28
BRANCH  19  11
ATOM      5  N   UNL     1      -7.552 -10.530  17.912  0.00  0.00    -0.287 NA
ATOM     11  C   UNL     1      -6.199 -10.746  18.464  0.00  0.00    +0.146 C 
ATOM     12  C   UNL     1      -6.324 -12.022  19.317  0.00  0.00    +0.030 C 
ATOM     13  C   UNL     1      -7.792 -12.414  19.234  0.00  0.00    +0.017 C 
ATOM     14  C   UNL     1      -8.487 -11.118  18.871  0.00  0.00    +0.085 C 
BRANCH   5  15
ATOM     15  C   UNL     1      -7.847  -9.128  17.647  0.00  0.00    +0.120 C 
BRANCH  15  22
ATOM      3  O   UNL     1      -9.531 -10.090  13.093  0.00  0.00    -0.453 OA
ATOM      4  O   UNL     1     -11.421  -8.618  13.353  0.00  0.00    -0.453 OA
ATOM     22  C   UNL     1      -8.826  -8.965  16.514  0.00  0.00    -0.030 A 
ATOM     27  C   UNL     1      -8.632  -9.671  15.325  0.00  0.00    +0.054 A 
ATOM     29  C   UNL     1      -9.929  -8.106  16.666  0.00  0.00    +0.009 A 
ATOM     30  C   UNL     1      -9.556  -9.491  14.316  0.00  0.00    +0.167 A 
ATOM     31  C   UNL     1     -10.850  -7.943  15.629  0.00  0.00    +0.050 A 
ATOM     32  C   UNL     1     -10.635  -8.651  14.464  0.00  0.00    +0.166 A 
ATOM     35  C   UNL     1     -10.716  -9.533  12.490  0.00  0.00    +0.466 C 
ENDBRANCH  15  22
ENDBRANCH   5  15
ENDBRANCH  19  11
TORSDOF 5
ENDMDL
MODEL 9
REMARK VINA RESULT:      -7.6     28.592     31.050
REMARK  Name = 45783322
REMARK  5 active torsions:
REMARK  status: ('A' for Active; 'I' for Inactive)
REMARK    1  A    between atoms: N_5  and  C_15
REMARK    2  A    between atoms: C_11  and  C_19
REMARK    3  A    between atoms: C_15  and  C_22
REMARK    4  A    between atoms: C_16  and  C_24
REMARK    5  A    between atoms: C_25  and  C_28
REMARK                            x       y       z     vdW  Elec       q    Type
REMARK                         _______ _______ _______ _____ _____    ______ ____
ROOT
ATOM      1  O   UNL     1      -6.400  -8.160   9.363  0.00  0.00    -0.336 OA
ATOM      7  N   UNL     1      -5.739 -10.293   9.538  0.00  0.00    -0.190 NA
ATOM      8  N   UNL     1      -5.575  -8.220  10.493  0.00  0.00    -0.056 NA
ATOM     19  C   UNL     1      -6.444  -9.422   8.861  0.00  0.00    +0.245 A 
ATOM     25  C   UNL     1      -5.224  -9.509  10.529  0.00  0.00    +0.202 A 
ENDROOT
BRANCH  25  28
ATOM      6  N   UNL     1      -4.566 -11.412  14.917  0.00  0.00    -0.315 N 
ATOM      9  N   UNL     1      -2.682 -11.096  13.517  0.00  0.00    -0.240 NA
ATOM     16  C   UNL     1      -5.726 -12.231  17.449  0.00  0.00    +0.078 C 
ATOM     17  C   UNL     1      -4.930 -13.198  16.577  0.00  0.00    +0.031 C 
ATOM     18  C   UNL     1      -6.316 -11.091  16.620  0.00  0.00    +0.031 C 
ATOM     20  C   UNL     1      -3.923 -12.502  15.657  0.00  0.00    +0.107 C 
ATOM     21  C   UNL     1      -5.280 -10.413  15.723  0.00  0.00    +0.107 C 
ATOM     23  C   UNL     1      -4.017 -10.987  13.702  0.00  0.00    +0.122 A 
ATOM     26  C   UNL     1      -4.892 -10.475  12.756  0.00  0.00    +0.055 A 
ATOM     28  C   UNL     1      -4.362 -10.047  11.544  0.00  0.00    +0.027 A 
ATOM     33  C   UNL     1      -2.993 -10.143  11.317  0.00  0.00    +0.031 A 
ATOM     34  C   UNL     1      -2.204 -10.670  12.328  0.00  0.00    +0.113 A 
BRANCH  16  24
ATOM      2  O   UNL     1      -5.152 -10.624  19.124  0.00  0.00    -0.276 OA
ATOM     10  N   UNL     1      -3.817 -12.484  18.898  0.00  0.00    -0.329 N 
ATOM     24  C   UNL     1      -4.891 -11.689  18.572  0.00  0.00    +0.214 C 
ATOM     36  H   UNL     1      -3.184 -12.217  19.645  0.00  0.00    +0.145 HD
ATOM     37  H   UNL     1      -3.582 -13.331  18.391  0.00  0.00    +0.145 HD
ENDBRANCH  16  24
ENDBRANCH  25  28
BRANCH  19  11
ATOM      5  N   UNL     1      -8.147  -8.465   7.319  0.00  0.00    -0.287 NA
ATOM     11  C   UNL     1      -7.283  -9.625   7.617  0.00  0.00    +0.146 C 
ATOM     12  C   UNL     1      -6.430  -9.814   6.348  0.00  0.00    +0.030 C 
ATOM     13  C   UNL     1      -6.928  -8.756   5.374  0.00  0.00    +0.017 C 
ATOM     14  C   UNL     1      -8.327  -8.446   5.867  0.00  0.00    +0.085 C 
BRANCH   5  15
ATOM     15  C   UNL     1      -9.420  -8.499   8.028  0.00  0.00    +0.120 C 
BRANCH  15  22
ATOM      3  O   UNL     1     -12.519  -5.353  10.262  0.00  0.00    -0.453 OA
ATOM      4  O   UNL     1     -11.127  -3.448   9.773  0.00  0.00    -0.453 OA
ATOM     22  C   UNL     1      -9.847  -7.128   8.480  0.00  0.00    -0.030 A 
ATOM     27  C   UNL     1     -11.046  -6.972   9.180  0.00  0.00    +0.054 A 
ATOM     29  C   UNL     1      -9.035  -6.017   8.194  0.00  0.00    +0.009 A 
ATOM     30  C   UNL     1     -11.395  -5.697   9.575  0.00  0.00    +0.167 A 
ATOM     31  C   UNL     1      -9.412  -4.736   8.606  0.00  0.00    +0.050 A 
ATOM     32  C   UNL     1     -10.600  -4.610   9.296  0.00  0.00    +0.166 A 
ATOM     35  C   UNL     1     -12.342  -3.928  10.384  0.00  0.00    +0.466 C 
ENDBRANCH  15  22
ENDBRANCH   5  15
ENDBRANCH  19  11
TORSDOF 5
ENDMDL
MODEL 10
REMARK VINA RESULT:      -7.6     27.504     31.604
REMARK  Name = 45783322
REMARK  5 active torsions:
REMARK  status: ('A' for Active; 'I' for Inactive)
REMARK    1  A    between atoms: N_5  and  C_15
REMARK    2  A    between atoms: C_11  and  C_19
REMARK    3  A    between atoms: C_15  and  C_22
REMARK    4  A    between atoms: C_16  and  C_24
REMARK    5  A    between atoms: C_25  and  C_28
REMARK                            x       y       z     vdW  Elec       q    Type
REMARK                         _______ _______ _______ _____ _____    ______ ____
ROOT
ATOM      1  O   UNL     1      -4.391 -13.035  15.691  0.00  0.00    -0.336 OA
ATOM      7  N   UNL     1      -4.724 -10.933  16.393  0.00  0.00    -0.190 NA
ATOM      8  N   UNL     1      -5.655 -13.021  16.295  0.00  0.00    -0.056 NA
ATOM     19  C   UNL     1      -3.912 -11.767  15.792  0.00  0.00    +0.245 A 
ATOM     25  C   UNL     1      -5.779 -11.749  16.682  0.00  0.00    +0.202 A 
ENDROOT
BRANCH  25  28
ATOM      6  N   UNL     1     -10.009  -9.421  16.644  0.00  0.00    -0.315 N 
ATOM      9  N   UNL     1      -9.215 -10.308  18.690  0.00  0.00    -0.240 NA
ATOM     16  C   UNL     1     -11.991  -7.933  15.132  0.00  0.00    +0.078 C 
ATOM     17  C   UNL     1     -12.350  -9.201  15.902  0.00  0.00    +0.031 C 
ATOM     18  C   UNL     1     -10.507  -7.904  14.769  0.00  0.00    +0.031 C 
ATOM     20  C   UNL     1     -11.409  -9.490  17.074  0.00  0.00    +0.107 C 
ATOM     21  C   UNL     1      -9.598  -8.185  15.965  0.00  0.00    +0.107 C 
ATOM     23  C   UNL     1      -9.031 -10.117  17.364  0.00  0.00    +0.122 A 
ATOM     26  C   UNL     1      -7.925 -10.568  16.661  0.00  0.00    +0.055 A 
ATOM     28  C   UNL     1      -6.945 -11.259  17.363  0.00  0.00    +0.027 A 
ATOM     33  C   UNL     1      -7.098 -11.475  18.728  0.00  0.00    +0.031 A 
ATOM     34  C   UNL     1      -8.240 -10.984  19.339  0.00  0.00    +0.113 A 
BRANCH  16  24
ATOM      2  O   UNL     1     -11.530  -5.920  16.339  0.00  0.00    -0.276 OA
ATOM     10  N   UNL     1     -13.727  -6.547  16.066  0.00  0.00    -0.329 N 
ATOM     24  C   UNL     1     -12.371  -6.699  15.898  0.00  0.00    +0.214 C 
ATOM     36  H   UNL     1     -14.099  -5.747  16.568  0.00  0.00    +0.145 HD
ATOM     37  H   UNL     1     -14.404  -7.233  15.749  0.00  0.00    +0.145 HD
ENDBRANCH  16  24
ENDBRANCH  25  28
BRANCH  19  11
ATOM      5  N   UNL     1      -2.581 -10.632  14.022  0.00  0.00    -0.287 NA
ATOM     11  C   UNL     1      -2.539 -11.515  15.204  0.00  0.00    +0.146 C 
ATOM     12  C   UNL     1      -1.593 -10.804  16.189  0.00  0.00    +0.030 C 
ATOM     13  C   UNL     1      -1.107  -9.566  15.450  0.00  0.00    +0.017 C 
ATOM     14  C   UNL     1      -1.303  -9.922  13.990  0.00  0.00    +0.085 C 
BRANCH   5  15
ATOM     15  C   UNL     1      -2.841 -11.348  12.779  0.00  0.00    +0.120 C 
BRANCH  15  22
ATOM      3  O   UNL     1      -6.996  -9.242  11.106  0.00  0.00    -0.453 OA
ATOM      4  O   UNL     1      -5.874  -8.247   9.220  0.00  0.00    -0.453 OA
ATOM     22  C   UNL     1      -3.624 -10.511  11.802  0.00  0.00    -0.030 A 
ATOM     27  C   UNL     1      -4.993 -10.316  11.999  0.00  0.00    +0.054 A 
ATOM     29  C   UNL     1      -2.969  -9.931  10.702  0.00  0.00    +0.009 A 
ATOM     30  C   UNL     1      -5.668  -9.539  11.079  0.00  0.00    +0.167 A 
ATOM     31  C   UNL     1      -3.676  -9.149   9.785  0.00  0.00    +0.050 A 
ATOM     32  C   UNL     1      -5.027  -8.972  10.002  0.00  0.00    +0.166 A 
ATOM     35  C   UNL     1      -7.118  -8.422   9.926  0.00  0.00    +0.466 C 
ENDBRANCH  15  22
ENDBRANCH   5  15
ENDBRANCH  19  11
TORSDOF 5
ENDMDL
