MODEL 1
REMARK VINA RESULT:      -6.7      0.000      0.000
REMARK  Name = 11885137
REMARK  5 active torsions:
REMARK  status: ('A' for Active; 'I' for Inactive)
REMARK    1  A    between atoms: S_1  and  N_6
REMARK    2  A    between atoms: S_1  and  C_19
REMARK    3  A    between atoms: O_5  and  C_25
REMARK    4  A    between atoms: O_5  and  C_26
REMARK    5  A    between atoms: C_17  and  C_20
REMARK                            x       y       z     vdW  Elec       q    Type
REMARK                         _______ _______ _______ _____ _____    ______ ____
ROOT
ATOM      4  O   UNL     1       0.118   2.608  -4.614  0.00  0.00    -0.267 OA
ATOM      6  N   UNL     1       2.242   6.777  -6.337  0.00  0.00    -0.180 NA
ATOM      7  N   UNL     1       1.926   3.727  -5.574  0.00  0.00    -0.311 N 
ATOM      8  C   UNL     1       3.199   5.588  -4.360  0.00  0.00    +0.025 C 
ATOM      9  C   UNL     1       3.876   4.925  -6.626  0.00  0.00    +0.052 C 
ATOM     10  C   UNL     1       4.384   5.134  -5.201  0.00  0.00    +0.017 C 
ATOM     11  C   UNL     1       2.625   6.908  -4.902  0.00  0.00    +0.114 C 
ATOM     12  C   UNL     1       3.356   6.260  -7.187  0.00  0.00    +0.118 C 
ATOM     13  C   UNL     1       2.154   4.466  -4.325  0.00  0.00    +0.130 C 
ATOM     14  C   UNL     1       2.783   3.874  -6.668  0.00  0.00    +0.026 A 
ATOM     15  C   UNL     1       2.625   3.103  -7.755  0.00  0.00    +0.022 A 
ATOM     16  C   UNL     1       0.872   2.791  -5.572  0.00  0.00    +0.259 A 
ATOM     17  C   UNL     1       0.698   1.967  -6.819  0.00  0.00    +0.047 A 
ATOM     18  C   UNL     1       1.562   2.141  -7.831  0.00  0.00    +0.015 A 
ENDROOT
BRANCH  17  20
ATOM     20  C   UNL     1      -0.400   0.993  -6.943  0.00  0.00    -0.012 A 
ATOM     21  C   UNL     1      -0.349  -0.210  -6.239  0.00  0.00    +0.012 A 
ATOM     22  C   UNL     1      -1.492   1.272  -7.766  0.00  0.00    +0.012 A 
ATOM     23  C   UNL     1      -1.389  -1.133  -6.357  0.00  0.00    +0.046 A 
ATOM     24  C   UNL     1      -2.532   0.349  -7.884  0.00  0.00    +0.046 A 
ATOM     25  C   UNL     1      -2.480  -0.853  -7.179  0.00  0.00    +0.120 A 
BRANCH  25   5
ATOM      5  O   UNL     1      -3.493  -1.754  -7.295  0.00  0.00    -0.495 OA
ATOM     26  C   UNL     1      -3.201  -3.107  -6.950  0.00  0.00    +0.277 C 
ENDBRANCH  25   5
ENDBRANCH  17  20
BRANCH   6   1
ATOM      1  S   UNL     1       1.359   8.088  -6.989  0.00  0.00    +0.029 S 
ATOM      2  O   UNL     1       0.936   8.951  -5.907  0.00  0.00    -0.158 OA
ATOM      3  O   UNL     1       0.421   7.580  -7.966  0.00  0.00    -0.158 OA
ATOM     19  C   UNL     1       2.669   8.908  -7.862  0.00  0.00    +0.215 C 
ENDBRANCH   6   1
TORSDOF 3
ENDMDL
MODEL 2
REMARK VINA RESULT:      -6.4     28.982     30.221
REMARK  Name = 11885137
REMARK  5 active torsions:
REMARK  status: ('A' for Active; 'I' for Inactive)
REMARK    1  A    between atoms: S_1  and  N_6
REMARK    2  A    between atoms: S_1  and  C_19
REMARK    3  A    between atoms: O_5  and  C_25
REMARK    4  A    between atoms: O_5  and  C_26
REMARK    5  A    between atoms: C_17  and  C_20
REMARK                            x       y       z     vdW  Elec       q    Type
REMARK                         _______ _______ _______ _____ _____    ______ ____
ROOT
ATOM      4  O   UNL     1     -14.969   8.897  20.475  0.00  0.00    -0.267 OA
ATOM      6  N   UNL     1     -11.640   9.342  16.791  0.00  0.00    -0.180 NA
ATOM      7  N   UNL     1     -12.772   9.150  19.735  0.00  0.00    -0.311 N 
ATOM      8  C   UNL     1     -11.986  11.203  18.420  0.00  0.00    +0.025 C 
ATOM      9  C   UNL     1     -10.394   9.407  18.943  0.00  0.00    +0.052 C 
ATOM     10  C   UNL     1     -10.630  10.911  19.048  0.00  0.00    +0.017 C 
ATOM     11  C   UNL     1     -11.999  10.781  16.941  0.00  0.00    +0.114 C 
ATOM     12  C   UNL     1     -10.350   8.996  17.460  0.00  0.00    +0.118 C 
ATOM     13  C   UNL     1     -13.076  10.500  19.239  0.00  0.00    +0.130 C 
ATOM     14  C   UNL     1     -11.476   8.632  19.672  0.00  0.00    +0.026 A 
ATOM     15  C   UNL     1     -11.197   7.446  20.236  0.00  0.00    +0.022 A 
ATOM     16  C   UNL     1     -13.823   8.458  20.369  0.00  0.00    +0.259 A 
ATOM     17  C   UNL     1     -13.487   7.115  20.960  0.00  0.00    +0.047 A 
ATOM     18  C   UNL     1     -12.222   6.676  20.883  0.00  0.00    +0.015 A 
ENDROOT
BRANCH  17  20
ATOM     20  C   UNL     1     -14.520   6.285  21.604  0.00  0.00    -0.012 A 
ATOM     21  C   UNL     1     -14.404   5.948  22.953  0.00  0.00    +0.012 A 
ATOM     22  C   UNL     1     -15.614   5.835  20.865  0.00  0.00    +0.012 A 
ATOM     23  C   UNL     1     -15.382   5.162  23.562  0.00  0.00    +0.046 A 
ATOM     24  C   UNL     1     -16.593   5.048  21.476  0.00  0.00    +0.046 A 
ATOM     25  C   UNL     1     -16.476   4.712  22.824  0.00  0.00    +0.120 A 
BRANCH  25   5
ATOM      5  O   UNL     1     -17.429   3.945  23.419  0.00  0.00    -0.495 OA
ATOM     26  C   UNL     1     -17.004   2.708  23.990  0.00  0.00    +0.277 C 
ENDBRANCH  25   5
ENDBRANCH  17  20
BRANCH   6   1
ATOM      1  S   UNL     1     -11.864   8.682  15.229  0.00  0.00    +0.029 S 
ATOM      2  O   UNL     1     -13.171   8.062  15.167  0.00  0.00    -0.158 OA
ATOM      3  O   UNL     1     -10.666   7.968  14.848  0.00  0.00    -0.158 OA
ATOM     19  C   UNL     1     -11.927  10.187  14.291  0.00  0.00    +0.215 C 
ENDBRANCH   6   1
TORSDOF 3
ENDMDL
MODEL 3
REMARK VINA RESULT:      -6.3     19.937     23.064
REMARK  Name = 11885137
REMARK  5 active torsions:
REMARK  status: ('A' for Active; 'I' for Inactive)
REMARK    1  A    between atoms: S_1  and  N_6
REMARK    2  A    between atoms: S_1  and  C_19
REMARK    3  A    between atoms: O_5  and  C_25
REMARK    4  A    between atoms: O_5  and  C_26
REMARK    5  A    between atoms: C_17  and  C_20
REMARK                            x       y       z     vdW  Elec       q    Type
REMARK                         _______ _______ _______ _____ _____    ______ ____
ROOT
ATOM      4  O   UNL     1     -11.486  -7.494   9.898  0.00  0.00    -0.267 OA
ATOM      6  N   UNL     1     -15.198  -4.311  10.871  0.00  0.00    -0.180 NA
ATOM      7  N   UNL     1     -12.272  -5.503  10.826  0.00  0.00    -0.311 N 
ATOM      8  C   UNL     1     -13.982  -5.450  12.732  0.00  0.00    +0.025 C 
ATOM      9  C   UNL     1     -13.110  -3.344  11.816  0.00  0.00    +0.052 C 
ATOM     10  C   UNL     1     -13.313  -4.133  13.107  0.00  0.00    +0.017 C 
ATOM     11  C   UNL     1     -15.343  -5.194  12.064  0.00  0.00    +0.114 C 
ATOM     12  C   UNL     1     -14.478  -3.039  11.179  0.00  0.00    +0.118 C 
ATOM     13  C   UNL     1     -13.032  -6.254  11.836  0.00  0.00    +0.130 C 
ATOM     14  C   UNL     1     -12.234  -4.106  10.841  0.00  0.00    +0.026 A 
ATOM     15  C   UNL     1     -11.440  -3.446   9.983  0.00  0.00    +0.022 A 
ATOM     16  C   UNL     1     -11.506  -6.262   9.919  0.00  0.00    +0.259 A 
ATOM     17  C   UNL     1     -10.654  -5.491   8.945  0.00  0.00    +0.047 A 
ATOM     18  C   UNL     1     -10.646  -4.152   9.018  0.00  0.00    +0.015 A 
ENDROOT
BRANCH  17  20
ATOM     20  C   UNL     1      -9.849  -6.182   7.922  0.00  0.00    -0.012 A 
ATOM     21  C   UNL     1     -10.446  -6.612   6.737  0.00  0.00    +0.012 A 
ATOM     22  C   UNL     1      -8.490  -6.407   8.140  0.00  0.00    +0.012 A 
ATOM     23  C   UNL     1      -9.683  -7.266   5.769  0.00  0.00    +0.046 A 
ATOM     24  C   UNL     1      -7.727  -7.062   7.171  0.00  0.00    +0.046 A 
ATOM     25  C   UNL     1      -8.324  -7.491   5.986  0.00  0.00    +0.120 A 
BRANCH  25   5
ATOM      5  O   UNL     1      -7.581  -8.130   5.043  0.00  0.00    -0.495 OA
ATOM     26  C   UNL     1      -6.847  -9.279   5.462  0.00  0.00    +0.277 C 
ENDBRANCH  25   5
ENDBRANCH  17  20
BRANCH   6   1
ATOM      1  S   UNL     1     -16.592  -4.155   9.892  0.00  0.00    +0.029 S 
ATOM      2  O   UNL     1     -17.095  -2.803  10.010  0.00  0.00    -0.158 OA
ATOM      3  O   UNL     1     -17.443  -5.304  10.106  0.00  0.00    -0.158 OA
ATOM     19  C   UNL     1     -15.837  -4.321   8.294  0.00  0.00    +0.215 C 
ENDBRANCH   6   1
TORSDOF 3
ENDMDL
MODEL 4
REMARK VINA RESULT:      -6.3     25.225     28.042
REMARK  Name = 11885137
REMARK  5 active torsions:
REMARK  status: ('A' for Active; 'I' for Inactive)
REMARK    1  A    between atoms: S_1  and  N_6
REMARK    2  A    between atoms: S_1  and  C_19
REMARK    3  A    between atoms: O_5  and  C_25
REMARK    4  A    between atoms: O_5  and  C_26
REMARK    5  A    between atoms: C_17  and  C_20
REMARK                            x       y       z     vdW  Elec       q    Type
REMARK                         _______ _______ _______ _____ _____    ______ ____
ROOT
ATOM      4  O   UNL     1      -6.621 -11.258  14.771  0.00  0.00    -0.267 OA
ATOM      6  N   UNL     1      -2.239 -13.160  13.346  0.00  0.00    -0.180 NA
ATOM      7  N   UNL     1      -4.320 -11.054  14.450  0.00  0.00    -0.311 N 
ATOM      8  C   UNL     1      -3.230 -11.212  12.138  0.00  0.00    +0.025 C 
ATOM      9  C   UNL     1      -1.832 -10.832  14.122  0.00  0.00    +0.052 C 
ATOM     10  C   UNL     1      -2.167 -10.297  12.731  0.00  0.00    +0.017 C 
ATOM     11  C   UNL     1      -2.701 -12.651  12.023  0.00  0.00    +0.114 C 
ATOM     12  C   UNL     1      -1.249 -12.251  14.000  0.00  0.00    +0.118 C 
ATOM     13  C   UNL     1      -4.500 -11.121  12.993  0.00  0.00    +0.130 C 
ATOM     14  C   UNL     1      -3.059 -10.841  15.014  0.00  0.00    +0.026 A 
ATOM     15  C   UNL     1      -2.935 -10.666  16.339  0.00  0.00    +0.022 A 
ATOM     16  C   UNL     1      -5.490 -11.107  15.234  0.00  0.00    +0.259 A 
ATOM     17  C   UNL     1      -5.313 -10.944  16.720  0.00  0.00    +0.047 A 
ATOM     18  C   UNL     1      -4.081 -10.726  17.202  0.00  0.00    +0.015 A 
ENDROOT
BRANCH  17  20
ATOM     20  C   UNL     1      -6.462 -11.030  17.639  0.00  0.00    -0.012 A 
ATOM     21  C   UNL     1      -7.453 -10.048  17.611  0.00  0.00    +0.012 A 
ATOM     22  C   UNL     1      -6.560 -12.092  18.537  0.00  0.00    +0.012 A 
ATOM     23  C   UNL     1      -8.541 -10.129  18.481  0.00  0.00    +0.046 A 
ATOM     24  C   UNL     1      -7.648 -12.173  19.408  0.00  0.00    +0.046 A 
ATOM     25  C   UNL     1      -8.638 -11.192  19.380  0.00  0.00    +0.120 A 
BRANCH  25   5
ATOM      5  O   UNL     1      -9.698 -11.270  20.228  0.00  0.00    -0.495 OA
ATOM     26  C   UNL     1     -10.729 -10.297  20.071  0.00  0.00    +0.277 C 
ENDBRANCH  25   5
ENDBRANCH  17  20
BRANCH   6   1
ATOM      1  S   UNL     1      -1.866 -14.828  13.409  0.00  0.00    +0.029 S 
ATOM      2  O   UNL     1      -2.650 -15.442  14.460  0.00  0.00    -0.158 OA
ATOM      3  O   UNL     1      -0.431 -14.988  13.339  0.00  0.00    -0.158 OA
ATOM     19  C   UNL     1      -2.551 -15.331  11.851  0.00  0.00    +0.215 C 
ENDBRANCH   6   1
TORSDOF 3
ENDMDL
MODEL 5
REMARK VINA RESULT:      -6.2     11.168     14.618
REMARK  Name = 11885137
REMARK  5 active torsions:
REMARK  status: ('A' for Active; 'I' for Inactive)
REMARK    1  A    between atoms: S_1  and  N_6
REMARK    2  A    between atoms: S_1  and  C_19
REMARK    3  A    between atoms: O_5  and  C_25
REMARK    4  A    between atoms: O_5  and  C_26
REMARK    5  A    between atoms: C_17  and  C_20
REMARK                            x       y       z     vdW  Elec       q    Type
REMARK                         _______ _______ _______ _____ _____    ______ ____
ROOT
ATOM      4  O   UNL     1      11.939   7.276   2.247  0.00  0.00    -0.267 OA
ATOM      6  N   UNL     1      11.720   4.415  -1.829  0.00  0.00    -0.180 NA
ATOM      7  N   UNL     1      12.521   5.341   1.084  0.00  0.00    -0.311 N 
ATOM      8  C   UNL     1      13.893   5.390  -1.079  0.00  0.00    +0.025 C 
ATOM      9  C   UNL     1      13.141   3.239  -0.160  0.00  0.00    +0.052 C 
ATOM     10  C   UNL     1      14.368   4.010  -0.644  0.00  0.00    +0.017 C 
ATOM     11  C   UNL     1      12.873   5.275  -2.223  0.00  0.00    +0.114 C 
ATOM     12  C   UNL     1      12.146   3.075  -1.324  0.00  0.00    +0.118 C 
ATOM     13  C   UNL     1      13.326   6.129   0.140  0.00  0.00    +0.130 C 
ATOM     14  C   UNL     1      12.476   3.946   1.005  0.00  0.00    +0.026 A 
ATOM     15  C   UNL     1      11.831   3.240   1.947  0.00  0.00    +0.022 A 
ATOM     16  C   UNL     1      11.892   6.051   2.125  0.00  0.00    +0.259 A 
ATOM     17  C   UNL     1      11.146   5.233   3.145  0.00  0.00    +0.047 A 
ATOM     18  C   UNL     1      11.151   3.897   3.027  0.00  0.00    +0.015 A 
ENDROOT
BRANCH  17  20
ATOM     20  C   UNL     1      10.412   5.876   4.250  0.00  0.00    -0.012 A 
ATOM     21  C   UNL     1       9.218   6.551   3.996  0.00  0.00    +0.012 A 
ATOM     22  C   UNL     1      10.912   5.810   5.550  0.00  0.00    +0.012 A 
ATOM     23  C   UNL     1       8.525   7.160   5.042  0.00  0.00    +0.046 A 
ATOM     24  C   UNL     1      10.218   6.419   6.597  0.00  0.00    +0.046 A 
ATOM     25  C   UNL     1       9.025   7.093   6.343  0.00  0.00    +0.120 A 
BRANCH  25   5
ATOM      5  O   UNL     1       8.348   7.687   7.363  0.00  0.00    -0.495 OA
ATOM     26  C   UNL     1       9.036   8.700   8.096  0.00  0.00    +0.277 C 
ENDBRANCH  25   5
ENDBRANCH  17  20
BRANCH   6   1
ATOM      1  S   UNL     1      10.396   4.411  -2.913  0.00  0.00    +0.029 S 
ATOM      2  O   UNL     1       9.800   3.092  -2.915  0.00  0.00    -0.158 OA
ATOM      3  O   UNL     1      10.794   5.066  -4.139  0.00  0.00    -0.158 OA
ATOM     19  C   UNL     1       9.307   5.503  -2.035  0.00  0.00    +0.215 C 
ENDBRANCH   6   1
TORSDOF 3
ENDMDL
MODEL 6
REMARK VINA RESULT:      -6.0     20.646     23.825
REMARK  Name = 11885137
REMARK  5 active torsions:
REMARK  status: ('A' for Active; 'I' for Inactive)
REMARK    1  A    between atoms: S_1  and  N_6
REMARK    2  A    between atoms: S_1  and  C_19
REMARK    3  A    between atoms: O_5  and  C_25
REMARK    4  A    between atoms: O_5  and  C_26
REMARK    5  A    between atoms: C_17  and  C_20
REMARK                            x       y       z     vdW  Elec       q    Type
REMARK                         _______ _______ _______ _____ _____    ______ ____
ROOT
ATOM      4  O   UNL     1      -5.573 -12.407   9.887  0.00  0.00    -0.267 OA
ATOM      6  N   UNL     1      -3.838 -11.305  14.429  0.00  0.00    -0.180 NA
ATOM      7  N   UNL     1      -3.824 -11.811  11.310  0.00  0.00    -0.311 N 
ATOM      8  C   UNL     1      -3.015 -13.324  13.212  0.00  0.00    +0.025 C 
ATOM      9  C   UNL     1      -1.932 -11.152  12.838  0.00  0.00    +0.052 C 
ATOM     10  C   UNL     1      -1.669 -12.648  12.990  0.00  0.00    +0.017 C 
ATOM     11  C   UNL     1      -3.687 -12.787  14.487  0.00  0.00    +0.114 C 
ATOM     12  C   UNL     1      -2.551 -10.604  14.137  0.00  0.00    +0.118 C 
ATOM     13  C   UNL     1      -3.885 -13.126  11.964  0.00  0.00    +0.130 C 
ATOM     14  C   UNL     1      -2.848 -10.874  11.661  0.00  0.00    +0.026 A 
ATOM     15  C   UNL     1      -2.736  -9.728  10.971  0.00  0.00    +0.022 A 
ATOM     16  C   UNL     1      -4.723 -11.591  10.248  0.00  0.00    +0.259 A 
ATOM     17  C   UNL     1      -4.597 -10.281   9.518  0.00  0.00    +0.047 A 
ATOM     18  C   UNL     1      -3.631  -9.428   9.889  0.00  0.00    +0.015 A 
ENDROOT
BRANCH  17  20
ATOM     20  C   UNL     1      -5.516  -9.927   8.422  0.00  0.00    -0.012 A 
ATOM     21  C   UNL     1      -6.623  -9.115   8.673  0.00  0.00    +0.012 A 
ATOM     22  C   UNL     1      -5.280 -10.403   7.132  0.00  0.00    +0.012 A 
ATOM     23  C   UNL     1      -7.492  -8.780   7.635  0.00  0.00    +0.046 A 
ATOM     24  C   UNL     1      -6.151 -10.069   6.094  0.00  0.00    +0.046 A 
ATOM     25  C   UNL     1      -7.257  -9.257   6.345  0.00  0.00    +0.120 A 
BRANCH  25   5
ATOM      5  O   UNL     1      -8.106  -8.931   5.334  0.00  0.00    -0.495 OA
ATOM     26  C   UNL     1      -7.533  -8.331   4.173  0.00  0.00    +0.277 C 
ENDBRANCH  25   5
ENDBRANCH  17  20
BRANCH   6   1
ATOM      1  S   UNL     1      -4.795 -10.610  15.665  0.00  0.00    +0.029 S 
ATOM      2  O   UNL     1      -5.761  -9.717  15.061  0.00  0.00    -0.158 OA
ATOM      3  O   UNL     1      -3.929 -10.179  16.739  0.00  0.00    -0.158 OA
ATOM     19  C   UNL     1      -5.659 -12.063  16.207  0.00  0.00    +0.215 C 
ENDBRANCH   6   1
TORSDOF 3
ENDMDL
MODEL 7
REMARK VINA RESULT:      -6.0     12.539     13.722
REMARK  Name = 11885137
REMARK  5 active torsions:
REMARK  status: ('A' for Active; 'I' for Inactive)
REMARK    1  A    between atoms: S_1  and  N_6
REMARK    2  A    between atoms: S_1  and  C_19
REMARK    3  A    between atoms: O_5  and  C_25
REMARK    4  A    between atoms: O_5  and  C_26
REMARK    5  A    between atoms: C_17  and  C_20
REMARK                            x       y       z     vdW  Elec       q    Type
REMARK                         _______ _______ _______ _____ _____    ______ ____
ROOT
ATOM      4  O   UNL     1      -6.554   9.583   5.432  0.00  0.00    -0.267 OA
ATOM      6  N   UNL     1      -1.873  10.509   3.986  0.00  0.00    -0.180 NA
ATOM      7  N   UNL     1      -4.254   9.259   5.646  0.00  0.00    -0.311 N 
ATOM      8  C   UNL     1      -2.646  11.151   6.272  0.00  0.00    +0.025 C 
ATOM      9  C   UNL     1      -1.772   8.890   5.872  0.00  0.00    +0.052 C 
ATOM     10  C   UNL     1      -1.797  10.040   6.877  0.00  0.00    +0.017 C 
ATOM     11  C   UNL     1      -2.036  11.637   4.947  0.00  0.00    +0.114 C 
ATOM     12  C   UNL     1      -1.109   9.363   4.566  0.00  0.00    +0.118 C 
ATOM     13  C   UNL     1      -4.084  10.644   6.105  0.00  0.00    +0.130 C 
ATOM     14  C   UNL     1      -3.172   8.376   5.596  0.00  0.00    +0.026 A 
ATOM     15  C   UNL     1      -3.371   7.085   5.287  0.00  0.00    +0.022 A 
ATOM     16  C   UNL     1      -5.571   8.843   5.365  0.00  0.00    +0.259 A 
ATOM     17  C   UNL     1      -5.756   7.398   4.985  0.00  0.00    +0.047 A 
ATOM     18  C   UNL     1      -4.682   6.594   4.970  0.00  0.00    +0.015 A 
ENDROOT
BRANCH  17  20
ATOM     20  C   UNL     1      -7.083   6.868   4.625  0.00  0.00    -0.012 A 
ATOM     21  C   UNL     1      -7.764   7.380   3.521  0.00  0.00    +0.012 A 
ATOM     22  C   UNL     1      -7.659   5.854   5.390  0.00  0.00    +0.012 A 
ATOM     23  C   UNL     1      -9.020   6.877   3.181  0.00  0.00    +0.046 A 
ATOM     24  C   UNL     1      -8.916   5.351   5.051  0.00  0.00    +0.046 A 
ATOM     25  C   UNL     1      -9.596   5.863   3.946  0.00  0.00    +0.120 A 
BRANCH  25   5
ATOM      5  O   UNL     1     -10.821   5.374   3.615  0.00  0.00    -0.495 OA
ATOM     26  C   UNL     1     -11.790   5.288   4.659  0.00  0.00    +0.277 C 
ENDBRANCH  25   5
ENDBRANCH  17  20
BRANCH   6   1
ATOM      1  S   UNL     1      -1.446  10.952   2.390  0.00  0.00    +0.029 S 
ATOM      2  O   UNL     1      -1.596  12.384   2.247  0.00  0.00    -0.158 OA
ATOM      3  O   UNL     1      -2.066  10.027   1.468  0.00  0.00    -0.158 OA
ATOM     19  C   UNL     1       0.290  10.587   2.449  0.00  0.00    +0.215 C 
ENDBRANCH   6   1
TORSDOF 3
ENDMDL
MODEL 8
REMARK VINA RESULT:      -6.0     12.784     14.971
REMARK  Name = 11885137
REMARK  5 active torsions:
REMARK  status: ('A' for Active; 'I' for Inactive)
REMARK    1  A    between atoms: S_1  and  N_6
REMARK    2  A    between atoms: S_1  and  C_19
REMARK    3  A    between atoms: O_5  and  C_25
REMARK    4  A    between atoms: O_5  and  C_26
REMARK    5  A    between atoms: C_17  and  C_20
REMARK                            x       y       z     vdW  Elec       q    Type
REMARK                         _______ _______ _______ _____ _____    ______ ____
ROOT
ATOM      4  O   UNL     1      10.399   6.833   0.987  0.00  0.00    -0.267 OA
ATOM      6  N   UNL     1      11.039   7.366   5.902  0.00  0.00    -0.180 NA
ATOM      7  N   UNL     1       9.979   6.160   3.181  0.00  0.00    -0.311 N 
ATOM      8  C   UNL     1       8.780   7.657   4.878  0.00  0.00    +0.025 C 
ATOM      9  C   UNL     1       9.535   5.417   5.547  0.00  0.00    +0.052 C 
ATOM     10  C   UNL     1       8.323   6.345   5.502  0.00  0.00    +0.017 C 
ATOM     11  C   UNL     1       9.891   8.300   5.725  0.00  0.00    +0.114 C 
ATOM     12  C   UNL     1      10.623   6.037   6.442  0.00  0.00    +0.118 C 
ATOM     13  C   UNL     1       9.223   7.395   3.433  0.00  0.00    +0.130 C 
ATOM     14  C   UNL     1      10.081   5.163   4.155  0.00  0.00    +0.026 A 
ATOM     15  C   UNL     1      10.675   3.995   3.862  0.00  0.00    +0.022 A 
ATOM     16  C   UNL     1      10.499   5.992   1.882  0.00  0.00    +0.259 A 
ATOM     17  C   UNL     1      11.192   4.686   1.597  0.00  0.00    +0.047 A 
ATOM     18  C   UNL     1      11.244   3.760   2.566  0.00  0.00    +0.015 A 
ENDROOT
BRANCH  17  20
ATOM     20  C   UNL     1      11.813   4.422   0.287  0.00  0.00    -0.012 A 
ATOM     21  C   UNL     1      13.191   4.565   0.125  0.00  0.00    +0.012 A 
ATOM     22  C   UNL     1      11.022   4.029  -0.793  0.00  0.00    +0.012 A 
ATOM     23  C   UNL     1      13.778   4.315  -1.115  0.00  0.00    +0.046 A 
ATOM     24  C   UNL     1      11.610   3.779  -2.035  0.00  0.00    +0.046 A 
ATOM     25  C   UNL     1      12.988   3.922  -2.195  0.00  0.00    +0.120 A 
BRANCH  25   5
ATOM      5  O   UNL     1      13.561   3.680  -3.405  0.00  0.00    -0.495 OA
ATOM     26  C   UNL     1      12.712   3.180  -4.437  0.00  0.00    +0.277 C 
ENDBRANCH  25   5
ENDBRANCH  17  20
BRANCH   6   1
ATOM      1  S   UNL     1      12.443   8.044   6.605  0.00  0.00    +0.029 S 
ATOM      2  O   UNL     1      13.203   6.989   7.241  0.00  0.00    -0.158 OA
ATOM      3  O   UNL     1      12.074   9.249   7.316  0.00  0.00    -0.158 OA
ATOM     19  C   UNL     1      13.300   8.521   5.127  0.00  0.00    +0.215 C 
ENDBRANCH   6   1
TORSDOF 3
ENDMDL
MODEL 9
REMARK VINA RESULT:      -5.8     40.096     41.683
REMARK  Name = 11885137
REMARK  5 active torsions:
REMARK  status: ('A' for Active; 'I' for Inactive)
REMARK    1  A    between atoms: S_1  and  N_6
REMARK    2  A    between atoms: S_1  and  C_19
REMARK    3  A    between atoms: O_5  and  C_25
REMARK    4  A    between atoms: O_5  and  C_26
REMARK    5  A    between atoms: C_17  and  C_20
REMARK                            x       y       z     vdW  Elec       q    Type
REMARK                         _______ _______ _______ _____ _____    ______ ____
ROOT
ATOM      4  O   UNL     1       8.799 -12.190  32.024  0.00  0.00    -0.267 OA
ATOM      6  N   UNL     1       7.027  -8.568  34.956  0.00  0.00    -0.180 NA
ATOM      7  N   UNL     1       8.408  -9.933  32.463  0.00  0.00    -0.311 N 
ATOM      8  C   UNL     1       9.468  -8.709  34.448  0.00  0.00    +0.025 C 
ATOM      9  C   UNL     1       7.975  -7.494  32.922  0.00  0.00    +0.052 C 
ATOM     10  C   UNL     1       9.361  -7.474  33.564  0.00  0.00    +0.017 C 
ATOM     11  C   UNL     1       8.391  -8.684  35.546  0.00  0.00    +0.114 C 
ATOM     12  C   UNL     1       6.899  -7.410  34.020  0.00  0.00    +0.118 C 
ATOM     13  C   UNL     1       9.377  -9.962  33.568  0.00  0.00    +0.130 C 
ATOM     14  C   UNL     1       7.778  -8.744  32.086  0.00  0.00    +0.026 A 
ATOM     15  C   UNL     1       6.987  -8.716  31.002  0.00  0.00    +0.022 A 
ATOM     16  C   UNL     1       8.233 -11.132  31.744  0.00  0.00    +0.259 A 
ATOM     17  C   UNL     1       7.312 -11.077  30.555  0.00  0.00    +0.047 A 
ATOM     18  C   UNL     1       6.748  -9.903  30.231  0.00  0.00    +0.015 A 
ENDROOT
BRANCH  17  20
ATOM     20  C   UNL     1       7.020 -12.282  29.759  0.00  0.00    -0.012 A 
ATOM     21  C   UNL     1       5.887 -13.047  30.039  0.00  0.00    +0.012 A 
ATOM     22  C   UNL     1       7.877 -12.660  28.725  0.00  0.00    +0.012 A 
ATOM     23  C   UNL     1       5.612 -14.188  29.286  0.00  0.00    +0.046 A 
ATOM     24  C   UNL     1       7.601 -13.802  27.972  0.00  0.00    +0.046 A 
ATOM     25  C   UNL     1       6.469 -14.566  28.252  0.00  0.00    +0.120 A 
BRANCH  25   5
ATOM      5  O   UNL     1       6.200 -15.679  27.519  0.00  0.00    -0.495 OA
ATOM     26  C   UNL     1       5.992 -15.500  26.119  0.00  0.00    +0.277 C 
ENDBRANCH  25   5
ENDBRANCH  17  20
BRANCH   6   1
ATOM      1  S   UNL     1       5.728  -8.784  36.047  0.00  0.00    +0.029 S 
ATOM      2  O   UNL     1       4.534  -9.105  35.294  0.00  0.00    -0.158 OA
ATOM      3  O   UNL     1       5.749  -7.711  37.016  0.00  0.00    -0.158 OA
ATOM     19  C   UNL     1       6.279 -10.264  36.856  0.00  0.00    +0.215 C 
ENDBRANCH   6   1
TORSDOF 3
ENDMDL
MODEL 10
REMARK VINA RESULT:      -5.7     40.804     42.435
REMARK  Name = 11885137
REMARK  5 active torsions:
REMARK  status: ('A' for Active; 'I' for Inactive)
REMARK    1  A    between atoms: S_1  and  N_6
REMARK    2  A    between atoms: S_1  and  C_19
REMARK    3  A    between atoms: O_5  and  C_25
REMARK    4  A    between atoms: O_5  and  C_26
REMARK    5  A    between atoms: C_17  and  C_20
REMARK                            x       y       z     vdW  Elec       q    Type
REMARK                         _______ _______ _______ _____ _____    ______ ____
ROOT
ATOM      4  O   UNL     1       9.377  -9.447  32.689  0.00  0.00    -0.267 OA
ATOM      6  N   UNL     1       8.448  -6.003  36.172  0.00  0.00    -0.180 NA
ATOM      7  N   UNL     1       8.662  -7.314  33.305  0.00  0.00    -0.311 N 
ATOM      8  C   UNL     1      10.206  -5.615  34.441  0.00  0.00    +0.025 C 
ATOM      9  C   UNL     1       7.873  -5.014  33.964  0.00  0.00    +0.052 C 
ATOM     10  C   UNL     1       9.321  -4.573  33.769  0.00  0.00    +0.017 C 
ATOM     11  C   UNL     1       9.891  -5.705  35.943  0.00  0.00    +0.114 C 
ATOM     12  C   UNL     1       7.543  -5.047  35.467  0.00  0.00    +0.118 C 
ATOM     13  C   UNL     1      10.025  -6.959  33.723  0.00  0.00    +0.130 C 
ATOM     14  C   UNL     1       7.627  -6.375  33.341  0.00  0.00    +0.026 A 
ATOM     15  C   UNL     1       6.420  -6.685  32.844  0.00  0.00    +0.022 A 
ATOM     16  C   UNL     1       8.481  -8.605  32.770  0.00  0.00    +0.259 A 
ATOM     17  C   UNL     1       7.106  -8.935  32.254  0.00  0.00    +0.047 A 
ATOM     18  C   UNL     1       6.157  -7.988  32.300  0.00  0.00    +0.015 A 
ENDROOT
BRANCH  17  20
ATOM     20  C   UNL     1       6.793 -10.271  31.717  0.00  0.00    -0.012 A 
ATOM     21  C   UNL     1       6.381 -11.290  32.575  0.00  0.00    +0.012 A 
ATOM     22  C   UNL     1       6.909 -10.517  30.348  0.00  0.00    +0.012 A 
ATOM     23  C   UNL     1       6.085 -12.555  32.065  0.00  0.00    +0.046 A 
ATOM     24  C   UNL     1       6.613 -11.782  29.839  0.00  0.00    +0.046 A 
ATOM     25  C   UNL     1       6.201 -12.800  30.697  0.00  0.00    +0.120 A 
BRANCH  25   5
ATOM      5  O   UNL     1       5.913 -14.034  30.201  0.00  0.00    -0.495 OA
ATOM     26  C   UNL     1       4.695 -14.172  29.471  0.00  0.00    +0.277 C 
ENDBRANCH  25   5
ENDBRANCH  17  20
BRANCH   6   1
ATOM      1  S   UNL     1       8.017  -6.380  37.784  0.00  0.00    +0.029 S 
ATOM      2  O   UNL     1       7.655  -5.157  38.468  0.00  0.00    -0.158 OA
ATOM      3  O   UNL     1       8.998  -7.293  38.328  0.00  0.00    -0.158 OA
ATOM     19  C   UNL     1       6.529  -7.295  37.474  0.00  0.00    +0.215 C 
ENDBRANCH   6   1
TORSDOF 3
ENDMDL
