MODEL 1
REMARK VINA RESULT:      -5.6      0.000      0.000
REMARK  Name = 45361094
REMARK  8 active torsions:
REMARK  status: ('A' for Active; 'I' for Inactive)
REMARK    1  A    between atoms: N_3  and  C_15
REMARK    2  A    between atoms: N_6  and  C_18
REMARK    3  A    between atoms: N_6  and  C_19
REMARK    4  A    between atoms: C_10  and  C_13
REMARK    5  A    between atoms: C_13  and  C_16
REMARK    6  A    between atoms: C_16  and  C_17
REMARK    7  A    between atoms: C_18  and  C_20
REMARK    8  A    between atoms: C_19  and  C_21
REMARK                            x       y       z     vdW  Elec       q    Type
REMARK                         _______ _______ _______ _____ _____    ______ ____
ROOT
ATOM      1  O   UNL     1      10.586   9.033  16.403  0.00  0.00    -0.274 OA
ATOM      3  N   UNL     1      13.685   9.973  18.577  0.00  0.00    -0.296 NA
ATOM      4  N   UNL     1      12.666  10.092  15.070  0.00  0.00    -0.304 NA
ATOM      5  N   UNL     1      11.874   7.830  17.863  0.00  0.00    -0.312 N 
ATOM      7  C   UNL     1      13.957   9.986  17.123  0.00  0.00    +0.084 C 
ATOM      8  C   UNL     1      13.001   9.197  16.188  0.00  0.00    +0.158 C 
ATOM      9  C   UNL     1      13.928  11.392  16.496  0.00  0.00    +0.036 C 
ATOM     10  C   UNL     1      13.790   8.631  19.213  0.00  0.00    +0.074 C 
ATOM     11  C   UNL     1      13.695  11.118  15.027  0.00  0.00    +0.083 C 
ATOM     12  C   UNL     1      13.171   7.475  18.402  0.00  0.00    +0.123 C 
ATOM     14  C   UNL     1      11.699   8.710  16.812  0.00  0.00    +0.232 C 
ATOM     15  C   UNL     1      14.548  10.938  19.279  0.00  0.00    +0.105 C 
ATOM     22  H   UNL     1      11.773  10.549  15.263  0.00  0.00    +0.123 HD
ATOM     23  H   UNL     1      11.045   7.449  18.311  0.00  0.00    +0.149 HD
ENDROOT
BRANCH  10  13
ATOM     13  C   UNL     1      13.116   8.640  20.601  0.00  0.00    +0.029 C 
BRANCH  13  16
ATOM     16  C   UNL     1      13.934   7.840  21.602  0.00  0.00    +0.097 C 
BRANCH  16  17
ATOM      2  O   UNL     1      15.534   9.509  22.233  0.00  0.00    -0.276 OA
ATOM      6  N   UNL     1      16.382   7.563  21.300  0.00  0.00    -0.302 N 
ATOM     17  C   UNL     1      15.347   8.392  21.746  0.00  0.00    +0.216 C 
BRANCH   6  18
ATOM     18  C   UNL     1      16.210   6.234  20.718  0.00  0.00    +0.104 C 
ATOM     20  C   UNL     1      16.528   6.232  19.237  0.00  0.00    +0.024 C 
ENDBRANCH   6  18
BRANCH   6  19
ATOM     19  C   UNL     1      17.762   8.024  21.395  0.00  0.00    +0.104 C 
ATOM     21  C   UNL     1      18.705   6.885  21.724  0.00  0.00    +0.024 C 
ENDBRANCH   6  19
ENDBRANCH  16  17
ENDBRANCH  13  16
ENDBRANCH  10  13
TORSDOF 5
ENDMDL
MODEL 2
REMARK VINA RESULT:      -5.4     25.973     28.228
REMARK  Name = 45361094
REMARK  8 active torsions:
REMARK  status: ('A' for Active; 'I' for Inactive)
REMARK    1  A    between atoms: N_3  and  C_15
REMARK    2  A    between atoms: N_6  and  C_18
REMARK    3  A    between atoms: N_6  and  C_19
REMARK    4  A    between atoms: C_10  and  C_13
REMARK    5  A    between atoms: C_13  and  C_16
REMARK    6  A    between atoms: C_16  and  C_17
REMARK    7  A    between atoms: C_18  and  C_20
REMARK    8  A    between atoms: C_19  and  C_21
REMARK                            x       y       z     vdW  Elec       q    Type
REMARK                         _______ _______ _______ _____ _____    ______ ____
ROOT
ATOM      1  O   UNL     1      -5.717 -11.109  20.871  0.00  0.00    -0.274 OA
ATOM      3  N   UNL     1      -6.164 -10.514  17.042  0.00  0.00    -0.296 NA
ATOM      4  N   UNL     1      -8.145 -11.692  19.877  0.00  0.00    -0.304 NA
ATOM      5  N   UNL     1      -4.565 -11.864  19.042  0.00  0.00    -0.312 N 
ATOM      7  C   UNL     1      -7.262 -11.296  17.651  0.00  0.00    +0.084 C 
ATOM      8  C   UNL     1      -6.999 -12.001  19.009  0.00  0.00    +0.158 C 
ATOM      9  C   UNL     1      -8.521 -10.465  17.961  0.00  0.00    +0.036 C 
ATOM     10  C   UNL     1      -4.971 -11.319  16.661  0.00  0.00    +0.074 C 
ATOM     11  C   UNL     1      -9.238 -11.290  19.007  0.00  0.00    +0.083 C 
ATOM     12  C   UNL     1      -4.547 -12.385  17.690  0.00  0.00    +0.123 C 
ATOM     14  C   UNL     1      -5.727 -11.596  19.742  0.00  0.00    +0.232 C 
ATOM     15  C   UNL     1      -6.649  -9.744  15.885  0.00  0.00    +0.105 C 
ATOM     22  H   UNL     1      -7.909 -10.897  20.474  0.00  0.00    +0.123 HD
ATOM     23  H   UNL     1      -3.678 -11.639  19.484  0.00  0.00    +0.149 HD
ENDROOT
BRANCH  10  13
ATOM     13  C   UNL     1      -3.757 -10.397  16.417  0.00  0.00    +0.029 C 
BRANCH  13  16
ATOM     16  C   UNL     1      -2.573 -11.195  15.894  0.00  0.00    +0.097 C 
BRANCH  16  17
ATOM      2  O   UNL     1      -1.243  -9.599  14.699  0.00  0.00    -0.276 OA
ATOM      6  N   UNL     1      -2.356 -11.183  13.423  0.00  0.00    -0.302 N 
ATOM     17  C   UNL     1      -1.991 -10.577  14.630  0.00  0.00    +0.216 C 
BRANCH   6  18
ATOM     18  C   UNL     1      -3.237 -12.342  13.290  0.00  0.00    +0.104 C 
ATOM     20  C   UNL     1      -2.507 -13.528  12.696  0.00  0.00    +0.024 C 
ENDBRANCH   6  18
BRANCH   6  19
ATOM     19  C   UNL     1      -1.848 -10.645  12.166  0.00  0.00    +0.104 C 
ATOM     21  C   UNL     1      -2.966 -10.081  11.313  0.00  0.00    +0.024 C 
ENDBRANCH   6  19
ENDBRANCH  16  17
ENDBRANCH  13  16
ENDBRANCH  10  13
TORSDOF 5
ENDMDL
MODEL 3
REMARK VINA RESULT:      -5.4      3.563      5.184
REMARK  Name = 45361094
REMARK  8 active torsions:
REMARK  status: ('A' for Active; 'I' for Inactive)
REMARK    1  A    between atoms: N_3  and  C_15
REMARK    2  A    between atoms: N_6  and  C_18
REMARK    3  A    between atoms: N_6  and  C_19
REMARK    4  A    between atoms: C_10  and  C_13
REMARK    5  A    between atoms: C_13  and  C_16
REMARK    6  A    between atoms: C_16  and  C_17
REMARK    7  A    between atoms: C_18  and  C_20
REMARK    8  A    between atoms: C_19  and  C_21
REMARK                            x       y       z     vdW  Elec       q    Type
REMARK                         _______ _______ _______ _____ _____    ______ ____
ROOT
ATOM      1  O   UNL     1      11.304   7.406  17.099  0.00  0.00    -0.274 OA
ATOM      3  N   UNL     1      13.088  10.399  18.849  0.00  0.00    -0.296 NA
ATOM      4  N   UNL     1      13.567   8.258  15.928  0.00  0.00    -0.304 NA
ATOM      5  N   UNL     1      12.051   7.725  19.239  0.00  0.00    -0.312 N 
ATOM      7  C   UNL     1      13.920   9.734  17.822  0.00  0.00    +0.084 C 
ATOM      8  C   UNL     1      13.548   8.288  17.398  0.00  0.00    +0.158 C 
ATOM      9  C   UNL     1      13.943  10.468  16.469  0.00  0.00    +0.036 C 
ATOM     10  C   UNL     1      13.121   9.747  20.188  0.00  0.00    +0.074 C 
ATOM     11  C   UNL     1      14.366   9.392  15.493  0.00  0.00    +0.083 C 
ATOM     12  C   UNL     1      13.057   8.207  20.164  0.00  0.00    +0.123 C 
ATOM     14  C   UNL     1      12.191   7.777  17.865  0.00  0.00    +0.232 C 
ATOM     15  C   UNL     1      13.444  11.823  18.968  0.00  0.00    +0.105 C 
ATOM     22  H   UNL     1      12.617   8.389  15.578  0.00  0.00    +0.123 HD
ATOM     23  H   UNL     1      11.177   7.372  19.618  0.00  0.00    +0.149 HD
ENDROOT
BRANCH  10  13
ATOM     13  C   UNL     1      11.950  10.249  21.058  0.00  0.00    +0.029 C 
BRANCH  13  16
ATOM     16  C   UNL     1      12.467  11.008  22.270  0.00  0.00    +0.097 C 
BRANCH  16  17
ATOM      2  O   UNL     1      10.681  10.790  23.853  0.00  0.00    -0.276 OA
ATOM      6  N   UNL     1      11.082  12.921  23.031  0.00  0.00    -0.302 N 
ATOM     17  C   UNL     1      11.329  11.547  23.127  0.00  0.00    +0.216 C 
BRANCH   6  18
ATOM     18  C   UNL     1      11.822  13.857  22.187  0.00  0.00    +0.104 C 
ATOM     20  C   UNL     1      11.055  14.189  20.924  0.00  0.00    +0.024 C 
ENDBRANCH   6  18
BRANCH   6  19
ATOM     19  C   UNL     1      10.003  13.513  23.812  0.00  0.00    +0.104 C 
ATOM     21  C   UNL     1      10.520  14.124  25.099  0.00  0.00    +0.024 C 
ENDBRANCH   6  19
ENDBRANCH  16  17
ENDBRANCH  13  16
ENDBRANCH  10  13
TORSDOF 5
ENDMDL
MODEL 4
REMARK VINA RESULT:      -5.4      2.788      7.802
REMARK  Name = 45361094
REMARK  8 active torsions:
REMARK  status: ('A' for Active; 'I' for Inactive)
REMARK    1  A    between atoms: N_3  and  C_15
REMARK    2  A    between atoms: N_6  and  C_18
REMARK    3  A    between atoms: N_6  and  C_19
REMARK    4  A    between atoms: C_10  and  C_13
REMARK    5  A    between atoms: C_13  and  C_16
REMARK    6  A    between atoms: C_16  and  C_17
REMARK    7  A    between atoms: C_18  and  C_20
REMARK    8  A    between atoms: C_19  and  C_21
REMARK                            x       y       z     vdW  Elec       q    Type
REMARK                         _______ _______ _______ _____ _____    ______ ____
ROOT
ATOM      1  O   UNL     1      20.358   6.364  24.234  0.00  0.00    -0.274 OA
ATOM      3  N   UNL     1      18.637   6.394  20.735  0.00  0.00    -0.296 NA
ATOM      4  N   UNL     1      21.899   5.594  22.172  0.00  0.00    -0.304 NA
ATOM      5  N   UNL     1      19.257   7.995  23.065  0.00  0.00    -0.312 N 
ATOM      7  C   UNL     1      20.107   6.243  20.669  0.00  0.00    +0.084 C 
ATOM      8  C   UNL     1      20.947   6.681  21.898  0.00  0.00    +0.158 C 
ATOM      9  C   UNL     1      20.575   4.791  20.464  0.00  0.00    +0.036 C 
ATOM     10  C   UNL     1      18.165   7.802  20.850  0.00  0.00    +0.074 C 
ATOM     11  C   UNL     1      22.006   4.809  20.952  0.00  0.00    +0.083 C 
ATOM     12  C   UNL     1      18.976   8.683  21.820  0.00  0.00    +0.123 C 
ATOM     14  C   UNL     1      20.171   6.965  23.178  0.00  0.00    +0.232 C 
ATOM     15  C   UNL     1      17.991   5.734  19.587  0.00  0.00    +0.105 C 
ATOM     22  H   UNL     1      21.517   4.991  22.902  0.00  0.00    +0.123 HD
ATOM     23  H   UNL     1      18.721   8.251  23.889  0.00  0.00    +0.149 HD
ENDROOT
BRANCH  10  13
ATOM     13  C   UNL     1      16.692   7.839  21.307  0.00  0.00    +0.029 C 
BRANCH  13  16
ATOM     16  C   UNL     1      15.825   8.541  20.274  0.00  0.00    +0.097 C 
BRANCH  16  17
ATOM      2  O   UNL     1      14.395   6.620  20.374  0.00  0.00    -0.276 OA
ATOM      6  N   UNL     1      13.490   8.538  19.435  0.00  0.00    -0.302 N 
ATOM     17  C   UNL     1      14.515   7.801  20.039  0.00  0.00    +0.216 C 
BRANCH   6  18
ATOM     18  C   UNL     1      13.585   9.937  19.022  0.00  0.00    +0.104 C 
ATOM     20  C   UNL     1      13.722  10.063  17.519  0.00  0.00    +0.024 C 
ENDBRANCH   6  18
BRANCH   6  19
ATOM     19  C   UNL     1      12.208   7.898  19.166  0.00  0.00    +0.104 C 
ATOM     21  C   UNL     1      11.119   8.440  20.069  0.00  0.00    +0.024 C 
ENDBRANCH   6  19
ENDBRANCH  16  17
ENDBRANCH  13  16
ENDBRANCH  10  13
TORSDOF 5
ENDMDL
MODEL 5
REMARK VINA RESULT:      -5.3     13.103     16.553
REMARK  Name = 45361094
REMARK  8 active torsions:
REMARK  status: ('A' for Active; 'I' for Inactive)
REMARK    1  A    between atoms: N_3  and  C_15
REMARK    2  A    between atoms: N_6  and  C_18
REMARK    3  A    between atoms: N_6  and  C_19
REMARK    4  A    between atoms: C_10  and  C_13
REMARK    5  A    between atoms: C_13  and  C_16
REMARK    6  A    between atoms: C_16  and  C_17
REMARK    7  A    between atoms: C_18  and  C_20
REMARK    8  A    between atoms: C_19  and  C_21
REMARK                            x       y       z     vdW  Elec       q    Type
REMARK                         _______ _______ _______ _____ _____    ______ ____
ROOT
ATOM      1  O   UNL     1      10.997   5.426   8.304  0.00  0.00    -0.274 OA
ATOM      3  N   UNL     1      10.452   7.175   4.862  0.00  0.00    -0.296 NA
ATOM      4  N   UNL     1       9.296   7.506   8.311  0.00  0.00    -0.304 NA
ATOM      5  N   UNL     1      10.346   4.640   6.255  0.00  0.00    -0.312 N 
ATOM      7  C   UNL     1       9.470   7.578   5.892  0.00  0.00    +0.084 C 
ATOM      8  C   UNL     1       9.264   6.648   7.118  0.00  0.00    +0.158 C 
ATOM      9  C   UNL     1       9.790   8.926   6.564  0.00  0.00    +0.036 C 
ATOM     10  C   UNL     1      10.112   5.915   4.145  0.00  0.00    +0.074 C 
ATOM     11  C   UNL     1       9.022   8.862   7.865  0.00  0.00    +0.083 C 
ATOM     12  C   UNL     1       9.572   4.782   5.039  0.00  0.00    +0.123 C 
ATOM     14  C   UNL     1      10.295   5.541   7.302  0.00  0.00    +0.232 C 
ATOM     15  C   UNL     1      10.675   8.265   3.897  0.00  0.00    +0.105 C 
ATOM     22  H   UNL     1      10.235   7.490   8.711  0.00  0.00    +0.123 HD
ATOM     23  H   UNL     1      10.997   3.863   6.325  0.00  0.00    +0.149 HD
ENDROOT
BRANCH  10  13
ATOM     13  C   UNL     1      11.350   5.371   3.400  0.00  0.00    +0.029 C 
BRANCH  13  16
ATOM     16  C   UNL     1      10.998   4.115   2.619  0.00  0.00    +0.097 C 
BRANCH  16  17
ATOM      2  O   UNL     1      10.290   4.879   0.461  0.00  0.00    -0.276 OA
ATOM      6  N   UNL     1      12.355   3.830   0.562  0.00  0.00    -0.302 N 
ATOM     17  C   UNL     1      11.168   4.316   1.119  0.00  0.00    +0.216 C 
BRANCH   6  18
ATOM     18  C   UNL     1      13.423   3.157   1.300  0.00  0.00    +0.104 C 
ATOM     20  C   UNL     1      14.620   4.065   1.492  0.00  0.00    +0.024 C 
ENDBRANCH   6  18
BRANCH   6  19
ATOM     19  C   UNL     1      12.589   3.974  -0.870  0.00  0.00    +0.104 C 
ATOM     21  C   UNL     1      12.282   2.691  -1.614  0.00  0.00    +0.024 C 
ENDBRANCH   6  19
ENDBRANCH  16  17
ENDBRANCH  13  16
ENDBRANCH  10  13
TORSDOF 5
ENDMDL
MODEL 6
REMARK VINA RESULT:      -5.3     26.566     28.814
REMARK  Name = 45361094
REMARK  8 active torsions:
REMARK  status: ('A' for Active; 'I' for Inactive)
REMARK    1  A    between atoms: N_3  and  C_15
REMARK    2  A    between atoms: N_6  and  C_18
REMARK    3  A    between atoms: N_6  and  C_19
REMARK    4  A    between atoms: C_10  and  C_13
REMARK    5  A    between atoms: C_13  and  C_16
REMARK    6  A    between atoms: C_16  and  C_17
REMARK    7  A    between atoms: C_18  and  C_20
REMARK    8  A    between atoms: C_19  and  C_21
REMARK                            x       y       z     vdW  Elec       q    Type
REMARK                         _______ _______ _______ _____ _____    ______ ____
ROOT
ATOM      1  O   UNL     1      -1.166 -10.970  15.459  0.00  0.00    -0.274 OA
ATOM      3  N   UNL     1      -4.420 -12.806  16.578  0.00  0.00    -0.296 NA
ATOM      4  N   UNL     1      -2.315 -12.538  13.604  0.00  0.00    -0.304 NA
ATOM      5  N   UNL     1      -3.141 -10.220  16.340  0.00  0.00    -0.312 N 
ATOM      7  C   UNL     1      -4.185 -12.857  15.119  0.00  0.00    +0.084 C 
ATOM      8  C   UNL     1      -3.232 -11.805  14.489  0.00  0.00    +0.158 C 
ATOM      9  C   UNL     1      -3.565 -14.180  14.633  0.00  0.00    +0.036 C 
ATOM     10  C   UNL     1      -5.094 -11.566  17.052  0.00  0.00    +0.074 C 
ATOM     11  C   UNL     1      -2.947 -13.812  13.302  0.00  0.00    +0.083 C 
ATOM     12  C   UNL     1      -4.588 -10.261  16.407  0.00  0.00    +0.123 C 
ATOM     14  C   UNL     1      -2.395 -10.986  15.464  0.00  0.00    +0.232 C 
ATOM     15  C   UNL     1      -5.163 -13.994  17.030  0.00  0.00    +0.105 C 
ATOM     22  H   UNL     1      -1.446 -12.729  14.105  0.00  0.00    +0.123 HD
ATOM     23  H   UNL     1      -2.644  -9.632  17.003  0.00  0.00    +0.149 HD
ENDROOT
BRANCH  10  13
ATOM     13  C   UNL     1      -4.938 -11.421  18.581  0.00  0.00    +0.029 C 
BRANCH  13  16
ATOM     16  C   UNL     1      -5.946 -10.424  19.132  0.00  0.00    +0.097 C 
BRANCH  16  17
ATOM      2  O   UNL     1      -7.540 -11.968  20.038  0.00  0.00    -0.276 OA
ATOM      6  N   UNL     1      -8.329 -10.480  18.445  0.00  0.00    -0.302 N 
ATOM     17  C   UNL     1      -7.335 -11.036  19.256  0.00  0.00    +0.216 C 
BRANCH   6  18
ATOM     18  C   UNL     1      -8.135  -9.377  17.505  0.00  0.00    +0.104 C 
ATOM     20  C   UNL     1      -8.320  -9.830  16.072  0.00  0.00    +0.024 C 
ENDBRANCH   6  18
BRANCH   6  19
ATOM     19  C   UNL     1      -9.683 -11.017  18.498  0.00  0.00    +0.104 C 
ATOM     21  C   UNL     1     -10.548 -10.246  19.474  0.00  0.00    +0.024 C 
ENDBRANCH   6  19
ENDBRANCH  16  17
ENDBRANCH  13  16
ENDBRANCH  10  13
TORSDOF 5
ENDMDL
MODEL 7
REMARK VINA RESULT:      -5.2     26.292     28.207
REMARK  Name = 45361094
REMARK  8 active torsions:
REMARK  status: ('A' for Active; 'I' for Inactive)
REMARK    1  A    between atoms: N_3  and  C_15
REMARK    2  A    between atoms: N_6  and  C_18
REMARK    3  A    between atoms: N_6  and  C_19
REMARK    4  A    between atoms: C_10  and  C_13
REMARK    5  A    between atoms: C_13  and  C_16
REMARK    6  A    between atoms: C_16  and  C_17
REMARK    7  A    between atoms: C_18  and  C_20
REMARK    8  A    between atoms: C_19  and  C_21
REMARK                            x       y       z     vdW  Elec       q    Type
REMARK                         _______ _______ _______ _____ _____    ______ ____
ROOT
ATOM      1  O   UNL     1      -1.280 -12.957  13.690  0.00  0.00    -0.274 OA
ATOM      3  N   UNL     1      -4.538 -11.000  14.567  0.00  0.00    -0.296 NA
ATOM      4  N   UNL     1      -1.985 -11.031  11.953  0.00  0.00    -0.304 NA
ATOM      5  N   UNL     1      -1.936 -11.798  15.552  0.00  0.00    -0.312 N 
ATOM      7  C   UNL     1      -3.740 -10.368  13.494  0.00  0.00    +0.084 C 
ATOM      8  C   UNL     1      -2.239 -10.746  13.373  0.00  0.00    +0.158 C 
ATOM      9  C   UNL     1      -4.258 -10.662  12.075  0.00  0.00    +0.036 C 
ATOM     10  C   UNL     1      -4.099 -10.658  15.948  0.00  0.00    +0.074 C 
ATOM     11  C   UNL     1      -3.054 -10.398  11.198  0.00  0.00    +0.083 C 
ATOM     12  C   UNL     1      -2.573 -10.648  16.162  0.00  0.00    +0.123 C 
ATOM     14  C   UNL     1      -1.781 -11.950  14.187  0.00  0.00    +0.232 C 
ATOM     15  C   UNL     1      -5.970 -10.699  14.399  0.00  0.00    +0.105 C 
ATOM     22  H   UNL     1      -2.044 -12.039  11.798  0.00  0.00    +0.123 HD
ATOM     23  H   UNL     1      -1.629 -12.556  16.156  0.00  0.00    +0.149 HD
ENDROOT
BRANCH  10  13
ATOM     13  C   UNL     1      -4.706 -11.646  16.965  0.00  0.00    +0.029 C 
BRANCH  13  16
ATOM     16  C   UNL     1      -5.370 -10.899  18.110  0.00  0.00    +0.097 C 
BRANCH  16  17
ATOM      2  O   UNL     1      -6.802 -12.600  19.007  0.00  0.00    -0.276 OA
ATOM      6  N   UNL     1      -7.845 -10.722  18.135  0.00  0.00    -0.302 N 
ATOM     17  C   UNL     1      -6.727 -11.496  18.463  0.00  0.00    +0.216 C 
BRANCH   6  18
ATOM     18  C   UNL     1      -7.807  -9.410  17.492  0.00  0.00    +0.104 C 
ATOM     20  C   UNL     1      -8.832  -9.307  16.381  0.00  0.00    +0.024 C 
ENDBRANCH   6  18
BRANCH   6  19
ATOM     19  C   UNL     1      -9.180 -11.228  18.430  0.00  0.00    +0.104 C 
ATOM     21  C   UNL     1      -9.685 -10.714  19.763  0.00  0.00    +0.024 C 
ENDBRANCH   6  19
ENDBRANCH  16  17
ENDBRANCH  13  16
ENDBRANCH  10  13
TORSDOF 5
ENDMDL
MODEL 8
REMARK VINA RESULT:      -5.2     13.201     16.722
REMARK  Name = 45361094
REMARK  8 active torsions:
REMARK  status: ('A' for Active; 'I' for Inactive)
REMARK    1  A    between atoms: N_3  and  C_15
REMARK    2  A    between atoms: N_6  and  C_18
REMARK    3  A    between atoms: N_6  and  C_19
REMARK    4  A    between atoms: C_10  and  C_13
REMARK    5  A    between atoms: C_13  and  C_16
REMARK    6  A    between atoms: C_16  and  C_17
REMARK    7  A    between atoms: C_18  and  C_20
REMARK    8  A    between atoms: C_19  and  C_21
REMARK                            x       y       z     vdW  Elec       q    Type
REMARK                         _______ _______ _______ _____ _____    ______ ____
ROOT
ATOM      1  O   UNL     1      10.963   5.497   8.337  0.00  0.00    -0.274 OA
ATOM      3  N   UNL     1      10.572   7.093   4.800  0.00  0.00    -0.296 NA
ATOM      4  N   UNL     1       9.327   7.624   8.193  0.00  0.00    -0.304 NA
ATOM      5  N   UNL     1      10.348   4.633   6.309  0.00  0.00    -0.312 N 
ATOM      7  C   UNL     1       9.573   7.574   5.779  0.00  0.00    +0.084 C 
ATOM      8  C   UNL     1       9.304   6.711   7.041  0.00  0.00    +0.158 C 
ATOM      9  C   UNL     1       9.915   8.943   6.396  0.00  0.00    +0.036 C 
ATOM     10  C   UNL     1      10.215   5.810   4.133  0.00  0.00    +0.074 C 
ATOM     11  C   UNL     1       9.107   8.964   7.675  0.00  0.00    +0.083 C 
ATOM     12  C   UNL     1       9.614   4.738   5.064  0.00  0.00    +0.123 C 
ATOM     14  C   UNL     1      10.294   5.584   7.309  0.00  0.00    +0.232 C 
ATOM     15  C   UNL     1      10.857   8.128   3.792  0.00  0.00    +0.105 C 
ATOM     22  H   UNL     1      10.253   7.600   8.622  0.00  0.00    +0.123 HD
ATOM     23  H   UNL     1      10.973   3.841   6.434  0.00  0.00    +0.149 HD
ENDROOT
BRANCH  10  13
ATOM     13  C   UNL     1      11.457   5.194   3.454  0.00  0.00    +0.029 C 
BRANCH  13  16
ATOM     16  C   UNL     1      11.069   3.981   2.625  0.00  0.00    +0.097 C 
BRANCH  16  17
ATOM      2  O   UNL     1      13.139   3.140   1.757  0.00  0.00    -0.276 OA
ATOM      6  N   UNL     1      11.712   4.148   0.234  0.00  0.00    -0.302 N 
ATOM     17  C   UNL     1      12.075   3.712   1.513  0.00  0.00    +0.216 C 
BRANCH   6  18
ATOM     18  C   UNL     1      10.463   4.829  -0.105  0.00  0.00    +0.104 C 
ATOM     20  C   UNL     1      10.658   6.328  -0.203  0.00  0.00    +0.024 C 
ENDBRANCH   6  18
BRANCH   6  19
ATOM     19  C   UNL     1      12.625   3.938  -0.883  0.00  0.00    +0.104 C 
ATOM     21  C   UNL     1      12.221   2.734  -1.710  0.00  0.00    +0.024 C 
ENDBRANCH   6  19
ENDBRANCH  16  17
ENDBRANCH  13  16
ENDBRANCH  10  13
TORSDOF 5
ENDMDL
MODEL 9
REMARK VINA RESULT:      -5.1     31.069     32.466
REMARK  Name = 45361094
REMARK  8 active torsions:
REMARK  status: ('A' for Active; 'I' for Inactive)
REMARK    1  A    between atoms: N_3  and  C_15
REMARK    2  A    between atoms: N_6  and  C_18
REMARK    3  A    between atoms: N_6  and  C_19
REMARK    4  A    between atoms: C_10  and  C_13
REMARK    5  A    between atoms: C_13  and  C_16
REMARK    6  A    between atoms: C_16  and  C_17
REMARK    7  A    between atoms: C_18  and  C_20
REMARK    8  A    between atoms: C_19  and  C_21
REMARK                            x       y       z     vdW  Elec       q    Type
REMARK                         _______ _______ _______ _____ _____    ______ ____
ROOT
ATOM      1  O   UNL     1     -14.689   4.149  23.902  0.00  0.00    -0.274 OA
ATOM      3  N   UNL     1     -17.389   1.515  24.893  0.00  0.00    -0.296 NA
ATOM      4  N   UNL     1     -16.932   4.167  22.422  0.00  0.00    -0.304 NA
ATOM      5  N   UNL     1     -15.754   3.692  25.876  0.00  0.00    -0.312 N 
ATOM      7  C   UNL     1     -17.886   2.548  23.958  0.00  0.00    +0.084 C 
ATOM      8  C   UNL     1     -17.104   3.885  23.854  0.00  0.00    +0.158 C 
ATOM      9  C   UNL     1     -17.930   2.089  22.489  0.00  0.00    +0.036 C 
ATOM     10  C   UNL     1     -17.419   1.914  26.327  0.00  0.00    +0.074 C 
ATOM     11  C   UNL     1     -17.935   3.388  21.714  0.00  0.00    +0.083 C 
ATOM     12  C   UNL     1     -16.957   3.357  26.611  0.00  0.00    +0.123 C 
ATOM     14  C   UNL     1     -15.730   3.913  24.512  0.00  0.00    +0.232 C 
ATOM     15  C   UNL     1     -18.113   0.246  24.703  0.00  0.00    +0.105 C 
ATOM     22  H   UNL     1     -16.012   3.839  22.124  0.00  0.00    +0.123 HD
ATOM     23  H   UNL     1     -14.873   3.719  26.381  0.00  0.00    +0.149 HD
ENDROOT
BRANCH  10  13
ATOM     13  C   UNL     1     -16.535   0.968  27.166  0.00  0.00    +0.029 C 
BRANCH  13  16
ATOM     16  C   UNL     1     -16.920   1.035  28.636  0.00  0.00    +0.097 C 
BRANCH  16  17
ATOM      2  O   UNL     1     -15.045  -0.216  29.451  0.00  0.00    -0.276 OA
ATOM      6  N   UNL     1     -15.443   1.832  30.464  0.00  0.00    -0.302 N 
ATOM     17  C   UNL     1     -15.718   0.814  29.545  0.00  0.00    +0.216 C 
BRANCH   6  18
ATOM     18  C   UNL     1     -16.210   3.068  30.611  0.00  0.00    +0.104 C 
ATOM     20  C   UNL     1     -15.516   4.234  29.938  0.00  0.00    +0.024 C 
ENDBRANCH   6  18
BRANCH   6  19
ATOM     19  C   UNL     1     -14.315   1.690  31.377  0.00  0.00    +0.104 C 
ATOM     21  C   UNL     1     -14.773   1.289  32.764  0.00  0.00    +0.024 C 
ENDBRANCH   6  19
ENDBRANCH  16  17
ENDBRANCH  13  16
ENDBRANCH  10  13
TORSDOF 5
ENDMDL
MODEL 10
REMARK VINA RESULT:      -5.1     26.367     28.759
REMARK  Name = 45361094
REMARK  8 active torsions:
REMARK  status: ('A' for Active; 'I' for Inactive)
REMARK    1  A    between atoms: N_3  and  C_15
REMARK    2  A    between atoms: N_6  and  C_18
REMARK    3  A    between atoms: N_6  and  C_19
REMARK    4  A    between atoms: C_10  and  C_13
REMARK    5  A    between atoms: C_13  and  C_16
REMARK    6  A    between atoms: C_16  and  C_17
REMARK    7  A    between atoms: C_18  and  C_20
REMARK    8  A    between atoms: C_19  and  C_21
REMARK                            x       y       z     vdW  Elec       q    Type
REMARK                         _______ _______ _______ _____ _____    ______ ____
ROOT
ATOM      1  O   UNL     1      -6.315 -10.248  20.316  0.00  0.00    -0.274 OA
ATOM      3  N   UNL     1      -7.799  -9.967  16.720  0.00  0.00    -0.296 NA
ATOM      4  N   UNL     1      -8.909 -10.905  20.072  0.00  0.00    -0.304 NA
ATOM      5  N   UNL     1      -5.689 -11.151  18.309  0.00  0.00    -0.312 N 
ATOM      7  C   UNL     1      -8.674 -10.694  17.665  0.00  0.00    +0.084 C 
ATOM      8  C   UNL     1      -8.037 -11.286  18.951  0.00  0.00    +0.158 C 
ATOM      9  C   UNL     1      -9.817  -9.838  18.240  0.00  0.00    +0.036 C 
ATOM     10  C   UNL     1      -6.738 -10.802  16.092  0.00  0.00    +0.074 C 
ATOM     11  C   UNL     1     -10.206 -10.572  19.504  0.00  0.00    +0.083 C 
ATOM     12  C   UNL     1      -6.029 -11.781  17.049  0.00  0.00    +0.123 C 
ATOM     14  C   UNL     1      -6.621 -10.825  19.275  0.00  0.00    +0.232 C 
ATOM     15  C   UNL     1      -8.596  -9.293  15.682  0.00  0.00    +0.105 C 
ATOM     22  H   UNL     1      -8.536 -10.064  20.516  0.00  0.00    +0.123 HD
ATOM     23  H   UNL     1      -4.720 -10.893  18.472  0.00  0.00    +0.149 HD
ENDROOT
BRANCH  10  13
ATOM     13  C   UNL     1      -5.655  -9.906  15.455  0.00  0.00    +0.029 C 
BRANCH  13  16
ATOM     16  C   UNL     1      -5.385 -10.328  14.020  0.00  0.00    +0.097 C 
BRANCH  16  17
ATOM      2  O   UNL     1      -3.190 -10.980  14.730  0.00  0.00    -0.276 OA
ATOM      6  N   UNL     1      -3.450 -10.505  12.476  0.00  0.00    -0.302 N 
ATOM     17  C   UNL     1      -3.911 -10.637  13.790  0.00  0.00    +0.216 C 
BRANCH   6  18
ATOM     18  C   UNL     1      -4.265 -10.103  11.331  0.00  0.00    +0.104 C 
ATOM     20  C   UNL     1      -4.426 -11.236  10.339  0.00  0.00    +0.024 C 
ENDBRANCH   6  18
BRANCH   6  19
ATOM     19  C   UNL     1      -2.049 -10.773  12.175  0.00  0.00    +0.104 C 
ATOM     21  C   UNL     1      -1.390  -9.585  11.504  0.00  0.00    +0.024 C 
ENDBRANCH   6  19
ENDBRANCH  16  17
ENDBRANCH  13  16
ENDBRANCH  10  13
TORSDOF 5
ENDMDL
