MODEL 1
REMARK VINA RESULT:      -6.4      0.000      0.000
REMARK  Name = 28991064
REMARK  14 active torsions:
REMARK  status: ('A' for Active; 'I' for Inactive)
REMARK    1  A    between atoms: N_3  and  C_14
REMARK    2  A    between atoms: N_3  and  C_16
REMARK    3  A    between atoms: N_3  and  C_17
REMARK    4  A    between atoms: N_4  and  C_15
REMARK    5  A    between atoms: N_5  and  C_18
REMARK    6  A    between atoms: N_5  and  C_21
REMARK    7  A    between atoms: N_5  and  C_22
REMARK    8  A    between atoms: N_6  and  C_27
REMARK    9  A    between atoms: N_6  and  C_28
REMARK   10  A    between atoms: N_6  and  C_29
REMARK   11  A    between atoms: C_8  and  C_14
REMARK   12  A    between atoms: C_9  and  C_15
REMARK   13  A    between atoms: C_16  and  C_18
REMARK   14  A    between atoms: C_19  and  C_20
REMARK                            x       y       z     vdW  Elec       q    Type
REMARK                         _______ _______ _______ _____ _____    ______ ____
ROOT
ATOM      2  N   UNL     1      12.248   8.576  19.396  0.00  0.00    -0.298 NA
ATOM      7  C   UNL     1      12.625   8.245  21.948  0.00  0.00    -0.003 C 
ATOM      8  C   UNL     1      13.071   9.657  21.503  0.00  0.00    +0.020 C 
ATOM      9  C   UNL     1      13.025   7.331  19.639  0.00  0.00    +0.074 C 
ATOM     10  C   UNL     1      13.393   7.188  21.133  0.00  0.00    +0.024 C 
ATOM     11  C   UNL     1      12.961   9.746  19.964  0.00  0.00    +0.089 C 
ATOM     12  C   UNL     1      11.135   8.110  21.584  0.00  0.00    +0.019 C 
ATOM     13  C   UNL     1      10.946   8.444  20.093  0.00  0.00    +0.085 C 
ENDROOT
BRANCH   8  14
ATOM     14  C   UNL     1      14.470  10.029  21.990  0.00  0.00    +0.089 C 
BRANCH  14   3
ATOM      3  N   UNL     1      14.411  10.729  23.236  0.00  0.00    -0.304 NA
ATOM     17  C   UNL     1      15.570  11.621  23.412  0.00  0.00    +0.104 C 
BRANCH   3  16
ATOM     16  C   UNL     1      13.171  11.515  23.359  0.00  0.00    +0.099 C 
BRANCH  16  18
ATOM     18  C   UNL     1      12.937  11.953  24.798  0.00  0.00    +0.099 C 
BRANCH  18   5
ATOM      5  N   UNL     1      11.569  11.656  25.202  0.00  0.00    -0.307 NA
ATOM     21  C   UNL     1      10.854  10.958  24.132  0.00  0.00    +0.104 C 
ATOM     22  C   UNL     1      10.859  12.885  25.566  0.00  0.00    +0.104 C 
ENDBRANCH  18   5
ENDBRANCH  16  18
ENDBRANCH   3  16
ENDBRANCH  14   3
ENDBRANCH   8  14
BRANCH   9  15
ATOM     15  C   UNL     1      14.259   7.228  18.738  0.00  0.00    +0.123 C 
BRANCH  15   4
ATOM      1  O   UNL     1      16.594   5.569  18.541  0.00  0.00    -0.270 OA
ATOM      4  N   UNL     1      15.460   7.351  19.504  0.00  0.00    -0.310 N 
ATOM     19  C   UNL     1      16.551   6.498  19.343  0.00  0.00    +0.244 C 
ATOM     30  H   UNL     1      15.469   8.061  20.227  0.00  0.00    +0.149 HD
BRANCH  19  20
ATOM     20  C   UNL     1      17.716   6.742  20.233  0.00  0.00    +0.037 A 
ATOM     23  C   UNL     1      18.810   5.878  20.204  0.00  0.00    +0.015 A 
ATOM     24  C   UNL     1      17.715   7.836  21.098  0.00  0.00    +0.015 A 
ATOM     25  C   UNL     1      19.903   6.106  21.040  0.00  0.00    +0.024 A 
ATOM     26  C   UNL     1      18.808   8.066  21.934  0.00  0.00    +0.024 A 
ATOM     27  C   UNL     1      19.902   7.202  21.905  0.00  0.00    +0.029 A 
BRANCH  27   6
ATOM      6  N   UNL     1      21.006   7.433  22.751  0.00  0.00    -0.336 N 
ATOM     28  C   UNL     1      21.705   6.322  23.366  0.00  0.00    +0.129 C 
ATOM     29  C   UNL     1      21.463   8.785  23.008  0.00  0.00    +0.129 C 
ENDBRANCH  27   6
ENDBRANCH  19  20
ENDBRANCH  15   4
ENDBRANCH   9  15
TORSDOF 9
ENDMDL
MODEL 2
REMARK VINA RESULT:      -6.2      1.820      2.771
REMARK  Name = 28991064
REMARK  14 active torsions:
REMARK  status: ('A' for Active; 'I' for Inactive)
REMARK    1  A    between atoms: N_3  and  C_14
REMARK    2  A    between atoms: N_3  and  C_16
REMARK    3  A    between atoms: N_3  and  C_17
REMARK    4  A    between atoms: N_4  and  C_15
REMARK    5  A    between atoms: N_5  and  C_18
REMARK    6  A    between atoms: N_5  and  C_21
REMARK    7  A    between atoms: N_5  and  C_22
REMARK    8  A    between atoms: N_6  and  C_27
REMARK    9  A    between atoms: N_6  and  C_28
REMARK   10  A    between atoms: N_6  and  C_29
REMARK   11  A    between atoms: C_8  and  C_14
REMARK   12  A    between atoms: C_9  and  C_15
REMARK   13  A    between atoms: C_16  and  C_18
REMARK   14  A    between atoms: C_19  and  C_20
REMARK                            x       y       z     vdW  Elec       q    Type
REMARK                         _______ _______ _______ _____ _____    ______ ____
ROOT
ATOM      2  N   UNL     1      14.466   8.507  19.425  0.00  0.00    -0.298 NA
ATOM      7  C   UNL     1      12.010   7.720  19.769  0.00  0.00    -0.003 C 
ATOM      8  C   UNL     1      12.115   9.260  19.865  0.00  0.00    +0.020 C 
ATOM      9  C   UNL     1      14.410   7.457  20.478  0.00  0.00    +0.074 C 
ATOM     10  C   UNL     1      12.948   7.079  20.808  0.00  0.00    +0.024 C 
ATOM     11  C   UNL     1      13.607   9.656  19.799  0.00  0.00    +0.089 C 
ATOM     12  C   UNL     1      12.533   7.322  18.375  0.00  0.00    +0.019 C 
ATOM     13  C   UNL     1      13.935   7.922  18.170  0.00  0.00    +0.085 C 
ENDROOT
BRANCH   8  14
ATOM     14  C   UNL     1      11.435   9.834  21.105  0.00  0.00    +0.089 C 
BRANCH  14   3
ATOM      3  N   UNL     1      12.201  10.907  21.661  0.00  0.00    -0.304 NA
ATOM     17  C   UNL     1      11.540  12.208  21.454  0.00  0.00    +0.104 C 
BRANCH   3  16
ATOM     16  C   UNL     1      12.445  10.710  23.100  0.00  0.00    +0.099 C 
BRANCH  16  18
ATOM     18  C   UNL     1      11.207  11.043  23.920  0.00  0.00    +0.099 C 
BRANCH  18   5
ATOM      5  N   UNL     1      11.589  11.601  25.211  0.00  0.00    -0.307 NA
ATOM     21  C   UNL     1      10.776  12.776  25.527  0.00  0.00    +0.104 C 
ATOM     22  C   UNL     1      13.011  11.952  25.221  0.00  0.00    +0.104 C 
ENDBRANCH  18   5
ENDBRANCH  16  18
ENDBRANCH   3  16
ENDBRANCH  14   3
ENDBRANCH   8  14
BRANCH   9  15
ATOM     15  C   UNL     1      15.194   7.848  21.734  0.00  0.00    +0.123 C 
BRANCH  15   4
ATOM      1  O   UNL     1      17.732   8.888  20.884  0.00  0.00    -0.270 OA
ATOM      4  N   UNL     1      16.453   7.171  21.779  0.00  0.00    -0.310 N 
ATOM     19  C   UNL     1      17.642   7.753  21.344  0.00  0.00    +0.244 C 
ATOM     30  H   UNL     1      16.440   6.207  22.093  0.00  0.00    +0.149 HD
BRANCH  19  20
ATOM     20  C   UNL     1      18.861   6.909  21.434  0.00  0.00    +0.037 A 
ATOM     23  C   UNL     1      19.690   6.995  22.552  0.00  0.00    +0.015 A 
ATOM     24  C   UNL     1      19.177   6.028  20.400  0.00  0.00    +0.015 A 
ATOM     25  C   UNL     1      20.835   6.203  22.637  0.00  0.00    +0.024 A 
ATOM     26  C   UNL     1      20.322   5.235  20.483  0.00  0.00    +0.024 A 
ATOM     27  C   UNL     1      21.150   5.323  21.601  0.00  0.00    +0.029 A 
BRANCH  27   6
ATOM      6  N   UNL     1      22.308   4.522  21.685  0.00  0.00    -0.336 N 
ATOM     28  C   UNL     1      22.545   3.694  22.851  0.00  0.00    +0.129 C 
ATOM     29  C   UNL     1      23.272   4.508  20.602  0.00  0.00    +0.129 C 
ENDBRANCH  27   6
ENDBRANCH  19  20
ENDBRANCH  15   4
ENDBRANCH   9  15
TORSDOF 9
ENDMDL
MODEL 3
REMARK VINA RESULT:      -5.7     16.785     21.075
REMARK  Name = 28991064
REMARK  14 active torsions:
REMARK  status: ('A' for Active; 'I' for Inactive)
REMARK    1  A    between atoms: N_3  and  C_14
REMARK    2  A    between atoms: N_3  and  C_16
REMARK    3  A    between atoms: N_3  and  C_17
REMARK    4  A    between atoms: N_4  and  C_15
REMARK    5  A    between atoms: N_5  and  C_18
REMARK    6  A    between atoms: N_5  and  C_21
REMARK    7  A    between atoms: N_5  and  C_22
REMARK    8  A    between atoms: N_6  and  C_27
REMARK    9  A    between atoms: N_6  and  C_28
REMARK   10  A    between atoms: N_6  and  C_29
REMARK   11  A    between atoms: C_8  and  C_14
REMARK   12  A    between atoms: C_9  and  C_15
REMARK   13  A    between atoms: C_16  and  C_18
REMARK   14  A    between atoms: C_19  and  C_20
REMARK                            x       y       z     vdW  Elec       q    Type
REMARK                         _______ _______ _______ _____ _____    ______ ____
ROOT
ATOM      2  N   UNL     1      10.227   6.856   7.419  0.00  0.00    -0.298 NA
ATOM      7  C   UNL     1       9.569   5.094   5.622  0.00  0.00    -0.003 C 
ATOM      8  C   UNL     1      10.920   5.760   5.273  0.00  0.00    +0.020 C 
ATOM      9  C   UNL     1       8.846   7.117   6.930  0.00  0.00    +0.074 C 
ATOM     10  C   UNL     1       8.485   6.180   5.757  0.00  0.00    +0.024 C 
ATOM     11  C   UNL     1      11.187   6.893   6.290  0.00  0.00    +0.089 C 
ATOM     12  C   UNL     1       9.736   4.440   7.007  0.00  0.00    +0.019 C 
ATOM     13  C   UNL     1      10.253   5.493   8.004  0.00  0.00    +0.085 C 
ENDROOT
BRANCH   8  14
ATOM     14  C   UNL     1      10.988   6.268   3.834  0.00  0.00    +0.089 C 
BRANCH  14   3
ATOM      3  N   UNL     1      10.479   5.292   2.920  0.00  0.00    -0.304 NA
ATOM     17  C   UNL     1      10.132   5.895   1.621  0.00  0.00    +0.104 C 
BRANCH   3  16
ATOM     16  C   UNL     1      11.440   4.197   2.706  0.00  0.00    +0.099 C 
BRANCH  16  18
ATOM     18  C   UNL     1      12.559   4.622   1.765  0.00  0.00    +0.099 C 
BRANCH  18   5
ATOM      5  N   UNL     1      13.300   3.457   1.300  0.00  0.00    -0.307 NA
ATOM     21  C   UNL     1      14.723   3.589   1.616  0.00  0.00    +0.104 C 
ATOM     22  C   UNL     1      13.117   3.271  -0.142  0.00  0.00    +0.104 C 
ENDBRANCH  18   5
ENDBRANCH  16  18
ENDBRANCH   3  16
ENDBRANCH  14   3
ENDBRANCH   8  14
BRANCH   9  15
ATOM     15  C   UNL     1       8.624   8.589   6.571  0.00  0.00    +0.123 C 
BRANCH  15   4
ATOM      1  O   UNL     1       8.178  10.978   5.041  0.00  0.00    -0.270 OA
ATOM      4  N   UNL     1       7.826   8.710   5.390  0.00  0.00    -0.310 N 
ATOM     19  C   UNL     1       7.663   9.914   4.707  0.00  0.00    +0.244 C 
ATOM     30  H   UNL     1       7.323   7.881   5.094  0.00  0.00    +0.149 HD
BRANCH  19  20
ATOM     20  C   UNL     1       6.782   9.879   3.511  0.00  0.00    +0.037 A 
ATOM     23  C   UNL     1       7.285   9.448   2.284  0.00  0.00    +0.015 A 
ATOM     24  C   UNL     1       5.449  10.278   3.615  0.00  0.00    +0.015 A 
ATOM     25  C   UNL     1       6.459   9.416   1.162  0.00  0.00    +0.024 A 
ATOM     26  C   UNL     1       4.621  10.246   2.493  0.00  0.00    +0.024 A 
ATOM     27  C   UNL     1       5.125   9.815   1.267  0.00  0.00    +0.029 A 
BRANCH  27   6
ATOM      6  N   UNL     1       4.288   9.784   0.132  0.00  0.00    -0.336 N 
ATOM     28  C   UNL     1       4.733   9.144  -1.090  0.00  0.00    +0.129 C 
ATOM     29  C   UNL     1       2.969  10.382   0.176  0.00  0.00    +0.129 C 
ENDBRANCH  27   6
ENDBRANCH  19  20
ENDBRANCH  15   4
ENDBRANCH   9  15
TORSDOF 9
ENDMDL
MODEL 4
REMARK VINA RESULT:      -5.5     13.480     17.406
REMARK  Name = 28991064
REMARK  14 active torsions:
REMARK  status: ('A' for Active; 'I' for Inactive)
REMARK    1  A    between atoms: N_3  and  C_14
REMARK    2  A    between atoms: N_3  and  C_16
REMARK    3  A    between atoms: N_3  and  C_17
REMARK    4  A    between atoms: N_4  and  C_15
REMARK    5  A    between atoms: N_5  and  C_18
REMARK    6  A    between atoms: N_5  and  C_21
REMARK    7  A    between atoms: N_5  and  C_22
REMARK    8  A    between atoms: N_6  and  C_27
REMARK    9  A    between atoms: N_6  and  C_28
REMARK   10  A    between atoms: N_6  and  C_29
REMARK   11  A    between atoms: C_8  and  C_14
REMARK   12  A    between atoms: C_9  and  C_15
REMARK   13  A    between atoms: C_16  and  C_18
REMARK   14  A    between atoms: C_19  and  C_20
REMARK                            x       y       z     vdW  Elec       q    Type
REMARK                         _______ _______ _______ _____ _____    ______ ____
ROOT
ATOM      2  N   UNL     1      10.354   6.519   7.501  0.00  0.00    -0.298 NA
ATOM      7  C   UNL     1       9.517   4.965   5.590  0.00  0.00    -0.003 C 
ATOM      8  C   UNL     1      10.900   5.565   5.247  0.00  0.00    +0.020 C 
ATOM      9  C   UNL     1       8.980   6.914   7.087  0.00  0.00    +0.074 C 
ATOM     10  C   UNL     1       8.518   6.107   5.854  0.00  0.00    +0.024 C 
ATOM     11  C   UNL     1      11.279   6.586   6.344  0.00  0.00    +0.089 C 
ATOM     12  C   UNL     1       9.681   4.186   6.909  0.00  0.00    +0.019 C 
ATOM     13  C   UNL     1      10.302   5.112   7.969  0.00  0.00    +0.085 C 
ENDROOT
BRANCH   8  14
ATOM     14  C   UNL     1      10.959   6.188   3.854  0.00  0.00    +0.089 C 
BRANCH  14   3
ATOM      3  N   UNL     1      10.388   5.313   2.876  0.00  0.00    -0.304 NA
ATOM     17  C   UNL     1      10.117   6.019   1.611  0.00  0.00    +0.104 C 
BRANCH   3  16
ATOM     16  C   UNL     1      11.260   4.156   2.609  0.00  0.00    +0.099 C 
BRANCH  16  18
ATOM     18  C   UNL     1      12.592   4.595   2.018  0.00  0.00    +0.099 C 
BRANCH  18   5
ATOM      5  N   UNL     1      13.291   3.454   1.441  0.00  0.00    -0.307 NA
ATOM     21  C   UNL     1      14.731   3.553   1.683  0.00  0.00    +0.104 C 
ATOM     22  C   UNL     1      13.025   3.359   0.004  0.00  0.00    +0.104 C 
ENDBRANCH  18   5
ENDBRANCH  16  18
ENDBRANCH   3  16
ENDBRANCH  14   3
ENDBRANCH   8  14
BRANCH   9  15
ATOM     15  C   UNL     1       8.852   8.423   6.860  0.00  0.00    +0.123 C 
BRANCH  15   4
ATOM      1  O   UNL     1       9.131  11.273   7.067  0.00  0.00    -0.270 OA
ATOM      4  N   UNL     1       9.364   9.152   7.979  0.00  0.00    -0.310 N 
ATOM     19  C   UNL     1       9.465  10.542   7.996  0.00  0.00    +0.244 C 
ATOM     30  H   UNL     1       9.714   8.604   8.758  0.00  0.00    +0.149 HD
BRANCH  19  20
ATOM     20  C   UNL     1      10.041  11.147   9.224  0.00  0.00    +0.037 A 
ATOM     23  C   UNL     1       9.212  11.474  10.297  0.00  0.00    +0.015 A 
ATOM     24  C   UNL     1      11.412  11.388   9.306  0.00  0.00    +0.015 A 
ATOM     25  C   UNL     1       9.752  12.043  11.450  0.00  0.00    +0.024 A 
ATOM     26  C   UNL     1      11.954  11.956  10.459  0.00  0.00    +0.024 A 
ATOM     27  C   UNL     1      11.125  12.283  11.530  0.00  0.00    +0.029 A 
BRANCH  27   6
ATOM      6  N   UNL     1      11.672  12.859  12.696  0.00  0.00    -0.336 N 
ATOM     28  C   UNL     1      12.784  12.224  13.375  0.00  0.00    +0.129 C 
ATOM     29  C   UNL     1      11.136  14.097  13.224  0.00  0.00    +0.129 C 
ENDBRANCH  27   6
ENDBRANCH  19  20
ENDBRANCH  15   4
ENDBRANCH   9  15
TORSDOF 9
ENDMDL
MODEL 5
REMARK VINA RESULT:      -5.5     28.000     29.924
REMARK  Name = 28991064
REMARK  14 active torsions:
REMARK  status: ('A' for Active; 'I' for Inactive)
REMARK    1  A    between atoms: N_3  and  C_14
REMARK    2  A    between atoms: N_3  and  C_16
REMARK    3  A    between atoms: N_3  and  C_17
REMARK    4  A    between atoms: N_4  and  C_15
REMARK    5  A    between atoms: N_5  and  C_18
REMARK    6  A    between atoms: N_5  and  C_21
REMARK    7  A    between atoms: N_5  and  C_22
REMARK    8  A    between atoms: N_6  and  C_27
REMARK    9  A    between atoms: N_6  and  C_28
REMARK   10  A    between atoms: N_6  and  C_29
REMARK   11  A    between atoms: C_8  and  C_14
REMARK   12  A    between atoms: C_9  and  C_15
REMARK   13  A    between atoms: C_16  and  C_18
REMARK   14  A    between atoms: C_19  and  C_20
REMARK                            x       y       z     vdW  Elec       q    Type
REMARK                         _______ _______ _______ _____ _____    ______ ____
ROOT
ATOM      2  N   UNL     1      -4.415 -12.042  17.862  0.00  0.00    -0.298 NA
ATOM      7  C   UNL     1      -6.281 -10.281  17.433  0.00  0.00    -0.003 C 
ATOM      8  C   UNL     1      -6.726 -11.683  16.959  0.00  0.00    +0.020 C 
ATOM      9  C   UNL     1      -3.859 -10.882  17.115  0.00  0.00    +0.074 C 
ATOM     10  C   UNL     1      -4.975  -9.891  16.716  0.00  0.00    +0.024 C 
ATOM     11  C   UNL     1      -5.533 -12.654  17.103  0.00  0.00    +0.089 C 
ATOM     12  C   UNL     1      -5.960 -10.398  18.936  0.00  0.00    +0.019 C 
ATOM     13  C   UNL     1      -4.951 -11.540  19.151  0.00  0.00    +0.085 C 
ENDROOT
BRANCH   8  14
ATOM     14  C   UNL     1      -7.288 -11.689  15.539  0.00  0.00    +0.089 C 
BRANCH  14   3
ATOM      3  N   UNL     1      -8.357 -10.748  15.405  0.00  0.00    -0.304 NA
ATOM     17  C   UNL     1      -8.354 -10.110  14.077  0.00  0.00    +0.104 C 
BRANCH   3  16
ATOM     16  C   UNL     1      -9.667 -11.379  15.638  0.00  0.00    +0.099 C 
BRANCH  16  18
ATOM     18  C   UNL     1     -10.566 -10.488  16.484  0.00  0.00    +0.099 C 
BRANCH  18   5
ATOM      5  N   UNL     1      -9.769  -9.709  17.422  0.00  0.00    -0.307 NA
ATOM     21  C   UNL     1      -9.817 -10.303  18.759  0.00  0.00    +0.104 C 
ATOM     22  C   UNL     1     -10.236  -8.321  17.468  0.00  0.00    +0.104 C 
ENDBRANCH  18   5
ENDBRANCH  16  18
ENDBRANCH   3  16
ENDBRANCH  14   3
ENDBRANCH   8  14
BRANCH   9  15
ATOM     15  C   UNL     1      -3.023 -11.313  15.907  0.00  0.00    +0.123 C 
BRANCH  15   4
ATOM      1  O   UNL     1      -1.736 -10.936  13.368  0.00  0.00    -0.270 OA
ATOM      4  N   UNL     1      -3.647 -10.907  14.685  0.00  0.00    -0.310 N 
ATOM     19  C   UNL     1      -2.944 -10.748  13.493  0.00  0.00    +0.244 C 
ATOM     30  H   UNL     1      -4.633 -10.677  14.732  0.00  0.00    +0.149 HD
BRANCH  19  20
ATOM     20  C   UNL     1      -3.732 -10.298  12.317  0.00  0.00    +0.037 A 
ATOM     23  C   UNL     1      -5.101 -10.062  12.443  0.00  0.00    +0.015 A 
ATOM     24  C   UNL     1      -3.103 -10.110  11.086  0.00  0.00    +0.015 A 
ATOM     25  C   UNL     1      -5.841  -9.639  11.339  0.00  0.00    +0.024 A 
ATOM     26  C   UNL     1      -3.843  -9.687   9.982  0.00  0.00    +0.024 A 
ATOM     27  C   UNL     1      -5.211  -9.451  10.108  0.00  0.00    +0.029 A 
BRANCH  27   6
ATOM      6  N   UNL     1      -5.959  -9.024   8.991  0.00  0.00    -0.336 N 
ATOM     28  C   UNL     1      -7.022  -8.051   9.148  0.00  0.00    +0.129 C 
ATOM     29  C   UNL     1      -5.668  -9.545   7.670  0.00  0.00    +0.129 C 
ENDBRANCH  27   6
ENDBRANCH  19  20
ENDBRANCH  15   4
ENDBRANCH   9  15
TORSDOF 9
ENDMDL
MODEL 6
REMARK VINA RESULT:      -5.4     15.660     18.913
REMARK  Name = 28991064
REMARK  14 active torsions:
REMARK  status: ('A' for Active; 'I' for Inactive)
REMARK    1  A    between atoms: N_3  and  C_14
REMARK    2  A    between atoms: N_3  and  C_16
REMARK    3  A    between atoms: N_3  and  C_17
REMARK    4  A    between atoms: N_4  and  C_15
REMARK    5  A    between atoms: N_5  and  C_18
REMARK    6  A    between atoms: N_5  and  C_21
REMARK    7  A    between atoms: N_5  and  C_22
REMARK    8  A    between atoms: N_6  and  C_27
REMARK    9  A    between atoms: N_6  and  C_28
REMARK   10  A    between atoms: N_6  and  C_29
REMARK   11  A    between atoms: C_8  and  C_14
REMARK   12  A    between atoms: C_9  and  C_15
REMARK   13  A    between atoms: C_16  and  C_18
REMARK   14  A    between atoms: C_19  and  C_20
REMARK                            x       y       z     vdW  Elec       q    Type
REMARK                         _______ _______ _______ _____ _____    ______ ____
ROOT
ATOM      2  N   UNL     1       9.481   5.629   6.149  0.00  0.00    -0.298 NA
ATOM      7  C   UNL     1       9.872   6.953   3.944  0.00  0.00    -0.003 C 
ATOM      8  C   UNL     1      10.146   5.445   3.738  0.00  0.00    +0.020 C 
ATOM      9  C   UNL     1      10.403   6.771   6.397  0.00  0.00    +0.074 C 
ATOM     10  C   UNL     1      10.771   7.484   5.076  0.00  0.00    +0.024 C 
ATOM     11  C   UNL     1      10.040   4.734   5.107  0.00  0.00    +0.089 C 
ATOM     12  C   UNL     1       8.412   7.082   4.420  0.00  0.00    +0.019 C 
ATOM     13  C   UNL     1       8.198   6.179   5.647  0.00  0.00    +0.085 C 
ENDROOT
BRANCH   8  14
ATOM     14  C   UNL     1      11.484   5.162   3.059  0.00  0.00    +0.089 C 
BRANCH  14   3
ATOM      3  N   UNL     1      11.409   3.987   2.247  0.00  0.00    -0.304 NA
ATOM     17  C   UNL     1      10.352   4.099   1.227  0.00  0.00    +0.104 C 
BRANCH   3  16
ATOM     16  C   UNL     1      12.694   3.703   1.585  0.00  0.00    +0.099 C 
BRANCH  16  18
ATOM     18  C   UNL     1      12.603   3.933   0.083  0.00  0.00    +0.099 C 
BRANCH  18   5
ATOM      5  N   UNL     1      13.713   4.760  -0.371  0.00  0.00    -0.307 NA
ATOM     21  C   UNL     1      14.986   4.058  -0.193  0.00  0.00    +0.104 C 
ATOM     22  C   UNL     1      13.735   6.036   0.347  0.00  0.00    +0.104 C 
ENDBRANCH  18   5
ENDBRANCH  16  18
ENDBRANCH   3  16
ENDBRANCH  14   3
ENDBRANCH   8  14
BRANCH   9  15
ATOM     15  C   UNL     1      11.648   6.355   7.185  0.00  0.00    +0.123 C 
BRANCH  15   4
ATOM      1  O   UNL     1      13.277   8.719   7.241  0.00  0.00    -0.270 OA
ATOM      4  N   UNL     1      12.835   6.592   6.423  0.00  0.00    -0.310 N 
ATOM     19  C   UNL     1      13.568   7.774   6.512  0.00  0.00    +0.244 C 
ATOM     30  H   UNL     1      13.098   5.876   5.755  0.00  0.00    +0.149 HD
BRANCH  19  20
ATOM     20  C   UNL     1      14.764   7.876   5.636  0.00  0.00    +0.037 A 
ATOM     23  C   UNL     1      14.694   7.459   4.307  0.00  0.00    +0.015 A 
ATOM     24  C   UNL     1      15.958   8.390   6.143  0.00  0.00    +0.015 A 
ATOM     25  C   UNL     1      15.817   7.555   3.485  0.00  0.00    +0.024 A 
ATOM     26  C   UNL     1      17.081   8.486   5.321  0.00  0.00    +0.024 A 
ATOM     27  C   UNL     1      17.011   8.069   3.993  0.00  0.00    +0.029 A 
BRANCH  27   6
ATOM      6  N   UNL     1      18.147   8.165   3.162  0.00  0.00    -0.336 N 
ATOM     28  C   UNL     1      19.476   8.209   3.739  0.00  0.00    +0.129 C 
ATOM     29  C   UNL     1      18.000   8.212   1.721  0.00  0.00    +0.129 C 
ENDBRANCH  27   6
ENDBRANCH  19  20
ENDBRANCH  15   4
ENDBRANCH   9  15
TORSDOF 9
ENDMDL
MODEL 7
REMARK VINA RESULT:      -5.3      3.245     10.377
REMARK  Name = 28991064
REMARK  14 active torsions:
REMARK  status: ('A' for Active; 'I' for Inactive)
REMARK    1  A    between atoms: N_3  and  C_14
REMARK    2  A    between atoms: N_3  and  C_16
REMARK    3  A    between atoms: N_3  and  C_17
REMARK    4  A    between atoms: N_4  and  C_15
REMARK    5  A    between atoms: N_5  and  C_18
REMARK    6  A    between atoms: N_5  and  C_21
REMARK    7  A    between atoms: N_5  and  C_22
REMARK    8  A    between atoms: N_6  and  C_27
REMARK    9  A    between atoms: N_6  and  C_28
REMARK   10  A    between atoms: N_6  and  C_29
REMARK   11  A    between atoms: C_8  and  C_14
REMARK   12  A    between atoms: C_9  and  C_15
REMARK   13  A    between atoms: C_16  and  C_18
REMARK   14  A    between atoms: C_19  and  C_20
REMARK                            x       y       z     vdW  Elec       q    Type
REMARK                         _______ _______ _______ _____ _____    ______ ____
ROOT
ATOM      2  N   UNL     1      21.377   7.812  21.041  0.00  0.00    -0.298 NA
ATOM      7  C   UNL     1      22.407   6.240  22.840  0.00  0.00    -0.003 C 
ATOM      8  C   UNL     1      23.189   6.144  21.509  0.00  0.00    +0.020 C 
ATOM      9  C   UNL     1      20.319   6.944  21.626  0.00  0.00    +0.074 C 
ATOM     10  C   UNL     1      20.927   5.899  22.587  0.00  0.00    +0.024 C 
ATOM     11  C   UNL     1      22.450   6.983  20.442  0.00  0.00    +0.089 C 
ATOM     12  C   UNL     1      22.466   7.713  23.288  0.00  0.00    +0.019 C 
ATOM     13  C   UNL     1      21.970   8.612  22.141  0.00  0.00    +0.085 C 
ENDROOT
BRANCH   8  14
ATOM     14  C   UNL     1      23.409   4.707  21.042  0.00  0.00    +0.089 C 
BRANCH  14   3
ATOM      3  N   UNL     1      24.487   4.631  20.105  0.00  0.00    -0.304 NA
ATOM     17  C   UNL     1      25.686   5.330  20.600  0.00  0.00    +0.104 C 
BRANCH   3  16
ATOM     16  C   UNL     1      24.834   3.235  19.790  0.00  0.00    +0.099 C 
BRANCH  16  18
ATOM     18  C   UNL     1      26.056   2.780  20.575  0.00  0.00    +0.099 C 
BRANCH  18   5
ATOM      5  N   UNL     1      25.685   1.753  21.539  0.00  0.00    -0.307 NA
ATOM     21  C   UNL     1      24.379   1.180  21.209  0.00  0.00    +0.104 C 
ATOM     22  C   UNL     1      25.668   2.302  22.897  0.00  0.00    +0.104 C 
ENDBRANCH  18   5
ENDBRANCH  16  18
ENDBRANCH   3  16
ENDBRANCH  14   3
ENDBRANCH   8  14
BRANCH   9  15
ATOM     15  C   UNL     1      19.444   6.290  20.553  0.00  0.00    +0.123 C 
BRANCH  15   4
ATOM      1  O   UNL     1      17.274   5.710  18.763  0.00  0.00    -0.270 OA
ATOM      4  N   UNL     1      18.068   6.635  20.739  0.00  0.00    -0.310 N 
ATOM     19  C   UNL     1      17.075   6.313  19.815  0.00  0.00    +0.244 C 
ATOM     30  H   UNL     1      17.843   7.187  21.559  0.00  0.00    +0.149 HD
BRANCH  19  20
ATOM     20  C   UNL     1      15.698   6.764  20.142  0.00  0.00    +0.037 A 
ATOM     23  C   UNL     1      14.734   6.849  19.138  0.00  0.00    +0.015 A 
ATOM     24  C   UNL     1      15.369   7.102  21.455  0.00  0.00    +0.015 A 
ATOM     25  C   UNL     1      13.441   7.273  19.446  0.00  0.00    +0.024 A 
ATOM     26  C   UNL     1      14.076   7.526  21.763  0.00  0.00    +0.024 A 
ATOM     27  C   UNL     1      13.112   7.611  20.759  0.00  0.00    +0.029 A 
BRANCH  27   6
ATOM      6  N   UNL     1      11.805   8.040  21.071  0.00  0.00    -0.336 N 
ATOM     28  C   UNL     1      11.335   9.339  20.631  0.00  0.00    +0.129 C 
ATOM     29  C   UNL     1      10.912   7.184  21.826  0.00  0.00    +0.129 C 
ENDBRANCH  27   6
ENDBRANCH  19  20
ENDBRANCH  15   4
ENDBRANCH   9  15
TORSDOF 9
ENDMDL
MODEL 8
REMARK VINA RESULT:      -5.3     26.436     28.621
REMARK  Name = 28991064
REMARK  14 active torsions:
REMARK  status: ('A' for Active; 'I' for Inactive)
REMARK    1  A    between atoms: N_3  and  C_14
REMARK    2  A    between atoms: N_3  and  C_16
REMARK    3  A    between atoms: N_3  and  C_17
REMARK    4  A    between atoms: N_4  and  C_15
REMARK    5  A    between atoms: N_5  and  C_18
REMARK    6  A    between atoms: N_5  and  C_21
REMARK    7  A    between atoms: N_5  and  C_22
REMARK    8  A    between atoms: N_6  and  C_27
REMARK    9  A    between atoms: N_6  and  C_28
REMARK   10  A    between atoms: N_6  and  C_29
REMARK   11  A    between atoms: C_8  and  C_14
REMARK   12  A    between atoms: C_9  and  C_15
REMARK   13  A    between atoms: C_16  and  C_18
REMARK   14  A    between atoms: C_19  and  C_20
REMARK                            x       y       z     vdW  Elec       q    Type
REMARK                         _______ _______ _______ _____ _____    ______ ____
ROOT
ATOM      2  N   UNL     1     -10.250  10.315  16.619  0.00  0.00    -0.298 NA
ATOM      7  C   UNL     1     -12.815  10.744  16.673  0.00  0.00    -0.003 C 
ATOM      8  C   UNL     1     -12.135  11.305  17.943  0.00  0.00    +0.020 C 
ATOM      9  C   UNL     1     -10.984   9.044  16.377  0.00  0.00    +0.074 C 
ATOM     10  C   UNL     1     -12.507   9.240  16.552  0.00  0.00    +0.024 C 
ATOM     11  C   UNL     1     -10.645  10.896  17.925  0.00  0.00    +0.089 C 
ATOM     12  C   UNL     1     -12.159  11.443  15.467  0.00  0.00    +0.019 C 
ATOM     13  C   UNL     1     -10.632  11.272  15.553  0.00  0.00    +0.085 C 
ENDROOT
BRANCH   8  14
ATOM     14  C   UNL     1     -12.822  10.872  19.236  0.00  0.00    +0.089 C 
BRANCH  14   3
ATOM      3  N   UNL     1     -12.387  11.670  20.341  0.00  0.00    -0.304 NA
ATOM     17  C   UNL     1     -13.258  12.842  20.539  0.00  0.00    +0.104 C 
BRANCH   3  16
ATOM     16  C   UNL     1     -12.335  10.888  21.588  0.00  0.00    +0.099 C 
BRANCH  16  18
ATOM     18  C   UNL     1     -12.895  11.681  22.760  0.00  0.00    +0.099 C 
BRANCH  18   5
ATOM      5  N   UNL     1     -13.698  10.819  23.617  0.00  0.00    -0.307 NA
ATOM     21  C   UNL     1     -13.091  10.701  24.945  0.00  0.00    +0.104 C 
ATOM     22  C   UNL     1     -13.856   9.493  23.014  0.00  0.00    +0.104 C 
ENDBRANCH  18   5
ENDBRANCH  16  18
ENDBRANCH   3  16
ENDBRANCH  14   3
ENDBRANCH   8  14
BRANCH   9  15
ATOM     15  C   UNL     1     -10.457   7.893  17.238  0.00  0.00    +0.123 C 
BRANCH  15   4
ATOM      1  O   UNL     1     -10.597   8.210  20.088  0.00  0.00    -0.270 OA
ATOM      4  N   UNL     1     -11.480   7.393  18.103  0.00  0.00    -0.310 N 
ATOM     19  C   UNL     1     -11.470   7.594  19.482  0.00  0.00    +0.244 C 
ATOM     30  H   UNL     1     -12.201   6.824  17.674  0.00  0.00    +0.149 HD
BRANCH  19  20
ATOM     20  C   UNL     1     -12.593   6.991  20.245  0.00  0.00    +0.037 A 
ATOM     23  C   UNL     1     -13.908   7.357  19.960  0.00  0.00    +0.015 A 
ATOM     24  C   UNL     1     -12.332   6.056  21.247  0.00  0.00    +0.015 A 
ATOM     25  C   UNL     1     -14.962   6.791  20.677  0.00  0.00    +0.024 A 
ATOM     26  C   UNL     1     -13.386   5.488  21.964  0.00  0.00    +0.024 A 
ATOM     27  C   UNL     1     -14.700   5.855  21.679  0.00  0.00    +0.029 A 
BRANCH  27   6
ATOM      6  N   UNL     1     -15.766   5.282  22.404  0.00  0.00    -0.336 N 
ATOM     28  C   UNL     1     -15.637   5.038  23.827  0.00  0.00    +0.129 C 
ATOM     29  C   UNL     1     -17.006   4.940  21.738  0.00  0.00    +0.129 C 
ENDBRANCH  27   6
ENDBRANCH  19  20
ENDBRANCH  15   4
ENDBRANCH   9  15
TORSDOF 9
ENDMDL
MODEL 9
REMARK VINA RESULT:      -5.3     27.417     30.995
REMARK  Name = 28991064
REMARK  14 active torsions:
REMARK  status: ('A' for Active; 'I' for Inactive)
REMARK    1  A    between atoms: N_3  and  C_14
REMARK    2  A    between atoms: N_3  and  C_16
REMARK    3  A    between atoms: N_3  and  C_17
REMARK    4  A    between atoms: N_4  and  C_15
REMARK    5  A    between atoms: N_5  and  C_18
REMARK    6  A    between atoms: N_5  and  C_21
REMARK    7  A    between atoms: N_5  and  C_22
REMARK    8  A    between atoms: N_6  and  C_27
REMARK    9  A    between atoms: N_6  and  C_28
REMARK   10  A    between atoms: N_6  and  C_29
REMARK   11  A    between atoms: C_8  and  C_14
REMARK   12  A    between atoms: C_9  and  C_15
REMARK   13  A    between atoms: C_16  and  C_18
REMARK   14  A    between atoms: C_19  and  C_20
REMARK                            x       y       z     vdW  Elec       q    Type
REMARK                         _______ _______ _______ _____ _____    ______ ____
ROOT
ATOM      2  N   UNL     1     -12.312   9.717  34.203  0.00  0.00    -0.298 NA
ATOM      7  C   UNL     1     -11.446   9.342  31.779  0.00  0.00    -0.003 C 
ATOM      8  C   UNL     1     -12.459  10.509  31.828  0.00  0.00    +0.020 C 
ATOM      9  C   UNL     1     -12.474   8.289  33.819  0.00  0.00    +0.074 C 
ATOM     10  C   UNL     1     -12.108   8.068  32.334  0.00  0.00    +0.024 C 
ATOM     11  C   UNL     1     -13.046  10.591  33.256  0.00  0.00    +0.089 C 
ATOM     12  C   UNL     1     -10.292   9.711  32.731  0.00  0.00    +0.019 C 
ATOM     13  C   UNL     1     -10.869  10.051  34.117  0.00  0.00    +0.085 C 
ENDROOT
BRANCH   8  14
ATOM     14  C   UNL     1     -13.558  10.398  30.774  0.00  0.00    +0.089 C 
BRANCH  14   3
ATOM      3  N   UNL     1     -13.317  11.294  29.685  0.00  0.00    -0.304 NA
ATOM     17  C   UNL     1     -12.378  12.366  30.063  0.00  0.00    +0.104 C 
BRANCH   3  16
ATOM     16  C   UNL     1     -12.793  10.585  28.505  0.00  0.00    +0.099 C 
BRANCH  16  18
ATOM     18  C   UNL     1     -12.459  11.556  27.381  0.00  0.00    +0.099 C 
BRANCH  18   5
ATOM      5  N   UNL     1     -11.324  11.067  26.609  0.00  0.00    -0.307 NA
ATOM     21  C   UNL     1     -11.662  10.991  25.187  0.00  0.00    +0.104 C 
ATOM     22  C   UNL     1     -10.895   9.754  27.098  0.00  0.00    +0.104 C 
ENDBRANCH  18   5
ENDBRANCH  16  18
ENDBRANCH   3  16
ENDBRANCH  14   3
ENDBRANCH   8  14
BRANCH   9  15
ATOM     15  C   UNL     1     -13.870   7.752  34.146  0.00  0.00    +0.123 C 
BRANCH  15   4
ATOM      1  O   UNL     1     -14.160   5.100  35.208  0.00  0.00    -0.270 OA
ATOM      4  N   UNL     1     -14.144   6.561  33.404  0.00  0.00    -0.310 N 
ATOM     19  C   UNL     1     -14.270   5.308  34.002  0.00  0.00    +0.244 C 
ATOM     30  H   UNL     1     -14.187   6.652  32.395  0.00  0.00    +0.149 HD
BRANCH  19  20
ATOM     20  C   UNL     1     -14.530   4.164  33.090  0.00  0.00    +0.037 A 
ATOM     23  C   UNL     1     -14.651   2.874  33.605  0.00  0.00    +0.015 A 
ATOM     24  C   UNL     1     -14.654   4.381  31.718  0.00  0.00    +0.015 A 
ATOM     25  C   UNL     1     -14.896   1.800  32.749  0.00  0.00    +0.024 A 
ATOM     26  C   UNL     1     -14.899   3.308  30.861  0.00  0.00    +0.024 A 
ATOM     27  C   UNL     1     -15.020   2.018  31.376  0.00  0.00    +0.029 A 
BRANCH  27   6
ATOM      6  N   UNL     1     -15.266   0.933  30.510  0.00  0.00    -0.336 N 
ATOM     28  C   UNL     1     -16.227   1.057  29.432  0.00  0.00    +0.129 C 
ATOM     29  C   UNL     1     -14.554  -0.318  30.680  0.00  0.00    +0.129 C 
ENDBRANCH  27   6
ENDBRANCH  19  20
ENDBRANCH  15   4
ENDBRANCH   9  15
TORSDOF 9
ENDMDL
MODEL 10
REMARK VINA RESULT:      -5.2      3.082      9.631
REMARK  Name = 28991064
REMARK  14 active torsions:
REMARK  status: ('A' for Active; 'I' for Inactive)
REMARK    1  A    between atoms: N_3  and  C_14
REMARK    2  A    between atoms: N_3  and  C_16
REMARK    3  A    between atoms: N_3  and  C_17
REMARK    4  A    between atoms: N_4  and  C_15
REMARK    5  A    between atoms: N_5  and  C_18
REMARK    6  A    between atoms: N_5  and  C_21
REMARK    7  A    between atoms: N_5  and  C_22
REMARK    8  A    between atoms: N_6  and  C_27
REMARK    9  A    between atoms: N_6  and  C_28
REMARK   10  A    between atoms: N_6  and  C_29
REMARK   11  A    between atoms: C_8  and  C_14
REMARK   12  A    between atoms: C_9  and  C_15
REMARK   13  A    between atoms: C_16  and  C_18
REMARK   14  A    between atoms: C_19  and  C_20
REMARK                            x       y       z     vdW  Elec       q    Type
REMARK                         _______ _______ _______ _____ _____    ______ ____
ROOT
ATOM      2  N   UNL     1      20.878   8.090  20.923  0.00  0.00    -0.298 NA
ATOM      7  C   UNL     1      22.948   8.142  22.497  0.00  0.00    -0.003 C 
ATOM      8  C   UNL     1      23.228   7.278  21.246  0.00  0.00    +0.020 C 
ATOM      9  C   UNL     1      20.476   7.717  22.307  0.00  0.00    +0.074 C 
ATOM     10  C   UNL     1      21.709   7.594  23.229  0.00  0.00    +0.024 C 
ATOM     11  C   UNL     1      21.924   7.164  20.425  0.00  0.00    +0.089 C 
ATOM     12  C   UNL     1      22.594   9.555  21.995  0.00  0.00    +0.019 C 
ATOM     13  C   UNL     1      21.452   9.456  20.968  0.00  0.00    +0.085 C 
ENDROOT
BRANCH   8  14
ATOM     14  C   UNL     1      23.805   5.904  21.580  0.00  0.00    +0.089 C 
BRANCH  14   3
ATOM      3  N   UNL     1      23.284   4.902  20.702  0.00  0.00    -0.304 NA
ATOM     17  C   UNL     1      24.361   4.191  19.990  0.00  0.00    +0.104 C 
BRANCH   3  16
ATOM     16  C   UNL     1      22.454   3.924  21.426  0.00  0.00    +0.099 C 
BRANCH  16  18
ATOM     18  C   UNL     1      22.745   3.953  22.920  0.00  0.00    +0.099 C 
BRANCH  18   5
ATOM      5  N   UNL     1      23.320   2.685  23.349  0.00  0.00    -0.307 NA
ATOM     21  C   UNL     1      22.700   2.231  24.595  0.00  0.00    +0.104 C 
ATOM     22  C   UNL     1      24.769   2.806  23.520  0.00  0.00    +0.104 C 
ENDBRANCH  18   5
ENDBRANCH  16  18
ENDBRANCH   3  16
ENDBRANCH  14   3
ENDBRANCH   8  14
BRANCH   9  15
ATOM     15  C   UNL     1      19.611   6.454  22.342  0.00  0.00    +0.123 C 
BRANCH  15   4
ATOM      1  O   UNL     1      18.351   5.766  19.855  0.00  0.00    -0.270 OA
ATOM      4  N   UNL     1      18.265   6.748  21.957  0.00  0.00    -0.310 N 
ATOM     19  C   UNL     1      17.732   6.375  20.724  0.00  0.00    +0.244 C 
ATOM     30  H   UNL     1      17.717   7.302  22.605  0.00  0.00    +0.149 HD
BRANCH  19  20
ATOM     20  C   UNL     1      16.325   6.776  20.466  0.00  0.00    +0.037 A 
ATOM     23  C   UNL     1      15.484   7.100  21.530  0.00  0.00    +0.015 A 
ATOM     24  C   UNL     1      15.845   6.831  19.157  0.00  0.00    +0.015 A 
ATOM     25  C   UNL     1      14.163   7.476  21.287  0.00  0.00    +0.024 A 
ATOM     26  C   UNL     1      14.524   7.207  18.913  0.00  0.00    +0.024 A 
ATOM     27  C   UNL     1      13.684   7.530  19.977  0.00  0.00    +0.029 A 
BRANCH  27   6
ATOM      6  N   UNL     1      12.348   7.911  19.730  0.00  0.00    -0.336 N 
ATOM     28  C   UNL     1      11.942   8.352  18.411  0.00  0.00    +0.129 C 
ATOM     29  C   UNL     1      11.362   7.855  20.791  0.00  0.00    +0.129 C 
ENDBRANCH  27   6
ENDBRANCH  19  20
ENDBRANCH  15   4
ENDBRANCH   9  15
TORSDOF 9
ENDMDL
