MODEL 1
REMARK VINA RESULT:      -7.3      0.000      0.000
REMARK  Name = 26742987
REMARK  9 active torsions:
REMARK  status: ('A' for Active; 'I' for Inactive)
REMARK    1  A    between atoms: N_5  and  C_22
REMARK    2  A    between atoms: C_7  and  C_11
REMARK    3  A    between atoms: C_8  and  C_13
REMARK    4  A    between atoms: C_11  and  C_14
REMARK    5  A    between atoms: C_13  and  C_15
REMARK    6  A    between atoms: C_21  and  C_23
REMARK    7  A    between atoms: C_23  and  C_26
REMARK    8  A    between atoms: C_26  and  C_27
REMARK    9  A    between atoms: C_27  and  C_31
REMARK                            x       y       z     vdW  Elec       q    Type
REMARK                         _______ _______ _______ _____ _____    ______ ____
ROOT
ATOM      3  N   UNL     1       9.936   7.377  21.993  0.00  0.00    -0.316 NA
ATOM      7  C   UNL     1      12.308   8.866  21.065  0.00  0.00    +0.004 C 
ATOM      8  C   UNL     1      11.720   7.663  20.290  0.00  0.00    +0.012 C 
ATOM      9  C   UNL     1      11.202   9.497  21.928  0.00  0.00    +0.019 C 
ATOM     10  C   UNL     1      10.976   6.694  21.225  0.00  0.00    +0.085 C 
ATOM     12  C   UNL     1      10.482   8.468  22.799  0.00  0.00    +0.081 C 
ATOM     32  H   UNL     1       9.473   6.706  22.607  0.00  0.00    +0.122 HD
ENDROOT
BRANCH   7  11
ATOM     11  C   UNL     1      13.534   8.519  21.919  0.00  0.00    +0.100 C 
BRANCH  11  14
ATOM      1  O   UNL     1      14.594  10.576  21.388  0.00  0.00    -0.276 OA
ATOM      4  N   UNL     1      15.898   8.659  21.229  0.00  0.00    -0.298 N 
ATOM      5  N   UNL     1      18.455   7.350  20.870  0.00  0.00    -0.327 N 
ATOM     14  C   UNL     1      14.716   9.353  21.491  0.00  0.00    +0.216 C 
ATOM     16  C   UNL     1      17.086   9.396  20.804  0.00  0.00    +0.126 C 
ATOM     17  C   UNL     1      16.045   7.208  21.362  0.00  0.00    +0.126 C 
ATOM     18  C   UNL     1      18.372   8.746  21.311  0.00  0.00    +0.124 C 
ATOM     19  C   UNL     1      17.209   6.653  20.541  0.00  0.00    +0.124 C 
BRANCH   5  22
ATOM     22  C   UNL     1      19.689   6.720  20.733  0.00  0.00    +0.030 A 
ATOM     24  C   UNL     1      19.752   5.333  20.594  0.00  0.00    +0.023 A 
ATOM     25  C   UNL     1      20.862   7.474  20.735  0.00  0.00    +0.023 A 
ATOM     28  C   UNL     1      20.988   4.700  20.457  0.00  0.00    +0.002 A 
ATOM     29  C   UNL     1      22.097   6.843  20.598  0.00  0.00    +0.002 A 
ATOM     30  C   UNL     1      22.161   5.456  20.458  0.00  0.00    +0.000 A 
ENDBRANCH   5  22
ENDBRANCH  11  14
ENDBRANCH   7  11
BRANCH   8  13
ATOM     13  C   UNL     1      12.764   6.915  19.461  0.00  0.00    +0.064 C 
BRANCH  13  15
ATOM      2  O   UNL     1      12.590   8.330  16.155  0.00  0.00    -0.359 OA
ATOM      6  N   UNL     1      12.040   7.637  17.227  0.00  0.00    -0.083 NA
ATOM     15  C   UNL     1      13.009   7.597  18.146  0.00  0.00    +0.084 A 
ATOM     20  C   UNL     1      14.182   8.241  17.715  0.00  0.00    +0.071 A 
ATOM     21  C   UNL     1      13.865   8.683  16.457  0.00  0.00    +0.138 A 
BRANCH  21  23
ATOM     23  C   UNL     1      14.601   9.427  15.427  0.00  0.00    +0.077 C 
BRANCH  23  26
ATOM     26  C   UNL     1      14.100  10.879  15.254  0.00  0.00    +0.007 C 
BRANCH  26  27
ATOM     27  C   UNL     1      14.671  11.826  16.308  0.00  0.00    -0.003 C 
ATOM     31  C   UNL     1      16.076  12.283  15.946  0.00  0.00    +0.004 C 
ENDBRANCH  26  27
ENDBRANCH  23  26
ENDBRANCH  21  23
ENDBRANCH  13  15
ENDBRANCH   8  13
TORSDOF 8
ENDMDL
MODEL 2
REMARK VINA RESULT:      -6.3     26.552     30.988
REMARK  Name = 26742987
REMARK  9 active torsions:
REMARK  status: ('A' for Active; 'I' for Inactive)
REMARK    1  A    between atoms: N_5  and  C_22
REMARK    2  A    between atoms: C_7  and  C_11
REMARK    3  A    between atoms: C_8  and  C_13
REMARK    4  A    between atoms: C_11  and  C_14
REMARK    5  A    between atoms: C_13  and  C_15
REMARK    6  A    between atoms: C_21  and  C_23
REMARK    7  A    between atoms: C_23  and  C_26
REMARK    8  A    between atoms: C_26  and  C_27
REMARK    9  A    between atoms: C_27  and  C_31
REMARK                            x       y       z     vdW  Elec       q    Type
REMARK                         _______ _______ _______ _____ _____    ______ ____
ROOT
ATOM      3  N   UNL     1      -6.082 -14.247  17.511  0.00  0.00    -0.316 NA
ATOM      7  C   UNL     1      -6.618 -11.476  16.652  0.00  0.00    +0.004 C 
ATOM      8  C   UNL     1      -5.187 -12.044  16.795  0.00  0.00    +0.012 C 
ATOM      9  C   UNL     1      -7.598 -12.637  16.411  0.00  0.00    +0.019 C 
ATOM     10  C   UNL     1      -5.129 -13.183  17.827  0.00  0.00    +0.085 C 
ATOM     12  C   UNL     1      -7.454 -13.748  17.451  0.00  0.00    +0.081 C 
ATOM     32  H   UNL     1      -6.020 -14.977  18.221  0.00  0.00    +0.122 HD
ENDROOT
BRANCH   7  11
ATOM     11  C   UNL     1      -7.072 -10.618  17.840  0.00  0.00    +0.100 C 
BRANCH  11  14
ATOM      1  O   UNL     1      -8.160  -9.014  16.469  0.00  0.00    -0.276 OA
ATOM      4  N   UNL     1      -9.395  -9.890  18.232  0.00  0.00    -0.298 N 
ATOM      5  N   UNL     1     -11.887 -10.225  19.667  0.00  0.00    -0.327 N 
ATOM     14  C   UNL     1      -8.251  -9.765  17.443  0.00  0.00    +0.216 C 
ATOM     16  C   UNL     1     -10.578  -9.093  17.915  0.00  0.00    +0.126 C 
ATOM     17  C   UNL     1      -9.506 -10.791  19.381  0.00  0.00    +0.126 C 
ATOM     18  C   UNL     1     -11.871  -9.831  18.255  0.00  0.00    +0.124 C 
ATOM     19  C   UNL     1     -10.604 -10.372  20.359  0.00  0.00    +0.124 C 
BRANCH   5  22
ATOM     22  C   UNL     1     -13.091 -10.417  20.338  0.00  0.00    +0.030 A 
ATOM     24  C   UNL     1     -14.056  -9.409  20.342  0.00  0.00    +0.023 A 
ATOM     25  C   UNL     1     -13.335 -11.617  21.006  0.00  0.00    +0.023 A 
ATOM     28  C   UNL     1     -15.263  -9.600  21.014  0.00  0.00    +0.002 A 
ATOM     29  C   UNL     1     -14.542 -11.809  21.677  0.00  0.00    +0.002 A 
ATOM     30  C   UNL     1     -15.506 -10.801  21.681  0.00  0.00    +0.000 A 
ENDBRANCH   5  22
ENDBRANCH  11  14
ENDBRANCH   7  11
BRANCH   8  13
ATOM     13  C   UNL     1      -4.146 -10.972  17.119  0.00  0.00    +0.064 C 
BRANCH  13  15
ATOM      2  O   UNL     1      -1.283 -10.513  14.986  0.00  0.00    -0.359 OA
ATOM      6  N   UNL     1      -1.875 -10.665  16.234  0.00  0.00    -0.083 NA
ATOM     15  C   UNL     1      -3.182 -10.786  15.983  0.00  0.00    +0.084 A 
ATOM     20  C   UNL     1      -3.471 -10.718  14.610  0.00  0.00    +0.071 A 
ATOM     21  C   UNL     1      -2.243 -10.545  14.027  0.00  0.00    +0.138 A 
BRANCH  21  23
ATOM     23  C   UNL     1      -1.788 -10.396  12.639  0.00  0.00    +0.077 C 
BRANCH  23  26
ATOM     26  C   UNL     1      -2.950 -10.359  11.622  0.00  0.00    +0.007 C 
BRANCH  26  27
ATOM     27  C   UNL     1      -2.706  -9.366  10.486  0.00  0.00    -0.003 C 
ATOM     31  C   UNL     1      -4.010  -8.918   9.847  0.00  0.00    +0.004 C 
ENDBRANCH  26  27
ENDBRANCH  23  26
ENDBRANCH  21  23
ENDBRANCH  13  15
ENDBRANCH   8  13
TORSDOF 8
ENDMDL
MODEL 3
REMARK VINA RESULT:      -6.2      3.985     10.343
REMARK  Name = 26742987
REMARK  9 active torsions:
REMARK  status: ('A' for Active; 'I' for Inactive)
REMARK    1  A    between atoms: N_5  and  C_22
REMARK    2  A    between atoms: C_7  and  C_11
REMARK    3  A    between atoms: C_8  and  C_13
REMARK    4  A    between atoms: C_11  and  C_14
REMARK    5  A    between atoms: C_13  and  C_15
REMARK    6  A    between atoms: C_21  and  C_23
REMARK    7  A    between atoms: C_23  and  C_26
REMARK    8  A    between atoms: C_26  and  C_27
REMARK    9  A    between atoms: C_27  and  C_31
REMARK                            x       y       z     vdW  Elec       q    Type
REMARK                         _______ _______ _______ _____ _____    ______ ____
ROOT
ATOM      3  N   UNL     1      22.539   7.682  23.454  0.00  0.00    -0.316 NA
ATOM      7  C   UNL     1      20.483   6.154  21.990  0.00  0.00    +0.004 C 
ATOM      8  C   UNL     1      21.998   5.908  21.802  0.00  0.00    +0.012 C 
ATOM      9  C   UNL     1      20.242   6.775  23.376  0.00  0.00    +0.019 C 
ATOM     10  C   UNL     1      22.820   7.170  22.113  0.00  0.00    +0.085 C 
ATOM     12  C   UNL     1      21.122   7.999  23.628  0.00  0.00    +0.081 C 
ATOM     32  H   UNL     1      23.094   8.522  23.618  0.00  0.00    +0.122 HD
ENDROOT
BRANCH   7  11
ATOM     11  C   UNL     1      19.848   7.013  20.890  0.00  0.00    +0.100 C 
BRANCH  11  14
ATOM      1  O   UNL     1      18.862   5.204  19.710  0.00  0.00    -0.276 OA
ATOM      4  N   UNL     1      17.437   6.910  20.385  0.00  0.00    -0.298 N 
ATOM      5  N   UNL     1      14.782   8.008  20.745  0.00  0.00    -0.327 N 
ATOM     14  C   UNL     1      18.679   6.286  20.274  0.00  0.00    +0.216 C 
ATOM     16  C   UNL     1      16.256   6.271  19.809  0.00  0.00    +0.126 C 
ATOM     17  C   UNL     1      17.218   8.190  21.064  0.00  0.00    +0.126 C 
ATOM     18  C   UNL     1      14.995   6.562  20.621  0.00  0.00    +0.124 C 
ATOM     19  C   UNL     1      15.941   8.893  20.606  0.00  0.00    +0.124 C 
BRANCH   5  22
ATOM     22  C   UNL     1      13.505   8.522  20.952  0.00  0.00    +0.030 A 
ATOM     24  C   UNL     1      13.323   9.619  21.795  0.00  0.00    +0.023 A 
ATOM     25  C   UNL     1      12.407   7.943  20.317  0.00  0.00    +0.023 A 
ATOM     28  C   UNL     1      12.044  10.136  22.003  0.00  0.00    +0.002 A 
ATOM     29  C   UNL     1      11.128   8.459  20.524  0.00  0.00    +0.002 A 
ATOM     30  C   UNL     1      10.947   9.556  21.367  0.00  0.00    +0.000 A 
ENDBRANCH   5  22
ENDBRANCH  11  14
ENDBRANCH   7  11
BRANCH   8  13
ATOM     13  C   UNL     1      22.351   5.364  20.418  0.00  0.00    +0.064 C 
BRANCH  13  15
ATOM      2  O   UNL     1      24.934   2.867  20.201  0.00  0.00    -0.359 OA
ATOM      6  N   UNL     1      24.409   4.121  19.915  0.00  0.00    -0.083 NA
ATOM     15  C   UNL     1      23.215   4.141  20.514  0.00  0.00    +0.084 A 
ATOM     20  C   UNL     1      22.936   2.939  21.187  0.00  0.00    +0.071 A 
ATOM     21  C   UNL     1      24.048   2.172  20.959  0.00  0.00    +0.138 A 
BRANCH  21  23
ATOM     23  C   UNL     1      24.446   0.816  21.354  0.00  0.00    +0.077 C 
BRANCH  23  26
ATOM     26  C   UNL     1      25.285   0.784  22.652  0.00  0.00    +0.007 C 
BRANCH  26  27
ATOM     27  C   UNL     1      24.563   1.428  23.834  0.00  0.00    -0.003 C 
ATOM     31  C   UNL     1      23.632   0.443  24.523  0.00  0.00    +0.004 C 
ENDBRANCH  26  27
ENDBRANCH  23  26
ENDBRANCH  21  23
ENDBRANCH  13  15
ENDBRANCH   8  13
TORSDOF 8
ENDMDL
MODEL 4
REMARK VINA RESULT:      -6.0     26.655     30.106
REMARK  Name = 26742987
REMARK  9 active torsions:
REMARK  status: ('A' for Active; 'I' for Inactive)
REMARK    1  A    between atoms: N_5  and  C_22
REMARK    2  A    between atoms: C_7  and  C_11
REMARK    3  A    between atoms: C_8  and  C_13
REMARK    4  A    between atoms: C_11  and  C_14
REMARK    5  A    between atoms: C_13  and  C_15
REMARK    6  A    between atoms: C_21  and  C_23
REMARK    7  A    between atoms: C_23  and  C_26
REMARK    8  A    between atoms: C_26  and  C_27
REMARK    9  A    between atoms: C_27  and  C_31
REMARK                            x       y       z     vdW  Elec       q    Type
REMARK                         _______ _______ _______ _____ _____    ______ ____
ROOT
ATOM      3  N   UNL     1     -13.725  -9.757  17.960  0.00  0.00    -0.316 NA
ATOM      7  C   UNL     1     -10.870  -9.540  18.672  0.00  0.00    +0.004 C 
ATOM      8  C   UNL     1     -11.515  -8.704  17.541  0.00  0.00    +0.012 C 
ATOM      9  C   UNL     1     -11.959  -9.952  19.676  0.00  0.00    +0.019 C 
ATOM     10  C   UNL     1     -12.737  -9.416  16.936  0.00  0.00    +0.085 C 
ATOM     12  C   UNL     1     -13.158 -10.615  18.998  0.00  0.00    +0.081 C 
ATOM     32  H   UNL     1     -14.513 -10.234  17.523  0.00  0.00    +0.122 HD
ENDROOT
BRANCH   7  11
ATOM     11  C   UNL     1     -10.092 -10.766  18.177  0.00  0.00    +0.100 C 
BRANCH  11  14
ATOM      1  O   UNL     1      -8.739 -11.061  20.105  0.00  0.00    -0.276 OA
ATOM      4  N   UNL     1      -7.629 -10.704  18.095  0.00  0.00    -0.298 N 
ATOM      5  N   UNL     1      -5.205 -10.611  16.514  0.00  0.00    -0.327 N 
ATOM     14  C   UNL     1      -8.766 -10.860  18.888  0.00  0.00    +0.216 C 
ATOM     16  C   UNL     1      -6.306 -10.777  18.711  0.00  0.00    +0.126 C 
ATOM     17  C   UNL     1      -7.661 -10.477  16.648  0.00  0.00    +0.126 C 
ATOM     18  C   UNL     1      -5.267 -11.375  17.764  0.00  0.00    +0.124 C 
ATOM     19  C   UNL     1      -6.380  -9.830  16.121  0.00  0.00    +0.124 C 
BRANCH   5  22
ATOM     22  C   UNL     1      -4.045 -10.601  15.745  0.00  0.00    +0.030 A 
ATOM     24  C   UNL     1      -2.795 -10.595  16.366  0.00  0.00    +0.023 A 
ATOM     25  C   UNL     1      -4.130 -10.597  14.353  0.00  0.00    +0.023 A 
ATOM     28  C   UNL     1      -1.632 -10.585  15.596  0.00  0.00    +0.002 A 
ATOM     29  C   UNL     1      -2.968 -10.587  13.582  0.00  0.00    +0.002 A 
ATOM     30  C   UNL     1      -1.719 -10.582  14.204  0.00  0.00    +0.000 A 
ENDBRANCH   5  22
ENDBRANCH  11  14
ENDBRANCH   7  11
BRANCH   8  13
ATOM     13  C   UNL     1     -10.524  -8.313  16.445  0.00  0.00    +0.064 C 
BRANCH  13  15
ATOM      2  O   UNL     1     -12.015  -6.906  13.485  0.00  0.00    -0.359 OA
ATOM      6  N   UNL     1     -11.416  -7.947  14.185  0.00  0.00    -0.083 NA
ATOM     15  C   UNL     1     -11.174  -7.451  15.402  0.00  0.00    +0.084 A 
ATOM     20  C   UNL     1     -11.595  -6.116  15.527  0.00  0.00    +0.071 A 
ATOM     21  C   UNL     1     -12.116  -5.822  14.295  0.00  0.00    +0.138 A 
BRANCH  21  23
ATOM     23  C   UNL     1     -12.729  -4.623  13.711  0.00  0.00    +0.077 C 
BRANCH  23  26
ATOM     26  C   UNL     1     -12.542  -4.531  12.179  0.00  0.00    +0.007 C 
BRANCH  26  27
ATOM     27  C   UNL     1     -13.319  -3.369  11.561  0.00  0.00    -0.003 C 
ATOM     31  C   UNL     1     -13.453  -3.527  10.055  0.00  0.00    +0.004 C 
ENDBRANCH  26  27
ENDBRANCH  23  26
ENDBRANCH  21  23
ENDBRANCH  13  15
ENDBRANCH   8  13
TORSDOF 8
ENDMDL
MODEL 5
REMARK VINA RESULT:      -5.9     28.232     31.254
REMARK  Name = 26742987
REMARK  9 active torsions:
REMARK  status: ('A' for Active; 'I' for Inactive)
REMARK    1  A    between atoms: N_5  and  C_22
REMARK    2  A    between atoms: C_7  and  C_11
REMARK    3  A    between atoms: C_8  and  C_13
REMARK    4  A    between atoms: C_11  and  C_14
REMARK    5  A    between atoms: C_13  and  C_15
REMARK    6  A    between atoms: C_21  and  C_23
REMARK    7  A    between atoms: C_23  and  C_26
REMARK    8  A    between atoms: C_26  and  C_27
REMARK    9  A    between atoms: C_27  and  C_31
REMARK                            x       y       z     vdW  Elec       q    Type
REMARK                         _______ _______ _______ _____ _____    ______ ____
ROOT
ATOM      3  N   UNL     1     -16.207  -6.792  13.783  0.00  0.00    -0.316 NA
ATOM      7  C   UNL     1     -14.117  -7.090  15.844  0.00  0.00    +0.004 C 
ATOM      8  C   UNL     1     -13.975  -6.124  14.644  0.00  0.00    +0.012 C 
ATOM      9  C   UNL     1     -15.610  -7.336  16.118  0.00  0.00    +0.019 C 
ATOM     10  C   UNL     1     -14.799  -6.598  13.435  0.00  0.00    +0.085 C 
ATOM     12  C   UNL     1     -16.370  -7.764  14.863  0.00  0.00    +0.081 C 
ATOM     32  H   UNL     1     -16.717  -7.114  12.961  0.00  0.00    +0.122 HD
ENDROOT
BRANCH   7  11
ATOM     11  C   UNL     1     -13.368  -8.417  15.670  0.00  0.00    +0.100 C 
BRANCH  11  14
ATOM      1  O   UNL     1     -13.624  -9.111  17.926  0.00  0.00    -0.276 OA
ATOM      4  N   UNL     1     -11.456  -9.049  17.093  0.00  0.00    -0.298 N 
ATOM      5  N   UNL     1      -8.627  -9.617  17.331  0.00  0.00    -0.327 N 
ATOM     14  C   UNL     1     -12.839  -8.892  17.000  0.00  0.00    +0.216 C 
ATOM     16  C   UNL     1     -10.865  -9.501  18.351  0.00  0.00    +0.126 C 
ATOM     17  C   UNL     1     -10.525  -8.799  15.990  0.00  0.00    +0.126 C 
ATOM     18  C   UNL     1      -9.617 -10.352  18.123  0.00  0.00    +0.124 C 
ATOM     19  C   UNL     1      -9.098  -8.531  16.468  0.00  0.00    +0.124 C 
BRANCH   5  22
ATOM     22  C   UNL     1      -7.272  -9.921  17.428  0.00  0.00    +0.030 A 
ATOM     24  C   UNL     1      -6.420  -9.664  16.352  0.00  0.00    +0.023 A 
ATOM     25  C   UNL     1      -6.764 -10.482  18.599  0.00  0.00    +0.023 A 
ATOM     28  C   UNL     1      -5.062  -9.968  16.449  0.00  0.00    +0.002 A 
ATOM     29  C   UNL     1      -5.407 -10.787  18.696  0.00  0.00    +0.002 A 
ATOM     30  C   UNL     1      -4.556 -10.529  17.621  0.00  0.00    +0.000 A 
ENDBRANCH   5  22
ENDBRANCH  11  14
ENDBRANCH   7  11
BRANCH   8  13
ATOM     13  C   UNL     1     -12.521  -5.879  14.241  0.00  0.00    +0.064 C 
BRANCH  13  15
ATOM      2  O   UNL     1     -12.478  -3.064  11.996  0.00  0.00    -0.359 OA
ATOM      6  N   UNL     1     -12.642  -3.632  13.254  0.00  0.00    -0.083 NA
ATOM     15  C   UNL     1     -12.429  -4.938  13.074  0.00  0.00    +0.084 A 
ATOM     20  C   UNL     1     -12.129  -5.251  11.737  0.00  0.00    +0.071 A 
ATOM     21  C   UNL     1     -12.174  -4.038  11.102  0.00  0.00    +0.138 A 
BRANCH  21  23
ATOM     23  C   UNL     1     -11.967  -3.610   9.713  0.00  0.00    +0.077 C 
BRANCH  23  26
ATOM     26  C   UNL     1     -10.580  -4.005   9.157  0.00  0.00    +0.007 C 
BRANCH  26  27
ATOM     27  C   UNL     1     -10.624  -5.283   8.320  0.00  0.00    -0.003 C 
ATOM     31  C   UNL     1      -9.473  -6.215   8.664  0.00  0.00    +0.004 C 
ENDBRANCH  26  27
ENDBRANCH  23  26
ENDBRANCH  21  23
ENDBRANCH  13  15
ENDBRANCH   8  13
TORSDOF 8
ENDMDL
MODEL 6
REMARK VINA RESULT:      -5.9     27.545     30.582
REMARK  Name = 26742987
REMARK  9 active torsions:
REMARK  status: ('A' for Active; 'I' for Inactive)
REMARK    1  A    between atoms: N_5  and  C_22
REMARK    2  A    between atoms: C_7  and  C_11
REMARK    3  A    between atoms: C_8  and  C_13
REMARK    4  A    between atoms: C_11  and  C_14
REMARK    5  A    between atoms: C_13  and  C_15
REMARK    6  A    between atoms: C_21  and  C_23
REMARK    7  A    between atoms: C_23  and  C_26
REMARK    8  A    between atoms: C_26  and  C_27
REMARK    9  A    between atoms: C_27  and  C_31
REMARK                            x       y       z     vdW  Elec       q    Type
REMARK                         _______ _______ _______ _____ _____    ______ ____
ROOT
ATOM      3  N   UNL     1      -6.445 -14.085   4.873  0.00  0.00    -0.316 NA
ATOM      7  C   UNL     1      -5.062 -11.705   5.933  0.00  0.00    +0.004 C 
ATOM      8  C   UNL     1      -4.392 -12.690   4.946  0.00  0.00    +0.012 C 
ATOM      9  C   UNL     1      -6.589 -11.787   5.768  0.00  0.00    +0.019 C 
ATOM     10  C   UNL     1      -4.994 -14.101   5.057  0.00  0.00    +0.085 C 
ATOM     12  C   UNL     1      -7.108 -13.223   5.850  0.00  0.00    +0.081 C 
ATOM     32  H   UNL     1      -6.808 -15.035   4.963  0.00  0.00    +0.122 HD
ENDROOT
BRANCH   7  11
ATOM     11  C   UNL     1      -4.659 -11.918   7.398  0.00  0.00    +0.100 C 
BRANCH  11  14
ATOM      1  O   UNL     1      -5.224  -9.621   7.601  0.00  0.00    -0.276 OA
ATOM      4  N   UNL     1      -4.301 -10.639   9.475  0.00  0.00    -0.298 N 
ATOM      5  N   UNL     1      -3.579 -10.619  12.279  0.00  0.00    -0.327 N 
ATOM     14  C   UNL     1      -4.759 -10.619   8.157  0.00  0.00    +0.216 C 
ATOM     16  C   UNL     1      -4.358  -9.418  10.275  0.00  0.00    +0.126 C 
ATOM     17  C   UNL     1      -3.759 -11.827  10.139  0.00  0.00    +0.126 C 
ATOM     18  C   UNL     1      -4.606  -9.715  11.753  0.00  0.00    +0.124 C 
ATOM     19  C   UNL     1      -2.869 -11.484  11.333  0.00  0.00    +0.124 C 
BRANCH   5  22
ATOM     22  C   UNL     1      -3.264 -10.625  13.635  0.00  0.00    +0.030 A 
ATOM     24  C   UNL     1      -1.930 -10.579  14.041  0.00  0.00    +0.023 A 
ATOM     25  C   UNL     1      -4.281 -10.675  14.587  0.00  0.00    +0.023 A 
ATOM     28  C   UNL     1      -1.613 -10.585  15.400  0.00  0.00    +0.002 A 
ATOM     29  C   UNL     1      -3.965 -10.681  15.946  0.00  0.00    +0.002 A 
ATOM     30  C   UNL     1      -2.631 -10.635  16.352  0.00  0.00    +0.000 A 
ENDBRANCH   5  22
ENDBRANCH  11  14
ENDBRANCH   7  11
BRANCH   8  13
ATOM     13  C   UNL     1      -2.871 -12.742   5.090  0.00  0.00    +0.064 C 
BRANCH  13  15
ATOM      2  O   UNL     1      -1.731 -13.156   1.700  0.00  0.00    -0.359 OA
ATOM      6  N   UNL     1      -2.496 -12.522   2.671  0.00  0.00    -0.083 NA
ATOM     15  C   UNL     1      -2.215 -13.166   3.808  0.00  0.00    +0.084 A 
ATOM     20  C   UNL     1      -1.289 -14.206   3.617  0.00  0.00    +0.071 A 
ATOM     21  C   UNL     1      -1.017 -14.157   2.275  0.00  0.00    +0.138 A 
BRANCH  21  23
ATOM     23  C   UNL     1      -0.148 -14.938   1.385  0.00  0.00    +0.077 C 
BRANCH  23  26
ATOM     26  C   UNL     1       0.840 -14.062   0.583  0.00  0.00    +0.007 C 
BRANCH  26  27
ATOM     27  C   UNL     1       2.202 -13.936   1.266  0.00  0.00    -0.003 C 
ATOM     31  C   UNL     1       3.335 -13.931   0.253  0.00  0.00    +0.004 C 
ENDBRANCH  26  27
ENDBRANCH  23  26
ENDBRANCH  21  23
ENDBRANCH  13  15
ENDBRANCH   8  13
TORSDOF 8
ENDMDL
MODEL 7
REMARK VINA RESULT:      -5.8     27.441     29.647
REMARK  Name = 26742987
REMARK  9 active torsions:
REMARK  status: ('A' for Active; 'I' for Inactive)
REMARK    1  A    between atoms: N_5  and  C_22
REMARK    2  A    between atoms: C_7  and  C_11
REMARK    3  A    between atoms: C_8  and  C_13
REMARK    4  A    between atoms: C_11  and  C_14
REMARK    5  A    between atoms: C_13  and  C_15
REMARK    6  A    between atoms: C_21  and  C_23
REMARK    7  A    between atoms: C_23  and  C_26
REMARK    8  A    between atoms: C_26  and  C_27
REMARK    9  A    between atoms: C_27  and  C_31
REMARK                            x       y       z     vdW  Elec       q    Type
REMARK                         _______ _______ _______ _____ _____    ______ ____
ROOT
ATOM      3  N   UNL     1      -6.098 -12.484  18.945  0.00  0.00    -0.316 NA
ATOM      7  C   UNL     1      -4.668 -10.969  16.856  0.00  0.00    +0.004 C 
ATOM      8  C   UNL     1      -6.182 -10.799  17.123  0.00  0.00    +0.012 C 
ATOM      9  C   UNL     1      -3.988 -11.488  18.134  0.00  0.00    +0.019 C 
ATOM     10  C   UNL     1      -6.797 -12.072  17.728  0.00  0.00    +0.085 C 
ATOM     12  C   UNL     1      -4.678 -12.729  18.699  0.00  0.00    +0.081 C 
ATOM     32  H   UNL     1      -6.527 -13.333  19.311  0.00  0.00    +0.122 HD
ENDROOT
BRANCH   7  11
ATOM     11  C   UNL     1      -4.342 -11.871  15.659  0.00  0.00    +0.100 C 
BRANCH  11  14
ATOM      1  O   UNL     1      -2.306 -10.739  15.197  0.00  0.00    -0.276 OA
ATOM      4  N   UNL     1      -3.740 -11.084  13.401  0.00  0.00    -0.298 N 
ATOM      5  N   UNL     1      -4.319 -11.017  10.565  0.00  0.00    -0.327 N 
ATOM     14  C   UNL     1      -3.364 -11.180  14.741  0.00  0.00    +0.216 C 
ATOM     16  C   UNL     1      -2.849 -10.423  12.449  0.00  0.00    +0.126 C 
ATOM     17  C   UNL     1      -4.991 -11.618  12.858  0.00  0.00    +0.126 C 
ATOM     18  C   UNL     1      -2.938 -11.046  11.057  0.00  0.00    +0.124 C 
ATOM     19  C   UNL     1      -5.403 -10.946  11.548  0.00  0.00    +0.124 C 
BRANCH   5  22
ATOM     22  C   UNL     1      -4.587 -11.020   9.199  0.00  0.00    +0.030 A 
ATOM     24  C   UNL     1      -4.300 -12.151   8.434  0.00  0.00    +0.023 A 
ATOM     25  C   UNL     1      -5.141  -9.893   8.594  0.00  0.00    +0.023 A 
ATOM     28  C   UNL     1      -4.568 -12.155   7.065  0.00  0.00    +0.002 A 
ATOM     29  C   UNL     1      -5.410  -9.895   7.226  0.00  0.00    +0.002 A 
ATOM     30  C   UNL     1      -5.124 -11.027   6.461  0.00  0.00    +0.000 A 
ENDBRANCH   5  22
ENDBRANCH  11  14
ENDBRANCH   7  11
BRANCH   8  13
ATOM     13  C   UNL     1      -6.964 -10.362  15.884  0.00  0.00    +0.064 C 
BRANCH  13  15
ATOM      2  O   UNL     1      -9.350  -8.168  17.449  0.00  0.00    -0.359 OA
ATOM      6  N   UNL     1      -8.153  -8.873  17.435  0.00  0.00    -0.083 NA
ATOM     15  C   UNL     1      -8.132  -9.494  16.252  0.00  0.00    +0.084 A 
ATOM     20  C   UNL     1      -9.278  -9.220  15.485  0.00  0.00    +0.071 A 
ATOM     21  C   UNL     1     -10.010  -8.382  16.284  0.00  0.00    +0.138 A 
BRANCH  21  23
ATOM     23  C   UNL     1     -11.305  -7.707  16.130  0.00  0.00    +0.077 C 
BRANCH  23  26
ATOM     26  C   UNL     1     -11.174  -6.177  15.953  0.00  0.00    +0.007 C 
BRANCH  26  27
ATOM     27  C   UNL     1     -11.964  -5.655  14.754  0.00  0.00    -0.003 C 
ATOM     31  C   UNL     1     -12.333  -6.778  13.797  0.00  0.00    +0.004 C 
ENDBRANCH  26  27
ENDBRANCH  23  26
ENDBRANCH  21  23
ENDBRANCH  13  15
ENDBRANCH   8  13
TORSDOF 8
ENDMDL
MODEL 8
REMARK VINA RESULT:      -5.6     30.438     32.555
REMARK  Name = 26742987
REMARK  9 active torsions:
REMARK  status: ('A' for Active; 'I' for Inactive)
REMARK    1  A    between atoms: N_5  and  C_22
REMARK    2  A    between atoms: C_7  and  C_11
REMARK    3  A    between atoms: C_8  and  C_13
REMARK    4  A    between atoms: C_11  and  C_14
REMARK    5  A    between atoms: C_13  and  C_15
REMARK    6  A    between atoms: C_21  and  C_23
REMARK    7  A    between atoms: C_23  and  C_26
REMARK    8  A    between atoms: C_26  and  C_27
REMARK    9  A    between atoms: C_27  and  C_31
REMARK                            x       y       z     vdW  Elec       q    Type
REMARK                         _______ _______ _______ _____ _____    ______ ____
ROOT
ATOM      3  N   UNL     1     -13.405   1.725  29.920  0.00  0.00    -0.316 NA
ATOM      7  C   UNL     1     -15.978   2.253  31.263  0.00  0.00    +0.004 C 
ATOM      8  C   UNL     1     -15.885   1.756  29.801  0.00  0.00    +0.012 C 
ATOM      9  C   UNL     1     -14.704   1.836  32.018  0.00  0.00    +0.019 C 
ATOM     10  C   UNL     1     -14.559   2.175  29.143  0.00  0.00    +0.085 C 
ATOM     12  C   UNL     1     -13.429   2.250  31.284  0.00  0.00    +0.081 C 
ATOM     32  H   UNL     1     -12.547   2.029  29.459  0.00  0.00    +0.122 HD
ENDROOT
BRANCH   7  11
ATOM     11  C   UNL     1     -16.221   3.762  31.396  0.00  0.00    +0.100 C 
BRANCH  11  14
ATOM      1  O   UNL     1     -17.178   3.584  33.562  0.00  0.00    -0.276 OA
ATOM      4  N   UNL     1     -15.462   5.129  33.302  0.00  0.00    -0.298 N 
ATOM      5  N   UNL     1     -13.553   7.012  34.396  0.00  0.00    -0.327 N 
ATOM     14  C   UNL     1     -16.338   4.141  32.851  0.00  0.00    +0.216 C 
ATOM     16  C   UNL     1     -15.517   5.556  34.699  0.00  0.00    +0.126 C 
ATOM     17  C   UNL     1     -14.457   5.783  32.461  0.00  0.00    +0.126 C 
ATOM     18  C   UNL     1     -14.140   5.957  35.227  0.00  0.00    +0.124 C 
ATOM     19  C   UNL     1     -14.015   7.139  33.011  0.00  0.00    +0.124 C 
BRANCH   5  22
ATOM     22  C   UNL     1     -12.611   7.890  34.923  0.00  0.00    +0.030 A 
ATOM     24  C   UNL     1     -12.089   8.912  34.129  0.00  0.00    +0.023 A 
ATOM     25  C   UNL     1     -12.188   7.750  36.244  0.00  0.00    +0.023 A 
ATOM     28  C   UNL     1     -11.144   9.793  34.656  0.00  0.00    +0.002 A 
ATOM     29  C   UNL     1     -11.244   8.630  36.772  0.00  0.00    +0.002 A 
ATOM     30  C   UNL     1     -10.723   9.652  35.978  0.00  0.00    +0.000 A 
ENDBRANCH   5  22
ENDBRANCH  11  14
ENDBRANCH   7  11
BRANCH   8  13
ATOM     13  C   UNL     1     -17.072   2.193  28.943  0.00  0.00    +0.064 C 
BRANCH  13  15
ATOM      2  O   UNL     1     -16.326   1.294  25.538  0.00  0.00    -0.359 OA
ATOM      6  N   UNL     1     -16.642   0.975  26.853  0.00  0.00    -0.083 NA
ATOM     15  C   UNL     1     -16.735   2.151  27.480  0.00  0.00    +0.084 A 
ATOM     20  C   UNL     1     -16.490   3.236  26.621  0.00  0.00    +0.071 A 
ATOM     21  C   UNL     1     -16.237   2.642  25.413  0.00  0.00    +0.138 A 
BRANCH  21  23
ATOM     23  C   UNL     1     -15.907   3.156  24.078  0.00  0.00    +0.077 C 
BRANCH  23  26
ATOM     26  C   UNL     1     -15.529   4.655  24.081  0.00  0.00    +0.007 C 
BRANCH  26  27
ATOM     27  C   UNL     1     -14.130   4.909  23.521  0.00  0.00    -0.003 C 
ATOM     31  C   UNL     1     -14.165   5.141  22.019  0.00  0.00    +0.004 C 
ENDBRANCH  26  27
ENDBRANCH  23  26
ENDBRANCH  21  23
ENDBRANCH  13  15
ENDBRANCH   8  13
TORSDOF 8
ENDMDL
MODEL 9
REMARK VINA RESULT:      -5.6     13.407     16.946
REMARK  Name = 26742987
REMARK  9 active torsions:
REMARK  status: ('A' for Active; 'I' for Inactive)
REMARK    1  A    between atoms: N_5  and  C_22
REMARK    2  A    between atoms: C_7  and  C_11
REMARK    3  A    between atoms: C_8  and  C_13
REMARK    4  A    between atoms: C_11  and  C_14
REMARK    5  A    between atoms: C_13  and  C_15
REMARK    6  A    between atoms: C_21  and  C_23
REMARK    7  A    between atoms: C_23  and  C_26
REMARK    8  A    between atoms: C_26  and  C_27
REMARK    9  A    between atoms: C_27  and  C_31
REMARK                            x       y       z     vdW  Elec       q    Type
REMARK                         _______ _______ _______ _____ _____    ______ ____
ROOT
ATOM      3  N   UNL     1      13.447   3.741  -0.807  0.00  0.00    -0.316 NA
ATOM      7  C   UNL     1      13.446   5.332   1.678  0.00  0.00    +0.004 C 
ATOM      8  C   UNL     1      12.157   4.730   1.071  0.00  0.00    +0.012 C 
ATOM      9  C   UNL     1      14.656   4.509   1.205  0.00  0.00    +0.019 C 
ATOM     10  C   UNL     1      12.279   4.547  -0.452  0.00  0.00    +0.085 C 
ATOM     12  C   UNL     1      14.687   4.335  -0.313  0.00  0.00    +0.081 C 
ATOM     32  H   UNL     1      13.498   3.650  -1.822  0.00  0.00    +0.122 HD
ENDROOT
BRANCH   7  11
ATOM     11  C   UNL     1      13.646   6.821   1.369  0.00  0.00    +0.100 C 
BRANCH  11  14
ATOM      1  O   UNL     1      12.626   8.035   3.135  0.00  0.00    -0.276 OA
ATOM      4  N   UNL     1      14.939   7.831   3.209  0.00  0.00    -0.298 N 
ATOM      5  N   UNL     1      17.475   8.152   4.570  0.00  0.00    -0.327 N 
ATOM     14  C   UNL     1      13.679   7.616   2.650  0.00  0.00    +0.216 C 
ATOM     16  C   UNL     1      15.056   8.597   4.448  0.00  0.00    +0.126 C 
ATOM     17  C   UNL     1      16.189   7.323   2.638  0.00  0.00    +0.126 C 
ATOM     18  C   UNL     1      16.214   8.107   5.316  0.00  0.00    +0.124 C 
ATOM     19  C   UNL     1      17.415   8.106   3.107  0.00  0.00    +0.124 C 
BRANCH   5  22
ATOM     22  C   UNL     1      18.691   8.272   5.237  0.00  0.00    +0.030 A 
ATOM     24  C   UNL     1      19.866   7.826   4.631  0.00  0.00    +0.023 A 
ATOM     25  C   UNL     1      18.736   8.838   6.510  0.00  0.00    +0.023 A 
ATOM     28  C   UNL     1      21.085   7.946   5.298  0.00  0.00    +0.002 A 
ATOM     29  C   UNL     1      19.954   8.959   7.178  0.00  0.00    +0.002 A 
ATOM     30  C   UNL     1      21.129   8.513   6.572  0.00  0.00    +0.000 A 
ENDBRANCH   5  22
ENDBRANCH  11  14
ENDBRANCH   7  11
BRANCH   8  13
ATOM     13  C   UNL     1      10.901   5.530   1.417  0.00  0.00    +0.064 C 
BRANCH  13  15
ATOM      2  O   UNL     1      10.317   4.328   4.760  0.00  0.00    -0.359 OA
ATOM      6  N   UNL     1      10.832   4.192   3.477  0.00  0.00    -0.083 NA
ATOM     15  C   UNL     1      10.499   5.323   2.849  0.00  0.00    +0.084 A 
ATOM     20  C   UNL     1       9.780   6.202   3.677  0.00  0.00    +0.071 A 
ATOM     21  C   UNL     1       9.693   5.529   4.867  0.00  0.00    +0.138 A 
BRANCH  21  23
ATOM     23  C   UNL     1       9.086   5.838   6.168  0.00  0.00    +0.077 C 
BRANCH  23  26
ATOM     26  C   UNL     1      10.094   5.778   7.337  0.00  0.00    +0.007 C 
BRANCH  26  27
ATOM     27  C   UNL     1       9.409   5.734   8.702  0.00  0.00    -0.003 C 
ATOM     31  C   UNL     1       9.419   4.330   9.286  0.00  0.00    +0.004 C 
ENDBRANCH  26  27
ENDBRANCH  23  26
ENDBRANCH  21  23
ENDBRANCH  13  15
ENDBRANCH   8  13
TORSDOF 8
ENDMDL
MODEL 10
REMARK VINA RESULT:      -5.6     22.407     24.897
REMARK  Name = 26742987
REMARK  9 active torsions:
REMARK  status: ('A' for Active; 'I' for Inactive)
REMARK    1  A    between atoms: N_5  and  C_22
REMARK    2  A    between atoms: C_7  and  C_11
REMARK    3  A    between atoms: C_8  and  C_13
REMARK    4  A    between atoms: C_11  and  C_14
REMARK    5  A    between atoms: C_13  and  C_15
REMARK    6  A    between atoms: C_21  and  C_23
REMARK    7  A    between atoms: C_23  and  C_26
REMARK    8  A    between atoms: C_26  and  C_27
REMARK    9  A    between atoms: C_27  and  C_31
REMARK                            x       y       z     vdW  Elec       q    Type
REMARK                         _______ _______ _______ _____ _____    ______ ____
ROOT
ATOM      3  N   UNL     1       1.167  13.753  35.170  0.00  0.00    -0.316 NA
ATOM      7  C   UNL     1      -1.540  12.692  34.674  0.00  0.00    +0.004 C 
ATOM      8  C   UNL     1      -1.099  14.102  34.216  0.00  0.00    +0.012 C 
ATOM      9  C   UNL     1      -0.297  11.796  34.813  0.00  0.00    +0.019 C 
ATOM     10  C   UNL     1       0.023  14.662  35.107  0.00  0.00    +0.085 C 
ATOM     12  C   UNL     1       0.788  12.436  35.678  0.00  0.00    +0.081 C 
ATOM     32  H   UNL     1       1.884  14.153  35.776  0.00  0.00    +0.122 HD
ENDROOT
BRANCH   7  11
ATOM     11  C   UNL     1      -2.366  12.684  35.966  0.00  0.00    +0.100 C 
BRANCH  11  14
ATOM      1  O   UNL     1      -4.291  11.482  35.269  0.00  0.00    -0.276 OA
ATOM      4  N   UNL     1      -2.928  10.449  36.843  0.00  0.00    -0.298 N 
ATOM      5  N   UNL     1      -2.168   8.144  38.422  0.00  0.00    -0.327 N 
ATOM     14  C   UNL     1      -3.287  11.490  35.986  0.00  0.00    +0.216 C 
ATOM     16  C   UNL     1      -3.773   9.260  36.923  0.00  0.00    +0.126 C 
ATOM     17  C   UNL     1      -1.730  10.455  37.686  0.00  0.00    +0.126 C 
ATOM     18  C   UNL     1      -2.957   7.997  37.195  0.00  0.00    +0.124 C 
ATOM     19  C   UNL     1      -1.837   9.498  38.873  0.00  0.00    +0.124 C 
BRANCH   5  22
ATOM     22  C   UNL     1      -1.779   7.027  39.155  0.00  0.00    +0.030 A 
ATOM     24  C   UNL     1      -2.587   6.555  40.190  0.00  0.00    +0.023 A 
ATOM     25  C   UNL     1      -0.583   6.377  38.854  0.00  0.00    +0.023 A 
ATOM     28  C   UNL     1      -2.198   5.435  40.925  0.00  0.00    +0.002 A 
ATOM     29  C   UNL     1      -0.193   5.257  39.588  0.00  0.00    +0.002 A 
ATOM     30  C   UNL     1      -1.001   4.786  40.623  0.00  0.00    +0.000 A 
ENDBRANCH   5  22
ENDBRANCH  11  14
ENDBRANCH   7  11
BRANCH   8  13
ATOM     13  C   UNL     1      -2.259  15.093  34.125  0.00  0.00    +0.064 C 
BRANCH  13  15
ATOM      2  O   UNL     1      -3.915  14.081  31.093  0.00  0.00    -0.359 OA
ATOM      6  N   UNL     1      -2.777  14.388  31.829  0.00  0.00    -0.083 NA
ATOM     15  C   UNL     1      -3.228  14.704  33.047  0.00  0.00    +0.084 A 
ATOM     20  C   UNL     1      -4.627  14.615  33.137  0.00  0.00    +0.071 A 
ATOM     21  C   UNL     1      -5.010  14.220  31.882  0.00  0.00    +0.138 A 
BRANCH  21  23
ATOM     23  C   UNL     1      -6.308  13.934  31.258  0.00  0.00    +0.077 C 
BRANCH  23  26
ATOM     26  C   UNL     1      -6.702  12.442  31.336  0.00  0.00    +0.007 C 
BRANCH  26  27
ATOM     27  C   UNL     1      -7.937  12.204  32.203  0.00  0.00    -0.003 C 
ATOM     31  C   UNL     1      -7.598  12.261  33.685  0.00  0.00    +0.004 C 
ENDBRANCH  26  27
ENDBRANCH  23  26
ENDBRANCH  21  23
ENDBRANCH  13  15
ENDBRANCH   8  13
TORSDOF 8
ENDMDL
