MODEL 1
REMARK VINA RESULT:      -6.9      0.000      0.000
REMARK  Name = 11865665
REMARK  7 active torsions:
REMARK  status: ('A' for Active; 'I' for Inactive)
REMARK    1  A    between atoms: O_1  and  C_17
REMARK    2  A    between atoms: O_2  and  C_18
REMARK    3  A    between atoms: N_6  and  C_10
REMARK    4  A    between atoms: N_7  and  C_16
REMARK    5  A    between atoms: N_8  and  C_24
REMARK    6  A    between atoms: C_21  and  C_23
REMARK    7  A    between atoms: C_24  and  C_25
REMARK                            x       y       z     vdW  Elec       q    Type
REMARK                         _______ _______ _______ _____ _____    ______ ____
ROOT
ATOM     16  C   UNL     1      12.008   9.393  21.439  0.00  0.00    +0.129 C 
ATOM     17  C   UNL     1      11.546   8.071  22.080  0.00  0.00    +0.167 C 
ATOM     18  C   UNL     1      12.271   6.866  21.468  0.00  0.00    +0.149 C 
ATOM     19  C   UNL     1      12.104   6.804  19.940  0.00  0.00    +0.074 C 
ATOM     20  C   UNL     1      12.119   9.321  19.940  0.00  0.00    +0.006 C 
ATOM     21  C   UNL     1      12.153   8.154  19.280  0.00  0.00    +0.015 C 
ENDROOT
BRANCH  16   7
ATOM      3  O   UNL     1      12.774  12.122  21.982  0.00  0.00    -0.253 OA
ATOM      6  N   UNL     1      10.542  12.638  22.351  0.00  0.00    -0.297 N 
ATOM      7  N   UNL     1      11.135  10.487  21.789  0.00  0.00    -0.291 N 
ATOM     22  C   UNL     1      11.593  11.781  22.036  0.00  0.00    +0.300 C 
ATOM     26  H   UNL     1       9.595  12.275  22.295  0.00  0.00    +0.151 HD
ATOM     27  H   UNL     1      10.145  10.300  21.915  0.00  0.00    +0.151 HD
BRANCH   6  10
ATOM     10  C   UNL     1      10.736  14.039  22.652  0.00  0.00    +0.074 C 
ATOM     11  C   UNL     1      11.036  14.839  21.380  0.00  0.00    +0.022 C 
ATOM     12  C   UNL     1       9.528  14.615  23.400  0.00  0.00    +0.022 C 
ATOM     13  C   UNL     1       9.808  14.993  20.482  0.00  0.00    +0.002 C 
ATOM     14  C   UNL     1       8.303  14.769  22.498  0.00  0.00    +0.002 C 
ATOM     15  C   UNL     1       8.623  15.578  21.245  0.00  0.00    +0.000 C 
ENDBRANCH   6  10
ENDBRANCH  16   7
BRANCH  21  23
ATOM      4  O   UNL     1      11.395   7.715  17.101  0.00  0.00    -0.271 OA
ATOM      8  N   UNL     1      13.417   8.839  17.388  0.00  0.00    -0.303 N 
ATOM     23  C   UNL     1      12.265   8.205  17.820  0.00  0.00    +0.240 C 
ATOM     30  H   UNL     1      14.071   9.213  18.070  0.00  0.00    +0.150 HD
BRANCH   8  24
ATOM     24  C   UNL     1      13.749   9.010  15.992  0.00  0.00    +0.200 C 
BRANCH  24  25
ATOM      5  O   UNL     1      12.975  10.717  14.459  0.00  0.00    -0.274 OA
ATOM      9  N   UNL     1      13.753  11.351  16.528  0.00  0.00    -0.328 N 
ATOM     25  C   UNL     1      13.428  10.423  15.562  0.00  0.00    +0.228 C 
ATOM     31  H   UNL     1      13.605  12.343  16.369  0.00  0.00    +0.145 HD
ATOM     32  H   UNL     1      14.141  11.084  17.427  0.00  0.00    +0.145 HD
ENDBRANCH  24  25
ENDBRANCH   8  24
ENDBRANCH  21  23
BRANCH  17   1
ATOM      1  O   UNL     1      10.139   7.908  21.884  0.00  0.00    -0.387 OA
ATOM     28  H   UNL     1       9.788   8.756  21.564  0.00  0.00    +0.210 HD
ENDBRANCH  17   1
BRANCH  18   2
ATOM      2  O   UNL     1      13.655   6.902  21.808  0.00  0.00    -0.389 OA
ATOM     29  H   UNL     1      14.140   7.237  21.034  0.00  0.00    +0.210 HD
ENDBRANCH  18   2
TORSDOF 7
ENDMDL
MODEL 2
REMARK VINA RESULT:      -6.6      4.086      6.648
REMARK  Name = 11865665
REMARK  7 active torsions:
REMARK  status: ('A' for Active; 'I' for Inactive)
REMARK    1  A    between atoms: O_1  and  C_17
REMARK    2  A    between atoms: O_2  and  C_18
REMARK    3  A    between atoms: N_6  and  C_10
REMARK    4  A    between atoms: N_7  and  C_16
REMARK    5  A    between atoms: N_8  and  C_24
REMARK    6  A    between atoms: C_21  and  C_23
REMARK    7  A    between atoms: C_24  and  C_25
REMARK                            x       y       z     vdW  Elec       q    Type
REMARK                         _______ _______ _______ _____ _____    ______ ____
ROOT
ATOM     16  C   UNL     1      13.321   6.909  21.266  0.00  0.00    +0.129 C 
ATOM     17  C   UNL     1      12.358   7.789  22.085  0.00  0.00    +0.167 C 
ATOM     18  C   UNL     1      10.977   7.877  21.423  0.00  0.00    +0.149 C 
ATOM     19  C   UNL     1      11.061   8.386  19.974  0.00  0.00    +0.074 C 
ATOM     20  C   UNL     1      13.261   7.180  19.786  0.00  0.00    +0.006 C 
ATOM     21  C   UNL     1      12.246   7.849  19.222  0.00  0.00    +0.015 C 
ENDROOT
BRANCH  16   7
ATOM      3  O   UNL     1      15.643   7.396  19.623  0.00  0.00    -0.253 OA
ATOM      6  N   UNL     1      16.954   7.393  21.537  0.00  0.00    -0.297 N 
ATOM      7  N   UNL     1      14.685   7.057  21.711  0.00  0.00    -0.291 N 
ATOM     22  C   UNL     1      15.751   7.291  20.844  0.00  0.00    +0.300 C 
ATOM     26  H   UNL     1      16.926   7.369  22.552  0.00  0.00    +0.151 HD
ATOM     27  H   UNL     1      14.892   6.934  22.698  0.00  0.00    +0.151 HD
BRANCH   6  10
ATOM     10  C   UNL     1      18.220   7.636  20.880  0.00  0.00    +0.074 C 
ATOM     11  C   UNL     1      18.790   9.003  21.269  0.00  0.00    +0.022 C 
ATOM     12  C   UNL     1      19.219   6.512  21.175  0.00  0.00    +0.022 C 
ATOM     13  C   UNL     1      19.301   9.035  22.710  0.00  0.00    +0.002 C 
ATOM     14  C   UNL     1      19.729   6.548  22.616  0.00  0.00    +0.002 C 
ATOM     15  C   UNL     1      20.303   7.915  22.977  0.00  0.00    +0.000 C 
ENDBRANCH   6  10
ENDBRANCH  16   7
BRANCH  21  23
ATOM      4  O   UNL     1      11.307   7.824  17.069  0.00  0.00    -0.271 OA
ATOM      8  N   UNL     1      13.523   8.502  17.326  0.00  0.00    -0.303 N 
ATOM     23  C   UNL     1      12.292   8.051  17.771  0.00  0.00    +0.240 C 
ATOM     30  H   UNL     1      14.272   8.660  17.995  0.00  0.00    +0.150 HD
BRANCH   8  24
ATOM     24  C   UNL     1      13.810   8.771  15.936  0.00  0.00    +0.200 C 
BRANCH  24  25
ATOM      5  O   UNL     1      14.111  11.166  15.738  0.00  0.00    -0.274 OA
ATOM      9  N   UNL     1      12.087  10.247  15.148  0.00  0.00    -0.328 N 
ATOM     25  C   UNL     1      13.391  10.182  15.593  0.00  0.00    +0.228 C 
ATOM     31  H   UNL     1      11.667  11.136  14.895  0.00  0.00    +0.145 HD
ATOM     32  H   UNL     1      11.506   9.421  15.051  0.00  0.00    +0.145 HD
ENDBRANCH  24  25
ENDBRANCH   8  24
ENDBRANCH  21  23
BRANCH  17   1
ATOM      1  O   UNL     1      12.896   9.109  22.203  0.00  0.00    -0.387 OA
ATOM     28  H   UNL     1      12.187   9.734  21.977  0.00  0.00    +0.210 HD
ENDBRANCH  17   1
BRANCH  18   2
ATOM      2  O   UNL     1      10.333   6.605  21.459  0.00  0.00    -0.389 OA
ATOM     29  H   UNL     1      10.278   6.277  20.546  0.00  0.00    +0.210 HD
ENDBRANCH  18   2
TORSDOF 7
ENDMDL
MODEL 3
REMARK VINA RESULT:      -6.5      3.465      4.826
REMARK  Name = 11865665
REMARK  7 active torsions:
REMARK  status: ('A' for Active; 'I' for Inactive)
REMARK    1  A    between atoms: O_1  and  C_17
REMARK    2  A    between atoms: O_2  and  C_18
REMARK    3  A    between atoms: N_6  and  C_10
REMARK    4  A    between atoms: N_7  and  C_16
REMARK    5  A    between atoms: N_8  and  C_24
REMARK    6  A    between atoms: C_21  and  C_23
REMARK    7  A    between atoms: C_24  and  C_25
REMARK                            x       y       z     vdW  Elec       q    Type
REMARK                         _______ _______ _______ _____ _____    ______ ____
ROOT
ATOM     16  C   UNL     1      12.722   8.497  21.214  0.00  0.00    +0.129 C 
ATOM     17  C   UNL     1      12.415   8.562  19.706  0.00  0.00    +0.167 C 
ATOM     18  C   UNL     1      12.843   7.276  18.988  0.00  0.00    +0.149 C 
ATOM     19  C   UNL     1      14.330   6.954  19.215  0.00  0.00    +0.074 C 
ATOM     20  C   UNL     1      14.085   7.936  21.519  0.00  0.00    +0.006 C 
ATOM     21  C   UNL     1      14.798   7.253  20.612  0.00  0.00    +0.015 C 
ENDROOT
BRANCH  16   7
ATOM      3  O   UNL     1      10.481   9.487  22.739  0.00  0.00    -0.253 OA
ATOM      6  N   UNL     1      11.623  11.482  23.054  0.00  0.00    -0.297 N 
ATOM      7  N   UNL     1      12.601   9.791  21.839  0.00  0.00    -0.291 N 
ATOM     22  C   UNL     1      11.476  10.189  22.560  0.00  0.00    +0.300 C 
ATOM     26  H   UNL     1      12.514  11.950  22.915  0.00  0.00    +0.151 HD
ATOM     27  H   UNL     1      13.345  10.469  21.705  0.00  0.00    +0.151 HD
BRANCH   6  10
ATOM     10  C   UNL     1      10.603  12.142  23.840  0.00  0.00    +0.074 C 
ATOM     11  C   UNL     1      10.969  12.143  25.327  0.00  0.00    +0.022 C 
ATOM     12  C   UNL     1      10.347  13.564  23.329  0.00  0.00    +0.022 C 
ATOM     13  C   UNL     1      12.119  13.098  25.647  0.00  0.00    +0.002 C 
ATOM     14  C   UNL     1      11.500  14.516  23.651  0.00  0.00    +0.002 C 
ATOM     15  C   UNL     1      11.837  14.509  25.139  0.00  0.00    +0.000 C 
ENDBRANCH   6  10
ENDBRANCH  16   7
BRANCH  21  23
ATOM      4  O   UNL     1      16.241   6.067  22.037  0.00  0.00    -0.271 OA
ATOM      8  N   UNL     1      17.128   7.132  20.163  0.00  0.00    -0.303 N 
ATOM     23  C   UNL     1      16.112   6.751  21.022  0.00  0.00    +0.240 C 
ATOM     30  H   UNL     1      16.912   7.698  19.347  0.00  0.00    +0.150 HD
BRANCH   8  24
ATOM     24  C   UNL     1      18.510   6.759  20.359  0.00  0.00    +0.200 C 
BRANCH  24  25
ATOM      5  O   UNL     1      19.636   4.638  20.049  0.00  0.00    -0.274 OA
ATOM      9  N   UNL     1      18.006   5.261  18.551  0.00  0.00    -0.328 N 
ATOM     25  C   UNL     1      18.785   5.439  19.675  0.00  0.00    +0.228 C 
ATOM     31  H   UNL     1      18.095   4.424  17.984  0.00  0.00    +0.145 HD
ATOM     32  H   UNL     1      17.319   5.945  18.253  0.00  0.00    +0.145 HD
ENDBRANCH  24  25
ENDBRANCH   8  24
ENDBRANCH  21  23
BRANCH  17   1
ATOM      1  O   UNL     1      13.110   9.667  19.122  0.00  0.00    -0.387 OA
ATOM     28  H   UNL     1      13.813   9.305  18.557  0.00  0.00    +0.210 HD
ENDBRANCH  17   1
BRANCH  18   2
ATOM      2  O   UNL     1      12.034   6.183  19.417  0.00  0.00    -0.389 OA
ATOM     29  H   UNL     1      11.975   5.553  18.678  0.00  0.00    +0.210 HD
ENDBRANCH  18   2
TORSDOF 7
ENDMDL
MODEL 4
REMARK VINA RESULT:      -6.4     15.926     19.832
REMARK  Name = 11865665
REMARK  7 active torsions:
REMARK  status: ('A' for Active; 'I' for Inactive)
REMARK    1  A    between atoms: O_1  and  C_17
REMARK    2  A    between atoms: O_2  and  C_18
REMARK    3  A    between atoms: N_6  and  C_10
REMARK    4  A    between atoms: N_7  and  C_16
REMARK    5  A    between atoms: N_8  and  C_24
REMARK    6  A    between atoms: C_21  and  C_23
REMARK    7  A    between atoms: C_24  and  C_25
REMARK                            x       y       z     vdW  Elec       q    Type
REMARK                         _______ _______ _______ _____ _____    ______ ____
ROOT
ATOM     16  C   UNL     1      12.640   5.026   1.633  0.00  0.00    +0.129 C 
ATOM     17  C   UNL     1      13.600   3.837   1.435  0.00  0.00    +0.167 C 
ATOM     18  C   UNL     1      13.946   3.635  -0.046  0.00  0.00    +0.149 C 
ATOM     19  C   UNL     1      12.690   3.456  -0.915  0.00  0.00    +0.074 C 
ATOM     20  C   UNL     1      11.516   5.056   0.633  0.00  0.00    +0.006 C 
ATOM     21  C   UNL     1      11.548   4.341  -0.501  0.00  0.00    +0.015 C 
ENDROOT
BRANCH  16   7
ATOM      3  O   UNL     1      12.592   7.250   3.472  0.00  0.00    -0.253 OA
ATOM      6  N   UNL     1      11.495   5.906   5.013  0.00  0.00    -0.297 N 
ATOM      7  N   UNL     1      12.081   5.042   2.963  0.00  0.00    -0.291 N 
ATOM     22  C   UNL     1      12.102   6.166   3.787  0.00  0.00    +0.300 C 
ATOM     26  H   UNL     1      11.053   5.001   5.146  0.00  0.00    +0.151 HD
ATOM     27  H   UNL     1      11.699   4.180   3.341  0.00  0.00    +0.151 HD
BRANCH   6  10
ATOM     10  C   UNL     1      11.379   6.900   6.057  0.00  0.00    +0.074 C 
ATOM     11  C   UNL     1      10.038   7.635   5.970  0.00  0.00    +0.022 C 
ATOM     12  C   UNL     1      11.581   6.273   7.441  0.00  0.00    +0.022 C 
ATOM     13  C   UNL     1       8.860   6.757   6.396  0.00  0.00    +0.002 C 
ATOM     14  C   UNL     1      10.401   5.397   7.863  0.00  0.00    +0.002 C 
ATOM     15  C   UNL     1       9.079   6.154   7.780  0.00  0.00    +0.000 C 
ENDBRANCH   6  10
ENDBRANCH  16   7
BRANCH  21  23
ATOM      4  O   UNL     1       9.345   4.966  -1.027  0.00  0.00    -0.271 OA
ATOM      8  N   UNL     1      10.643   3.924  -2.659  0.00  0.00    -0.303 N 
ATOM     23  C   UNL     1      10.398   4.451  -1.403  0.00  0.00    +0.240 C 
ATOM     30  H   UNL     1      11.554   3.523  -2.867  0.00  0.00    +0.150 HD
BRANCH   8  24
ATOM     24  C   UNL     1       9.661   3.915  -3.718  0.00  0.00    +0.200 C 
BRANCH  24  25
ATOM      5  O   UNL     1       9.210   1.563  -3.358  0.00  0.00    -0.274 OA
ATOM      9  N   UNL     1       9.399   2.342  -5.513  0.00  0.00    -0.328 N 
ATOM     25  C   UNL     1       9.383   2.491  -4.143  0.00  0.00    +0.228 C 
ATOM     31  H   UNL     1       9.242   1.435  -5.940  0.00  0.00    +0.145 HD
ATOM     32  H   UNL     1       9.559   3.122  -6.142  0.00  0.00    +0.145 HD
ENDBRANCH  24  25
ENDBRANCH   8  24
ENDBRANCH  21  23
BRANCH  17   1
ATOM      1  O   UNL     1      12.993   2.642   1.932  0.00  0.00    -0.387 OA
ATOM     28  H   UNL     1      12.639   2.155   1.169  0.00  0.00    +0.210 HD
ENDBRANCH  17   1
BRANCH  18   2
ATOM      2  O   UNL     1      14.720   4.734  -0.523  0.00  0.00    -0.389 OA
ATOM     29  H   UNL     1      14.204   5.177  -1.218  0.00  0.00    +0.210 HD
ENDBRANCH  18   2
TORSDOF 7
ENDMDL
MODEL 5
REMARK VINA RESULT:      -6.4      1.879      2.553
REMARK  Name = 11865665
REMARK  7 active torsions:
REMARK  status: ('A' for Active; 'I' for Inactive)
REMARK    1  A    between atoms: O_1  and  C_17
REMARK    2  A    between atoms: O_2  and  C_18
REMARK    3  A    between atoms: N_6  and  C_10
REMARK    4  A    between atoms: N_7  and  C_16
REMARK    5  A    between atoms: N_8  and  C_24
REMARK    6  A    between atoms: C_21  and  C_23
REMARK    7  A    between atoms: C_24  and  C_25
REMARK                            x       y       z     vdW  Elec       q    Type
REMARK                         _______ _______ _______ _____ _____    ______ ____
ROOT
ATOM     16  C   UNL     1      12.812   9.346  20.139  0.00  0.00    +0.129 C 
ATOM     17  C   UNL     1      11.936   8.082  20.220  0.00  0.00    +0.167 C 
ATOM     18  C   UNL     1      12.448   6.981  19.281  0.00  0.00    +0.149 C 
ATOM     19  C   UNL     1      12.552   7.465  17.825  0.00  0.00    +0.074 C 
ATOM     20  C   UNL     1      13.174   9.730  18.730  0.00  0.00    +0.006 C 
ATOM     21  C   UNL     1      13.045   8.880  17.701  0.00  0.00    +0.015 C 
ENDROOT
BRANCH  16   7
ATOM      3  O   UNL     1      14.018  11.178  22.014  0.00  0.00    -0.253 OA
ATOM      6  N   UNL     1      11.999  12.314  22.148  0.00  0.00    -0.297 N 
ATOM      7  N   UNL     1      12.180  10.472  20.782  0.00  0.00    -0.291 N 
ATOM     22  C   UNL     1      12.842  11.309  21.679  0.00  0.00    +0.300 C 
ATOM     26  H   UNL     1      11.067  12.381  21.752  0.00  0.00    +0.151 HD
ATOM     27  H   UNL     1      11.192  10.637  20.616  0.00  0.00    +0.151 HD
BRANCH   6  10
ATOM     10  C   UNL     1      12.431  13.322  23.092  0.00  0.00    +0.074 C 
ATOM     11  C   UNL     1      11.579  14.589  22.973  0.00  0.00    +0.022 C 
ATOM     12  C   UNL     1      12.420  12.776  24.524  0.00  0.00    +0.022 C 
ATOM     13  C   UNL     1      10.163  14.395  23.517  0.00  0.00    +0.002 C 
ATOM     14  C   UNL     1      11.003  12.585  25.065  0.00  0.00    +0.002 C 
ATOM     15  C   UNL     1      10.178  13.863  24.947  0.00  0.00    +0.000 C 
ENDBRANCH   6  10
ENDBRANCH  16   7
BRANCH  21  23
ATOM      4  O   UNL     1      13.562   8.582  15.429  0.00  0.00    -0.271 OA
ATOM      8  N   UNL     1      13.618  10.732  16.327  0.00  0.00    -0.303 N 
ATOM     23  C   UNL     1      13.431   9.362  16.372  0.00  0.00    +0.240 C 
ATOM     30  H   UNL     1      13.479  11.287  17.168  0.00  0.00    +0.150 HD
BRANCH   8  24
ATOM     24  C   UNL     1      14.003  11.438  15.127  0.00  0.00    +0.200 C 
BRANCH  24  25
ATOM      5  O   UNL     1      16.274  12.160  15.556  0.00  0.00    -0.274 OA
ATOM      9  N   UNL     1      15.916  10.447  14.065  0.00  0.00    -0.328 N 
ATOM     25  C   UNL     1      15.507  11.400  14.974  0.00  0.00    +0.228 C 
ATOM     31  H   UNL     1      16.900  10.320  13.851  0.00  0.00    +0.145 HD
ATOM     32  H   UNL     1      15.260   9.839  13.584  0.00  0.00    +0.145 HD
ENDBRANCH  24  25
ENDBRANCH   8  24
ENDBRANCH  21  23
BRANCH  17   1
ATOM      1  O   UNL     1      10.591   8.405  19.857  0.00  0.00    -0.387 OA
ATOM     28  H   UNL     1      10.134   8.700  20.663  0.00  0.00    +0.210 HD
ENDBRANCH  17   1
BRANCH  18   2
ATOM      2  O   UNL     1      13.714   6.504  19.731  0.00  0.00    -0.389 OA
ATOM     29  H   UNL     1      14.364   6.689  19.031  0.00  0.00    +0.210 HD
ENDBRANCH  18   2
TORSDOF 7
ENDMDL
MODEL 6
REMARK VINA RESULT:      -6.4     26.818     28.475
REMARK  Name = 11865665
REMARK  7 active torsions:
REMARK  status: ('A' for Active; 'I' for Inactive)
REMARK    1  A    between atoms: O_1  and  C_17
REMARK    2  A    between atoms: O_2  and  C_18
REMARK    3  A    between atoms: N_6  and  C_10
REMARK    4  A    between atoms: N_7  and  C_16
REMARK    5  A    between atoms: N_8  and  C_24
REMARK    6  A    between atoms: C_21  and  C_23
REMARK    7  A    between atoms: C_24  and  C_25
REMARK                            x       y       z     vdW  Elec       q    Type
REMARK                         _______ _______ _______ _____ _____    ______ ____
ROOT
ATOM     16  C   UNL     1      -5.087 -11.339  15.640  0.00  0.00    +0.129 C 
ATOM     17  C   UNL     1      -3.883 -11.103  16.570  0.00  0.00    +0.167 C 
ATOM     18  C   UNL     1      -4.208 -11.483  18.020  0.00  0.00    +0.149 C 
ATOM     19  C   UNL     1      -5.445 -10.738  18.550  0.00  0.00    +0.074 C 
ATOM     20  C   UNL     1      -6.390 -10.860  16.221  0.00  0.00    +0.006 C 
ATOM     21  C   UNL     1      -6.534 -10.587  17.526  0.00  0.00    +0.015 C 
ENDROOT
BRANCH  16   7
ATOM      3  O   UNL     1      -3.248 -12.157  13.572  0.00  0.00    -0.253 OA
ATOM      6  N   UNL     1      -3.999 -10.397  12.258  0.00  0.00    -0.297 N 
ATOM      7  N   UNL     1      -4.895 -10.717  14.353  0.00  0.00    -0.291 N 
ATOM     22  C   UNL     1      -3.979 -11.180  13.410  0.00  0.00    +0.300 C 
ATOM     26  H   UNL     1      -4.694  -9.659  12.193  0.00  0.00    +0.151 HD
ATOM     27  H   UNL     1      -5.412  -9.869  14.139  0.00  0.00    +0.151 HD
BRANCH   6  10
ATOM     10  C   UNL     1      -3.147 -10.657  11.118  0.00  0.00    +0.074 C 
ATOM     11  C   UNL     1      -3.762 -11.718  10.201  0.00  0.00    +0.022 C 
ATOM     12  C   UNL     1      -2.843  -9.366  10.351  0.00  0.00    +0.022 C 
ATOM     13  C   UNL     1      -4.975 -11.193   9.431  0.00  0.00    +0.002 C 
ATOM     14  C   UNL     1      -4.057  -8.845   9.582  0.00  0.00    +0.002 C 
ATOM     15  C   UNL     1      -4.645  -9.914   8.666  0.00  0.00    +0.000 C 
ENDBRANCH   6  10
ENDBRANCH  16   7
BRANCH  21  23
ATOM      4  O   UNL     1      -8.477 -10.756  18.836  0.00  0.00    -0.271 OA
ATOM      8  N   UNL     1      -8.267  -8.970  17.352  0.00  0.00    -0.303 N 
ATOM     23  C   UNL     1      -7.851 -10.131  17.981  0.00  0.00    +0.240 C 
ATOM     30  H   UNL     1      -7.668  -8.531  16.659  0.00  0.00    +0.150 HD
BRANCH   8  24
ATOM     24  C   UNL     1      -9.532  -8.330  17.633  0.00  0.00    +0.200 C 
BRANCH  24  25
ATOM      5  O   UNL     1      -9.828  -8.039  15.247  0.00  0.00    -0.274 OA
ATOM      9  N   UNL     1     -10.724  -6.477  16.677  0.00  0.00    -0.328 N 
ATOM     25  C   UNL     1     -10.040  -7.638  16.388  0.00  0.00    +0.228 C 
ATOM     31  H   UNL     1     -11.109  -5.900  15.936  0.00  0.00    +0.145 HD
ATOM     32  H   UNL     1     -10.873  -6.158  17.629  0.00  0.00    +0.145 HD
ENDBRANCH  24  25
ENDBRANCH   8  24
ENDBRANCH  21  23
BRANCH  17   1
ATOM      1  O   UNL     1      -3.508  -9.723  16.530  0.00  0.00    -0.387 OA
ATOM     28  H   UNL     1      -3.258  -9.515  15.615  0.00  0.00    +0.210 HD
ENDBRANCH  17   1
BRANCH  18   2
ATOM      2  O   UNL     1      -4.403 -12.892  18.125  0.00  0.00    -0.389 OA
ATOM     29  H   UNL     1      -5.322 -13.042  18.406  0.00  0.00    +0.210 HD
ENDBRANCH  18   2
TORSDOF 7
ENDMDL
MODEL 7
REMARK VINA RESULT:      -6.3     14.269     17.749
REMARK  Name = 11865665
REMARK  7 active torsions:
REMARK  status: ('A' for Active; 'I' for Inactive)
REMARK    1  A    between atoms: O_1  and  C_17
REMARK    2  A    between atoms: O_2  and  C_18
REMARK    3  A    between atoms: N_6  and  C_10
REMARK    4  A    between atoms: N_7  and  C_16
REMARK    5  A    between atoms: N_8  and  C_24
REMARK    6  A    between atoms: C_21  and  C_23
REMARK    7  A    between atoms: C_24  and  C_25
REMARK                            x       y       z     vdW  Elec       q    Type
REMARK                         _______ _______ _______ _____ _____    ______ ____
ROOT
ATOM     16  C   UNL     1      14.829   7.207   2.823  0.00  0.00    +0.129 C 
ATOM     17  C   UNL     1      14.501   6.013   1.907  0.00  0.00    +0.167 C 
ATOM     18  C   UNL     1      13.005   5.952   1.576  0.00  0.00    +0.149 C 
ATOM     19  C   UNL     1      12.133   5.907   2.842  0.00  0.00    +0.074 C 
ATOM     20  C   UNL     1      13.847   7.379   3.951  0.00  0.00    +0.006 C 
ATOM     21  C   UNL     1      12.645   6.784   3.950  0.00  0.00    +0.015 C 
ENDROOT
BRANCH  16   7
ATOM      3  O   UNL     1      16.797   9.309   3.015  0.00  0.00    -0.253 OA
ATOM      6  N   UNL     1      18.257   7.803   4.007  0.00  0.00    -0.297 N 
ATOM      7  N   UNL     1      16.158   7.105   3.375  0.00  0.00    -0.291 N 
ATOM     22  C   UNL     1      17.048   8.177   3.427  0.00  0.00    +0.300 C 
ATOM     26  H   UNL     1      18.337   6.864   4.385  0.00  0.00    +0.151 HD
ATOM     27  H   UNL     1      16.485   6.198   3.694  0.00  0.00    +0.151 HD
BRANCH   6  10
ATOM     10  C   UNL     1      19.359   8.724   4.186  0.00  0.00    +0.074 C 
ATOM     11  C   UNL     1      19.291   9.404   5.557  0.00  0.00    +0.022 C 
ATOM     12  C   UNL     1      20.704   8.019   3.980  0.00  0.00    +0.022 C 
ATOM     13  C   UNL     1      19.637   8.450   6.701  0.00  0.00    +0.002 C 
ATOM     14  C   UNL     1      21.047   7.068   5.126  0.00  0.00    +0.002 C 
ATOM     15  C   UNL     1      20.985   7.770   6.479  0.00  0.00    +0.000 C 
ENDBRANCH   6  10
ENDBRANCH  16   7
BRANCH  21  23
ATOM      4  O   UNL     1      10.883   7.877   5.053  0.00  0.00    -0.271 OA
ATOM      8  N   UNL     1      12.062   6.214   6.182  0.00  0.00    -0.303 N 
ATOM     23  C   UNL     1      11.770   7.026   5.100  0.00  0.00    +0.240 C 
ATOM     30  H   UNL     1      12.818   5.537   6.114  0.00  0.00    +0.150 HD
BRANCH   8  24
ATOM     24  C   UNL     1      11.337   6.269   7.431  0.00  0.00    +0.200 C 
BRANCH  24  25
ATOM      5  O   UNL     1       9.107   5.551   6.819  0.00  0.00    -0.274 OA
ATOM      9  N   UNL     1      10.413   4.154   8.095  0.00  0.00    -0.328 N 
ATOM     25  C   UNL     1      10.169   5.310   7.384  0.00  0.00    +0.228 C 
ATOM     31  H   UNL     1       9.709   3.426   8.162  0.00  0.00    +0.145 HD
ATOM     32  H   UNL     1      11.295   3.984   8.567  0.00  0.00    +0.145 HD
ENDBRANCH  24  25
ENDBRANCH   8  24
ENDBRANCH  21  23
BRANCH  17   1
ATOM      1  O   UNL     1      14.878   4.794   2.554  0.00  0.00    -0.387 OA
ATOM     28  H   UNL     1      14.063   4.360   2.857  0.00  0.00    +0.210 HD
ENDBRANCH  17   1
BRANCH  18   2
ATOM      2  O   UNL     1      12.636   7.067   0.767  0.00  0.00    -0.389 OA
ATOM     29  H   UNL     1      12.426   7.806   1.363  0.00  0.00    +0.210 HD
ENDBRANCH  18   2
TORSDOF 7
ENDMDL
MODEL 8
REMARK VINA RESULT:      -6.3      5.091      8.475
REMARK  Name = 11865665
REMARK  7 active torsions:
REMARK  status: ('A' for Active; 'I' for Inactive)
REMARK    1  A    between atoms: O_1  and  C_17
REMARK    2  A    between atoms: O_2  and  C_18
REMARK    3  A    between atoms: N_6  and  C_10
REMARK    4  A    between atoms: N_7  and  C_16
REMARK    5  A    between atoms: N_8  and  C_24
REMARK    6  A    between atoms: C_21  and  C_23
REMARK    7  A    between atoms: C_24  and  C_25
REMARK                            x       y       z     vdW  Elec       q    Type
REMARK                         _______ _______ _______ _____ _____    ______ ____
ROOT
ATOM     16  C   UNL     1      14.988   8.358  20.920  0.00  0.00    +0.129 C 
ATOM     17  C   UNL     1      14.633   7.143  20.042  0.00  0.00    +0.167 C 
ATOM     18  C   UNL     1      13.236   7.285  19.423  0.00  0.00    +0.149 C 
ATOM     19  C   UNL     1      12.151   7.506  20.490  0.00  0.00    +0.074 C 
ATOM     20  C   UNL     1      13.859   8.795  21.814  0.00  0.00    +0.006 C 
ATOM     21  C   UNL     1      12.594   8.400  21.614  0.00  0.00    +0.015 C 
ENDROOT
BRANCH  16   7
ATOM      3  O   UNL     1      17.634   9.448  20.548  0.00  0.00    -0.253 OA
ATOM      6  N   UNL     1      18.345   8.264  22.412  0.00  0.00    -0.297 N 
ATOM      7  N   UNL     1      16.154   8.105  21.731  0.00  0.00    -0.291 N 
ATOM     22  C   UNL     1      17.399   8.677  21.477  0.00  0.00    +0.300 C 
ATOM     26  H   UNL     1      18.032   7.686  23.186  0.00  0.00    +0.151 HD
ATOM     27  H   UNL     1      16.081   7.438  22.493  0.00  0.00    +0.151 HD
BRANCH   6  10
ATOM     10  C   UNL     1      19.722   8.709  22.383  0.00  0.00    +0.074 C 
ATOM     11  C   UNL     1      20.318   8.746  23.794  0.00  0.00    +0.022 C 
ATOM     12  C   UNL     1      20.563   7.835  21.446  0.00  0.00    +0.022 C 
ATOM     13  C   UNL     1      20.568   7.349  24.361  0.00  0.00    +0.002 C 
ATOM     14  C   UNL     1      20.812   6.439  22.018  0.00  0.00    +0.002 C 
ATOM     15  C   UNL     1      21.417   6.502  23.417  0.00  0.00    +0.000 C 
ENDBRANCH   6  10
ENDBRANCH  16   7
BRANCH  21  23
ATOM      4  O   UNL     1      10.563   8.234  22.783  0.00  0.00    -0.271 OA
ATOM      8  N   UNL     1      11.891  10.124  23.092  0.00  0.00    -0.303 N 
ATOM     23  C   UNL     1      11.576   8.892  22.547  0.00  0.00    +0.240 C 
ATOM     30  H   UNL     1      12.760  10.582  22.830  0.00  0.00    +0.150 HD
BRANCH   8  24
ATOM     24  C   UNL     1      11.041  10.812  24.035  0.00  0.00    +0.200 C 
BRANCH  24  25
ATOM      5  O   UNL     1      11.645  13.081  24.627  0.00  0.00    -0.274 OA
ATOM      9  N   UNL     1      12.838  11.340  25.538  0.00  0.00    -0.328 N 
ATOM     25  C   UNL     1      11.837  11.876  24.757  0.00  0.00    +0.228 C 
ATOM     31  H   UNL     1      13.462  11.939  26.070  0.00  0.00    +0.145 HD
ATOM     32  H   UNL     1      12.987  10.339  25.619  0.00  0.00    +0.145 HD
ENDBRANCH  24  25
ENDBRANCH   8  24
ENDBRANCH  21  23
BRANCH  17   1
ATOM      1  O   UNL     1      14.666   5.952  20.833  0.00  0.00    -0.387 OA
ATOM     28  H   UNL     1      14.875   6.214  21.746  0.00  0.00    +0.210 HD
ENDBRANCH  17   1
BRANCH  18   2
ATOM      2  O   UNL     1      13.223   8.355  18.482  0.00  0.00    -0.389 OA
ATOM     29  H   UNL     1      12.444   8.237  17.912  0.00  0.00    +0.210 HD
ENDBRANCH  18   2
TORSDOF 7
ENDMDL
MODEL 9
REMARK VINA RESULT:      -6.2     15.220     18.632
REMARK  Name = 11865665
REMARK  7 active torsions:
REMARK  status: ('A' for Active; 'I' for Inactive)
REMARK    1  A    between atoms: O_1  and  C_17
REMARK    2  A    between atoms: O_2  and  C_18
REMARK    3  A    between atoms: N_6  and  C_10
REMARK    4  A    between atoms: N_7  and  C_16
REMARK    5  A    between atoms: N_8  and  C_24
REMARK    6  A    between atoms: C_21  and  C_23
REMARK    7  A    between atoms: C_24  and  C_25
REMARK                            x       y       z     vdW  Elec       q    Type
REMARK                         _______ _______ _______ _____ _____    ______ ____
ROOT
ATOM     16  C   UNL     1      14.552   5.632   1.828  0.00  0.00    +0.129 C 
ATOM     17  C   UNL     1      15.102   4.301   1.283  0.00  0.00    +0.167 C 
ATOM     18  C   UNL     1      14.045   3.550   0.462  0.00  0.00    +0.149 C 
ATOM     19  C   UNL     1      12.756   3.305   1.264  0.00  0.00    +0.074 C 
ATOM     20  C   UNL     1      13.165   5.513   2.400  0.00  0.00    +0.006 C 
ATOM     21  C   UNL     1      12.374   4.461   2.146  0.00  0.00    +0.015 C 
ENDROOT
BRANCH  16   7
ATOM      3  O   UNL     1      16.244   7.954   1.554  0.00  0.00    -0.253 OA
ATOM      6  N   UNL     1      16.951   7.654   3.744  0.00  0.00    -0.297 N 
ATOM      7  N   UNL     1      15.422   6.196   2.831  0.00  0.00    -0.291 N 
ATOM     22  C   UNL     1      16.209   7.326   2.611  0.00  0.00    +0.300 C 
ATOM     26  H   UNL     1      16.793   7.116   4.591  0.00  0.00    +0.151 HD
ATOM     27  H   UNL     1      15.509   5.720   3.724  0.00  0.00    +0.151 HD
BRANCH   6  10
ATOM     10  C   UNL     1      17.851   8.784   3.791  0.00  0.00    +0.074 C 
ATOM     11  C   UNL     1      17.826   9.452   5.168  0.00  0.00    +0.022 C 
ATOM     12  C   UNL     1      19.275   8.372   3.398  0.00  0.00    +0.022 C 
ATOM     13  C   UNL     1      18.509   8.605   6.243  0.00  0.00    +0.002 C 
ATOM     14  C   UNL     1      19.954   7.526   4.476  0.00  0.00    +0.002 C 
ATOM     15  C   UNL     1      19.927   8.217   5.835  0.00  0.00    +0.000 C 
ENDBRANCH   6  10
ENDBRANCH  16   7
BRANCH  21  23
ATOM      4  O   UNL     1      10.036   4.242   2.076  0.00  0.00    -0.271 OA
ATOM      8  N   UNL     1      11.066   4.703   4.116  0.00  0.00    -0.303 N 
ATOM     23  C   UNL     1      11.041   4.453   2.755  0.00  0.00    +0.240 C 
ATOM     30  H   UNL     1      11.956   4.862   4.581  0.00  0.00    +0.150 HD
BRANCH   8  24
ATOM     24  C   UNL     1       9.876   4.748   4.933  0.00  0.00    +0.200 C 
BRANCH  24  25
ATOM      5  O   UNL     1       9.376   5.548   7.163  0.00  0.00    -0.274 OA
ATOM      9  N   UNL     1      11.490   5.866   6.316  0.00  0.00    -0.328 N 
ATOM     25  C   UNL     1      10.193   5.403   6.258  0.00  0.00    +0.228 C 
ATOM     31  H   UNL     1      11.837   6.342   7.143  0.00  0.00    +0.145 HD
ATOM     32  H   UNL     1      12.143   5.747   5.548  0.00  0.00    +0.145 HD
ENDBRANCH  24  25
ENDBRANCH   8  24
ENDBRANCH  21  23
BRANCH  17   1
ATOM      1  O   UNL     1      15.514   3.470   2.371  0.00  0.00    -0.387 OA
ATOM     28  H   UNL     1      15.211   2.566   2.180  0.00  0.00    +0.210 HD
ENDBRANCH  17   1
BRANCH  18   2
ATOM      2  O   UNL     1      13.749   4.270  -0.732  0.00  0.00    -0.389 OA
ATOM     29  H   UNL     1      14.519   4.828  -0.938  0.00  0.00    +0.210 HD
ENDBRANCH  18   2
TORSDOF 7
ENDMDL
MODEL 10
REMARK VINA RESULT:      -6.2     26.807     29.097
REMARK  Name = 11865665
REMARK  7 active torsions:
REMARK  status: ('A' for Active; 'I' for Inactive)
REMARK    1  A    between atoms: O_1  and  C_17
REMARK    2  A    between atoms: O_2  and  C_18
REMARK    3  A    between atoms: N_6  and  C_10
REMARK    4  A    between atoms: N_7  and  C_16
REMARK    5  A    between atoms: N_8  and  C_24
REMARK    6  A    between atoms: C_21  and  C_23
REMARK    7  A    between atoms: C_24  and  C_25
REMARK                            x       y       z     vdW  Elec       q    Type
REMARK                         _______ _______ _______ _____ _____    ______ ____
ROOT
ATOM     16  C   UNL     1      -5.043 -11.430  15.626  0.00  0.00    +0.129 C 
ATOM     17  C   UNL     1      -3.942 -11.072  16.641  0.00  0.00    +0.167 C 
ATOM     18  C   UNL     1      -4.326 -11.503  18.063  0.00  0.00    +0.149 C 
ATOM     19  C   UNL     1      -5.673 -10.905  18.504  0.00  0.00    +0.074 C 
ATOM     20  C   UNL     1      -6.430 -11.106  16.113  0.00  0.00    +0.006 C 
ATOM     21  C   UNL     1      -6.697 -10.865  17.404  0.00  0.00    +0.015 C 
ENDROOT
BRANCH  16   7
ATOM      3  O   UNL     1      -3.216 -12.233  13.542  0.00  0.00    -0.253 OA
ATOM      6  N   UNL     1      -3.917 -10.419  12.276  0.00  0.00    -0.297 N 
ATOM      7  N   UNL     1      -4.830 -10.776  14.358  0.00  0.00    -0.291 N 
ATOM     22  C   UNL     1      -3.922 -11.235  13.405  0.00  0.00    +0.300 C 
ATOM     26  H   UNL     1      -4.593  -9.662  12.230  0.00  0.00    +0.151 HD
ATOM     27  H   UNL     1      -5.325  -9.910  14.167  0.00  0.00    +0.151 HD
BRANCH   6  10
ATOM     10  C   UNL     1      -3.066 -10.667  11.133  0.00  0.00    +0.074 C 
ATOM     11  C   UNL     1      -3.676 -11.729  10.213  0.00  0.00    +0.022 C 
ATOM     12  C   UNL     1      -2.777  -9.370  10.369  0.00  0.00    +0.022 C 
ATOM     13  C   UNL     1      -4.896 -11.213   9.450  0.00  0.00    +0.002 C 
ATOM     14  C   UNL     1      -3.999  -8.857   9.606  0.00  0.00    +0.002 C 
ATOM     15  C   UNL     1      -4.580  -9.928   8.689  0.00  0.00    +0.000 C 
ENDBRANCH   6  10
ENDBRANCH  16   7
BRANCH  21  23
ATOM      4  O   UNL     1      -8.505  -9.406  17.749  0.00  0.00    -0.271 OA
ATOM      8  N   UNL     1      -8.813 -11.690  18.104  0.00  0.00    -0.303 N 
ATOM     23  C   UNL     1      -8.085 -10.563  17.764  0.00  0.00    +0.240 C 
ATOM     30  H   UNL     1      -8.367 -12.603  18.080  0.00  0.00    +0.150 HD
BRANCH   8  24
ATOM     24  C   UNL     1     -10.203 -11.644  18.497  0.00  0.00    +0.200 C 
BRANCH  24  25
ATOM      5  O   UNL     1     -10.478 -12.505  20.743  0.00  0.00    -0.274 OA
ATOM      9  N   UNL     1     -10.230 -10.239  20.445  0.00  0.00    -0.328 N 
ATOM     25  C   UNL     1     -10.304 -11.542  20.002  0.00  0.00    +0.228 C 
ATOM     31  H   UNL     1     -10.299 -10.020  21.433  0.00  0.00    +0.145 HD
ATOM     32  H   UNL     1     -10.101  -9.457  19.811  0.00  0.00    +0.145 HD
ENDBRANCH  24  25
ENDBRANCH   8  24
ENDBRANCH  21  23
BRANCH  17   1
ATOM      1  O   UNL     1      -3.723  -9.659  16.633  0.00  0.00    -0.387 OA
ATOM     28  H   UNL     1      -3.695  -9.373  15.705  0.00  0.00    +0.210 HD
ENDBRANCH  17   1
BRANCH  18   2
ATOM      2  O   UNL     1      -4.369 -12.925  18.149  0.00  0.00    -0.389 OA
ATOM     29  H   UNL     1      -3.736 -13.197  18.835  0.00  0.00    +0.210 HD
ENDBRANCH  18   2
TORSDOF 7
ENDMDL
