MODEL 1
REMARK VINA RESULT:      -7.1      0.000      0.000
REMARK  Name = 75368531
REMARK  4 active torsions:
REMARK  status: ('A' for Active; 'I' for Inactive)
REMARK    1  A    between atoms: N_6  and  C_16
REMARK    2  A    between atoms: N_8  and  C_23
REMARK    3  A    between atoms: C_16  and  C_18
REMARK    4  A    between atoms: C_17  and  C_19
REMARK                            x       y       z     vdW  Elec       q    Type
REMARK                         _______ _______ _______ _____ _____    ______ ____
ROOT
ATOM      1  O   UNL     1      12.731  11.689  13.808  0.00  0.00    -0.252 OA
ATOM      2  O   UNL     1      12.222   6.742  18.716  0.00  0.00    -0.270 OA
ATOM      5  N   UNL     1      13.356  10.246  15.554  0.00  0.00    -0.278 N 
ATOM      6  N   UNL     1      14.748  11.923  15.007  0.00  0.00    -0.276 N 
ATOM      7  N   UNL     1      13.066   8.756  17.881  0.00  0.00    -0.294 N 
ATOM     10  C   UNL     1      14.529  10.034  16.384  0.00  0.00    +0.112 C 
ATOM     11  C   UNL     1      15.365  11.291  16.160  0.00  0.00    +0.134 C 
ATOM     12  C   UNL     1      14.113   9.794  17.832  0.00  0.00    +0.132 C 
ATOM     13  C   UNL     1      12.243   9.315  15.624  0.00  0.00    +0.128 C 
ATOM     14  C   UNL     1      11.869   9.056  17.083  0.00  0.00    +0.127 C 
ATOM     15  C   UNL     1      13.515  11.329  14.677  0.00  0.00    +0.306 C 
ATOM     17  C   UNL     1      13.115   7.586  18.641  0.00  0.00    +0.247 C 
ENDROOT
BRANCH  17  19
ATOM      3  O   UNL     1      17.749   6.010  19.106  0.00  0.00    -0.453 OA
ATOM      4  O   UNL     1      17.798   6.510  21.463  0.00  0.00    -0.453 OA
ATOM     19  C   UNL     1      14.333   7.315  19.416  0.00  0.00    +0.041 A 
ATOM     20  C   UNL     1      15.451   6.772  18.780  0.00  0.00    +0.062 A 
ATOM     21  C   UNL     1      14.362   7.605  20.791  0.00  0.00    +0.017 A 
ATOM     25  C   UNL     1      16.573   6.534  19.550  0.00  0.00    +0.167 A 
ATOM     26  C   UNL     1      15.510   7.356  21.547  0.00  0.00    +0.050 A 
ATOM     27  C   UNL     1      16.601   6.818  20.895  0.00  0.00    +0.166 A 
ATOM     28  C   UNL     1      18.520   5.998  20.325  0.00  0.00    +0.466 C 
ENDBRANCH  17  19
BRANCH   6  16
ATOM     16  C   UNL     1      15.309  13.105  14.390  0.00  0.00    +0.183 C 
BRANCH  16  18
ATOM      8  N   UNL     1      17.537  12.920  13.244  0.00  0.00    -0.336 N 
ATOM      9  N   UNL     1      15.766  12.297  12.057  0.00  0.00    -0.239 NA
ATOM     18  C   UNL     1      16.179  12.766  13.214  0.00  0.00    +0.127 A 
ATOM     22  C   UNL     1      18.021  12.525  12.029  0.00  0.00    +0.106 A 
ATOM     23  C   UNL     1      18.330  13.408  14.348  0.00  0.00    +0.150 C 
ATOM     24  C   UNL     1      16.910  12.145  11.314  0.00  0.00    +0.130 A 
ENDBRANCH  16  18
ENDBRANCH   6  16
TORSDOF 3
ENDMDL
MODEL 2
REMARK VINA RESULT:      -6.7     27.364     30.617
REMARK  Name = 75368531
REMARK  4 active torsions:
REMARK  status: ('A' for Active; 'I' for Inactive)
REMARK    1  A    between atoms: N_6  and  C_16
REMARK    2  A    between atoms: N_8  and  C_23
REMARK    3  A    between atoms: C_16  and  C_18
REMARK    4  A    between atoms: C_17  and  C_19
REMARK                            x       y       z     vdW  Elec       q    Type
REMARK                         _______ _______ _______ _____ _____    ______ ____
ROOT
ATOM      1  O   UNL     1      -4.264 -12.577  18.412  0.00  0.00    -0.252 OA
ATOM      2  O   UNL     1     -10.564  -9.958  19.919  0.00  0.00    -0.270 OA
ATOM      5  N   UNL     1      -6.290 -11.420  18.140  0.00  0.00    -0.278 N 
ATOM      6  N   UNL     1      -5.032 -11.808  16.320  0.00  0.00    -0.276 N 
ATOM      7  N   UNL     1      -8.998 -10.877  18.446  0.00  0.00    -0.294 N 
ATOM     10  C   UNL     1      -6.977 -10.726  17.065  0.00  0.00    +0.112 C 
ATOM     11  C   UNL     1      -6.235 -11.175  15.809  0.00  0.00    +0.134 C 
ATOM     12  C   UNL     1      -8.464 -11.066  17.083  0.00  0.00    +0.132 C 
ATOM     13  C   UNL     1      -6.817 -11.359  19.493  0.00  0.00    +0.128 C 
ATOM     14  C   UNL     1      -8.315 -11.661  19.485  0.00  0.00    +0.127 C 
ATOM     15  C   UNL     1      -5.089 -12.004  17.713  0.00  0.00    +0.306 C 
ATOM     17  C   UNL     1     -10.091 -10.079  18.788  0.00  0.00    +0.247 C 
ENDROOT
BRANCH  17  19
ATOM      3  O   UNL     1     -10.530  -6.124  15.902  0.00  0.00    -0.453 OA
ATOM      4  O   UNL     1     -12.458  -7.026  14.772  0.00  0.00    -0.453 OA
ATOM     19  C   UNL     1     -10.740  -9.302  17.725  0.00  0.00    +0.041 A 
ATOM     20  C   UNL     1     -10.234  -8.048  17.377  0.00  0.00    +0.062 A 
ATOM     21  C   UNL     1     -11.866  -9.828  17.066  0.00  0.00    +0.017 A 
ATOM     25  C   UNL     1     -10.877  -7.354  16.372  0.00  0.00    +0.167 A 
ATOM     26  C   UNL     1     -12.498  -9.105  16.051  0.00  0.00    +0.050 A 
ATOM     27  C   UNL     1     -11.978  -7.868  15.728  0.00  0.00    +0.166 A 
ATOM     28  C   UNL     1     -11.536  -5.923  14.889  0.00  0.00    +0.466 C 
ENDBRANCH  17  19
BRANCH   6  16
ATOM     16  C   UNL     1      -3.986 -12.285  15.442  0.00  0.00    +0.183 C 
BRANCH  16  18
ATOM      8  N   UNL     1      -2.530 -10.652  14.206  0.00  0.00    -0.336 N 
ATOM      9  N   UNL     1      -2.022 -11.003  16.339  0.00  0.00    -0.239 NA
ATOM     18  C   UNL     1      -2.839 -11.319  15.359  0.00  0.00    +0.127 A 
ATOM     22  C   UNL     1      -1.447  -9.861  14.469  0.00  0.00    +0.106 A 
ATOM     23  C   UNL     1      -3.212 -10.752  12.937  0.00  0.00    +0.150 C 
ATOM     24  C   UNL     1      -1.152 -10.095  15.791  0.00  0.00    +0.130 A 
ENDBRANCH  16  18
ENDBRANCH   6  16
TORSDOF 3
ENDMDL
MODEL 3
REMARK VINA RESULT:      -6.6     27.538     30.855
REMARK  Name = 75368531
REMARK  4 active torsions:
REMARK  status: ('A' for Active; 'I' for Inactive)
REMARK    1  A    between atoms: N_6  and  C_16
REMARK    2  A    between atoms: N_8  and  C_23
REMARK    3  A    between atoms: C_16  and  C_18
REMARK    4  A    between atoms: C_17  and  C_19
REMARK                            x       y       z     vdW  Elec       q    Type
REMARK                         _______ _______ _______ _____ _____    ______ ____
ROOT
ATOM      1  O   UNL     1      -4.929 -11.610  18.966  0.00  0.00    -0.252 OA
ATOM      2  O   UNL     1     -11.613  -9.611  18.582  0.00  0.00    -0.270 OA
ATOM      5  N   UNL     1      -6.847 -10.464  18.239  0.00  0.00    -0.278 N 
ATOM      6  N   UNL     1      -4.987 -10.334  16.985  0.00  0.00    -0.276 N 
ATOM      7  N   UNL     1      -9.530 -10.078  17.629  0.00  0.00    -0.294 N 
ATOM     10  C   UNL     1      -7.182  -9.526  17.182  0.00  0.00    +0.112 C 
ATOM     11  C   UNL     1      -5.995  -9.614  16.227  0.00  0.00    +0.134 C 
ATOM     12  C   UNL     1      -8.528  -9.890  16.562  0.00  0.00    +0.132 C 
ATOM     13  C   UNL     1      -7.823 -10.772  19.269  0.00  0.00    +0.128 C 
ATOM     14  C   UNL     1      -9.174 -11.093  18.630  0.00  0.00    +0.127 C 
ATOM     15  C   UNL     1      -5.513 -10.890  18.167  0.00  0.00    +0.306 C 
ATOM     17  C   UNL     1     -10.759  -9.421  17.716  0.00  0.00    +0.247 C 
ENDROOT
BRANCH  17  19
ATOM      3  O   UNL     1     -12.679  -7.952  13.436  0.00  0.00    -0.453 OA
ATOM      4  O   UNL     1     -12.014  -5.663  13.797  0.00  0.00    -0.453 OA
ATOM     19  C   UNL     1     -11.073  -8.405  16.704  0.00  0.00    +0.041 A 
ATOM     20  C   UNL     1     -11.756  -8.772  15.543  0.00  0.00    +0.062 A 
ATOM     21  C   UNL     1     -10.685  -7.070  16.914  0.00  0.00    +0.017 A 
ATOM     25  C   UNL     1     -12.029  -7.782  14.620  0.00  0.00    +0.167 A 
ATOM     26  C   UNL     1     -10.974  -6.087  15.965  0.00  0.00    +0.050 A 
ATOM     27  C   UNL     1     -11.648  -6.476  14.825  0.00  0.00    +0.166 A 
ATOM     28  C   UNL     1     -12.666  -6.605  12.921  0.00  0.00    +0.466 C 
ENDBRANCH  17  19
BRANCH   6  16
ATOM     16  C   UNL     1      -3.649 -10.541  16.475  0.00  0.00    +0.183 C 
BRANCH  16  18
ATOM      8  N   UNL     1      -2.889 -11.527  14.293  0.00  0.00    -0.336 N 
ATOM      9  N   UNL     1      -4.209 -12.803  15.541  0.00  0.00    -0.239 NA
ATOM     18  C   UNL     1      -3.601 -11.641  15.454  0.00  0.00    +0.127 A 
ATOM     22  C   UNL     1      -3.053 -12.690  13.595  0.00  0.00    +0.106 A 
ATOM     23  C   UNL     1      -2.101 -10.394  13.867  0.00  0.00    +0.150 C 
ATOM     24  C   UNL     1      -3.872 -13.462  14.385  0.00  0.00    +0.130 A 
ENDBRANCH  16  18
ENDBRANCH   6  16
TORSDOF 3
ENDMDL
MODEL 4
REMARK VINA RESULT:      -6.5     26.924     29.645
REMARK  Name = 75368531
REMARK  4 active torsions:
REMARK  status: ('A' for Active; 'I' for Inactive)
REMARK    1  A    between atoms: N_6  and  C_16
REMARK    2  A    between atoms: N_8  and  C_23
REMARK    3  A    between atoms: C_16  and  C_18
REMARK    4  A    between atoms: C_17  and  C_19
REMARK                            x       y       z     vdW  Elec       q    Type
REMARK                         _______ _______ _______ _____ _____    ______ ____
ROOT
ATOM      1  O   UNL     1      -1.990 -11.949  14.687  0.00  0.00    -0.252 OA
ATOM      2  O   UNL     1      -6.396 -10.297  19.852  0.00  0.00    -0.270 OA
ATOM      5  N   UNL     1      -3.948 -11.224  15.764  0.00  0.00    -0.278 N 
ATOM      6  N   UNL     1      -4.039 -11.651  13.560  0.00  0.00    -0.276 N 
ATOM      7  N   UNL     1      -5.918 -11.133  17.722  0.00  0.00    -0.294 N 
ATOM     10  C   UNL     1      -5.290 -10.833  15.370  0.00  0.00    +0.112 C 
ATOM     11  C   UNL     1      -5.405 -11.327  13.930  0.00  0.00    +0.134 C 
ATOM     12  C   UNL     1      -6.316 -11.426  16.332  0.00  0.00    +0.132 C 
ATOM     13  C   UNL     1      -3.521 -11.056  17.142  0.00  0.00    +0.128 C 
ATOM     14  C   UNL     1      -4.580 -11.618  18.090  0.00  0.00    +0.127 C 
ATOM     15  C   UNL     1      -3.175 -11.643  14.672  0.00  0.00    +0.306 C 
ATOM     17  C   UNL     1      -6.712 -10.500  18.680  0.00  0.00    +0.247 C 
ENDROOT
BRANCH  17  19
ATOM      3  O   UNL     1      -9.708  -7.392  16.329  0.00  0.00    -0.453 OA
ATOM      4  O   UNL     1     -11.681  -8.570  17.056  0.00  0.00    -0.453 OA
ATOM     19  C   UNL     1      -8.038 -10.020  18.271  0.00  0.00    +0.041 A 
ATOM     20  C   UNL     1      -8.144  -8.885  17.463  0.00  0.00    +0.062 A 
ATOM     21  C   UNL     1      -9.189 -10.706  18.695  0.00  0.00    +0.017 A 
ATOM     25  C   UNL     1      -9.411  -8.471  17.104  0.00  0.00    +0.167 A 
ATOM     26  C   UNL     1     -10.460 -10.266  18.317  0.00  0.00    +0.050 A 
ATOM     27  C   UNL     1     -10.537  -9.142  17.520  0.00  0.00    +0.166 A 
ATOM     28  C   UNL     1     -11.148  -7.462  16.302  0.00  0.00    +0.466 C 
ENDBRANCH  17  19
BRANCH   6  16
ATOM     16  C   UNL     1      -3.686 -12.061  12.218  0.00  0.00    +0.183 C 
BRANCH  16  18
ATOM      8  N   UNL     1      -2.873 -10.003  11.028  0.00  0.00    -0.336 N 
ATOM      9  N   UNL     1      -4.895 -10.729  10.466  0.00  0.00    -0.239 NA
ATOM     18  C   UNL     1      -3.847 -10.941  11.230  0.00  0.00    +0.127 A 
ATOM     22  C   UNL     1      -3.330  -9.138  10.074  0.00  0.00    +0.106 A 
ATOM     23  C   UNL     1      -1.592  -9.926  11.690  0.00  0.00    +0.150 C 
ATOM     24  C   UNL     1      -4.579  -9.606   9.743  0.00  0.00    +0.130 A 
ENDBRANCH  16  18
ENDBRANCH   6  16
TORSDOF 3
ENDMDL
MODEL 5
REMARK VINA RESULT:      -6.5     27.568     30.391
REMARK  Name = 75368531
REMARK  4 active torsions:
REMARK  status: ('A' for Active; 'I' for Inactive)
REMARK    1  A    between atoms: N_6  and  C_16
REMARK    2  A    between atoms: N_8  and  C_23
REMARK    3  A    between atoms: C_16  and  C_18
REMARK    4  A    between atoms: C_17  and  C_19
REMARK                            x       y       z     vdW  Elec       q    Type
REMARK                         _______ _______ _______ _____ _____    ______ ____
ROOT
ATOM      1  O   UNL     1     -10.302 -10.362  19.784  0.00  0.00    -0.252 OA
ATOM      2  O   UNL     1      -3.544 -11.797  18.737  0.00  0.00    -0.270 OA
ATOM      5  N   UNL     1      -8.302 -10.836  18.647  0.00  0.00    -0.278 N 
ATOM      6  N   UNL     1     -10.066 -10.126  17.450  0.00  0.00    -0.276 N 
ATOM      7  N   UNL     1      -5.571 -10.803  18.131  0.00  0.00    -0.294 N 
ATOM     10  C   UNL     1      -7.864 -10.917  17.264  0.00  0.00    +0.112 C 
ATOM     11  C   UNL     1      -8.985 -10.233  16.487  0.00  0.00    +0.134 C 
ATOM     12  C   UNL     1      -6.491 -10.268  17.108  0.00  0.00    +0.132 C 
ATOM     13  C   UNL     1      -7.409 -11.254  19.714  0.00  0.00    +0.128 C 
ATOM     14  C   UNL     1      -6.029 -10.628  19.516  0.00  0.00    +0.127 C 
ATOM     15  C   UNL     1      -9.641 -10.436  18.757  0.00  0.00    +0.306 C 
ATOM     17  C   UNL     1      -4.330 -11.391  17.881  0.00  0.00    +0.247 C 
ENDROOT
BRANCH  17  19
ATOM      3  O   UNL     1      -1.827 -10.055  13.867  0.00  0.00    -0.453 OA
ATOM      4  O   UNL     1      -2.669 -11.916  12.587  0.00  0.00    -0.453 OA
ATOM     19  C   UNL     1      -3.914 -11.560  16.483  0.00  0.00    +0.041 A 
ATOM     20  C   UNL     1      -3.033 -10.642  15.907  0.00  0.00    +0.062 A 
ATOM     21  C   UNL     1      -4.405 -12.646  15.737  0.00  0.00    +0.017 A 
ATOM     25  C   UNL     1      -2.669 -10.842  14.591  0.00  0.00    +0.167 A 
ATOM     26  C   UNL     1      -4.021 -12.825  14.405  0.00  0.00    +0.050 A 
ATOM     27  C   UNL     1      -3.151 -11.904  13.860  0.00  0.00    +0.166 A 
ATOM     28  C   UNL     1      -1.833 -10.742  12.598  0.00  0.00    +0.466 C 
ENDBRANCH  17  19
BRANCH   6  16
ATOM     16  C   UNL     1     -11.372  -9.624  17.083  0.00  0.00    +0.183 C 
BRANCH  16  18
ATOM      8  N   UNL     1     -11.725  -7.981  15.216  0.00  0.00    -0.336 N 
ATOM      9  N   UNL     1     -10.833  -7.172  17.081  0.00  0.00    -0.239 NA
ATOM     18  C   UNL     1     -11.297  -8.248  16.487  0.00  0.00    +0.127 A 
ATOM     22  C   UNL     1     -11.520  -6.650  14.986  0.00  0.00    +0.106 A 
ATOM     23  C   UNL     1     -12.292  -8.919  14.276  0.00  0.00    +0.150 C 
ATOM     24  C   UNL     1     -10.969  -6.172  16.151  0.00  0.00    +0.130 A 
ENDBRANCH  16  18
ENDBRANCH   6  16
TORSDOF 3
ENDMDL
MODEL 6
REMARK VINA RESULT:      -6.4      4.883      7.690
REMARK  Name = 75368531
REMARK  4 active torsions:
REMARK  status: ('A' for Active; 'I' for Inactive)
REMARK    1  A    between atoms: N_6  and  C_16
REMARK    2  A    between atoms: N_8  and  C_23
REMARK    3  A    between atoms: C_16  and  C_18
REMARK    4  A    between atoms: C_17  and  C_19
REMARK                            x       y       z     vdW  Elec       q    Type
REMARK                         _______ _______ _______ _____ _____    ______ ____
ROOT
ATOM      1  O   UNL     1      14.342   9.638  21.405  0.00  0.00    -0.252 OA
ATOM      2  O   UNL     1      21.287   9.203  22.037  0.00  0.00    -0.270 OA
ATOM      5  N   UNL     1      16.483   8.685  21.572  0.00  0.00    -0.278 N 
ATOM      6  N   UNL     1      14.774   7.365  20.950  0.00  0.00    -0.276 N 
ATOM      7  N   UNL     1      19.229   8.461  21.212  0.00  0.00    -0.294 N 
ATOM     10  C   UNL     1      17.058   7.353  21.490  0.00  0.00    +0.112 C 
ATOM     11  C   UNL     1      15.947   6.515  20.863  0.00  0.00    +0.134 C 
ATOM     12  C   UNL     1      18.358   7.390  20.691  0.00  0.00    +0.132 C 
ATOM     13  C   UNL     1      17.310   9.806  21.982  0.00  0.00    +0.128 C 
ATOM     14  C   UNL     1      18.623   9.800  21.202  0.00  0.00    +0.127 C 
ATOM     15  C   UNL     1      15.103   8.683  21.324  0.00  0.00    +0.306 C 
ATOM     17  C   UNL     1      20.546   8.301  21.645  0.00  0.00    +0.247 C 
ENDROOT
BRANCH  17  19
ATOM      3  O   UNL     1      22.070   4.204  23.894  0.00  0.00    -0.453 OA
ATOM      4  O   UNL     1      22.682   3.156  21.811  0.00  0.00    -0.453 OA
ATOM     19  C   UNL     1      21.112   6.946  21.651  0.00  0.00    +0.041 A 
ATOM     20  C   UNL     1      21.290   6.276  22.864  0.00  0.00    +0.062 A 
ATOM     21  C   UNL     1      21.469   6.335  20.437  0.00  0.00    +0.017 A 
ATOM     25  C   UNL     1      21.825   5.004  22.820  0.00  0.00    +0.167 A 
ATOM     26  C   UNL     1      22.009   5.046  20.420  0.00  0.00    +0.050 A 
ATOM     27  C   UNL     1      22.175   4.406  21.632  0.00  0.00    +0.166 A 
ATOM     28  C   UNL     1      22.613   3.035  23.246  0.00  0.00    +0.466 C 
ENDBRANCH  17  19
BRANCH   6  16
ATOM     16  C   UNL     1      13.461   6.901  20.558  0.00  0.00    +0.183 C 
BRANCH  16  18
ATOM      8  N   UNL     1      11.847   8.228  19.163  0.00  0.00    -0.336 N 
ATOM      9  N   UNL     1      13.649   7.459  18.117  0.00  0.00    -0.239 NA
ATOM     18  C   UNL     1      13.011   7.518  19.265  0.00  0.00    +0.127 A 
ATOM     22  C   UNL     1      11.735   8.648  17.868  0.00  0.00    +0.106 A 
ATOM     23  C   UNL     1      10.898   8.495  20.219  0.00  0.00    +0.150 C 
ATOM     24  C   UNL     1      12.859   8.161  17.242  0.00  0.00    +0.130 A 
ENDBRANCH  16  18
ENDBRANCH   6  16
TORSDOF 3
ENDMDL
MODEL 7
REMARK VINA RESULT:      -6.4     26.956     30.166
REMARK  Name = 75368531
REMARK  4 active torsions:
REMARK  status: ('A' for Active; 'I' for Inactive)
REMARK    1  A    between atoms: N_6  and  C_16
REMARK    2  A    between atoms: N_8  and  C_23
REMARK    3  A    between atoms: C_16  and  C_18
REMARK    4  A    between atoms: C_17  and  C_19
REMARK                            x       y       z     vdW  Elec       q    Type
REMARK                         _______ _______ _______ _____ _____    ______ ____
ROOT
ATOM      1  O   UNL     1      -4.207 -11.976  17.782  0.00  0.00    -0.252 OA
ATOM      2  O   UNL     1      -1.095 -10.380  11.733  0.00  0.00    -0.270 OA
ATOM      5  N   UNL     1      -3.938 -11.568  15.484  0.00  0.00    -0.278 N 
ATOM      6  N   UNL     1      -6.025 -11.717  16.303  0.00  0.00    -0.276 N 
ATOM      7  N   UNL     1      -2.924 -10.373  13.190  0.00  0.00    -0.294 N 
ATOM     10  C   UNL     1      -4.798 -11.485  14.316  0.00  0.00    +0.112 C 
ATOM     11  C   UNL     1      -6.201 -11.371  14.904  0.00  0.00    +0.134 C 
ATOM     12  C   UNL     1      -4.378 -10.311  13.435  0.00  0.00    +0.132 C 
ATOM     13  C   UNL     1      -2.495 -11.535  15.324  0.00  0.00    +0.128 C 
ATOM     14  C   UNL     1      -2.098 -10.379  14.406  0.00  0.00    +0.127 C 
ATOM     15  C   UNL     1      -4.665 -11.783  16.664  0.00  0.00    +0.306 C 
ATOM     17  C   UNL     1      -2.309 -10.374  11.936  0.00  0.00    +0.247 C 
ENDROOT
BRANCH  17  19
ATOM      3  O   UNL     1      -5.013 -12.619   8.499  0.00  0.00    -0.453 OA
ATOM      4  O   UNL     1      -5.577 -10.537   7.425  0.00  0.00    -0.453 OA
ATOM     19  C   UNL     1      -3.168 -10.379  10.745  0.00  0.00    +0.041 A 
ATOM     20  C   UNL     1      -3.652 -11.591  10.246  0.00  0.00    +0.062 A 
ATOM     21  C   UNL     1      -3.497  -9.165  10.118  0.00  0.00    +0.017 A 
ATOM     25  C   UNL     1      -4.455 -11.546   9.124  0.00  0.00    +0.167 A 
ATOM     26  C   UNL     1      -4.313  -9.148   8.984  0.00  0.00    +0.050 A 
ATOM     27  C   UNL     1      -4.776 -10.358   8.511  0.00  0.00    +0.166 A 
ATOM     28  C   UNL     1      -5.722 -11.971   7.423  0.00  0.00    +0.466 C 
ENDBRANCH  17  19
BRANCH   6  16
ATOM     16  C   UNL     1      -7.146 -11.837  17.209  0.00  0.00    +0.183 C 
BRANCH  16  18
ATOM      8  N   UNL     1      -9.352 -10.779  16.636  0.00  0.00    -0.336 N 
ATOM      9  N   UNL     1      -7.795  -9.424  17.456  0.00  0.00    -0.239 NA
ATOM     18  C   UNL     1      -8.075 -10.661  17.112  0.00  0.00    +0.127 A 
ATOM     22  C   UNL     1      -9.921  -9.537  16.680  0.00  0.00    +0.106 A 
ATOM     23  C   UNL     1      -9.996 -11.984  16.170  0.00  0.00    +0.150 C 
ATOM     24  C   UNL     1      -8.941  -8.718  17.189  0.00  0.00    +0.130 A 
ENDBRANCH  16  18
ENDBRANCH   6  16
TORSDOF 3
ENDMDL
MODEL 8
REMARK VINA RESULT:      -6.2     27.591     30.658
REMARK  Name = 75368531
REMARK  4 active torsions:
REMARK  status: ('A' for Active; 'I' for Inactive)
REMARK    1  A    between atoms: N_6  and  C_16
REMARK    2  A    between atoms: N_8  and  C_23
REMARK    3  A    between atoms: C_16  and  C_18
REMARK    4  A    between atoms: C_17  and  C_19
REMARK                            x       y       z     vdW  Elec       q    Type
REMARK                         _______ _______ _______ _____ _____    ______ ____
ROOT
ATOM      1  O   UNL     1     -11.845  -9.328  18.722  0.00  0.00    -0.252 OA
ATOM      2  O   UNL     1      -5.682 -12.619  18.652  0.00  0.00    -0.270 OA
ATOM      5  N   UNL     1      -9.709  -9.988  18.000  0.00  0.00    -0.278 N 
ATOM      6  N   UNL     1     -10.674  -8.223  16.998  0.00  0.00    -0.276 N 
ATOM      7  N   UNL     1      -7.053 -10.776  18.221  0.00  0.00    -0.294 N 
ATOM     10  C   UNL     1      -8.794  -9.628  16.930  0.00  0.00    +0.112 C 
ATOM     11  C   UNL     1      -9.353  -8.309  16.403  0.00  0.00    +0.134 C 
ATOM     12  C   UNL     1      -7.366  -9.550  17.461  0.00  0.00    +0.132 C 
ATOM     13  C   UNL     1      -9.412 -11.126  18.852  0.00  0.00    +0.128 C 
ATOM     14  C   UNL     1      -7.966 -11.052  19.340  0.00  0.00    +0.127 C 
ATOM     15  C   UNL     1     -10.868  -9.199  17.996  0.00  0.00    +0.306 C 
ATOM     17  C   UNL     1      -5.968 -11.622  17.989  0.00  0.00    +0.247 C 
ENDROOT
BRANCH  17  19
ATOM      3  O   UNL     1      -1.662 -10.293  16.025  0.00  0.00    -0.453 OA
ATOM      4  O   UNL     1      -2.514 -10.449  13.776  0.00  0.00    -0.453 OA
ATOM     19  C   UNL     1      -5.085 -11.320  16.855  0.00  0.00    +0.041 A 
ATOM     20  C   UNL     1      -3.760 -10.946  17.089  0.00  0.00    +0.062 A 
ATOM     21  C   UNL     1      -5.583 -11.410  15.543  0.00  0.00    +0.017 A 
ATOM     25  C   UNL     1      -2.969 -10.672  15.991  0.00  0.00    +0.167 A 
ATOM     26  C   UNL     1      -4.760 -11.127  14.450  0.00  0.00    +0.050 A 
ATOM     27  C   UNL     1      -3.456 -10.759  14.708  0.00  0.00    +0.166 A 
ATOM     28  C   UNL     1      -1.381 -10.153  14.617  0.00  0.00    +0.466 C 
ENDBRANCH  17  19
BRANCH   6  16
ATOM     16  C   UNL     1     -11.596  -7.159  16.667  0.00  0.00    +0.183 C 
BRANCH  16  18
ATOM      8  N   UNL     1     -12.598  -6.699  14.409  0.00  0.00    -0.336 N 
ATOM      9  N   UNL     1     -13.186  -8.611  15.374  0.00  0.00    -0.239 NA
ATOM     18  C   UNL     1     -12.469  -7.517  15.497  0.00  0.00    +0.127 A 
ATOM     22  C   UNL     1     -13.453  -7.312  13.537  0.00  0.00    +0.106 A 
ATOM     23  C   UNL     1     -11.957  -5.422  14.202  0.00  0.00    +0.150 C 
ATOM     24  C   UNL     1     -13.802  -8.490  14.154  0.00  0.00    +0.130 A 
ENDBRANCH  16  18
ENDBRANCH   6  16
TORSDOF 3
ENDMDL
MODEL 9
REMARK VINA RESULT:      -6.2     27.390     29.105
REMARK  Name = 75368531
REMARK  4 active torsions:
REMARK  status: ('A' for Active; 'I' for Inactive)
REMARK    1  A    between atoms: N_6  and  C_16
REMARK    2  A    between atoms: N_8  and  C_23
REMARK    3  A    between atoms: C_16  and  C_18
REMARK    4  A    between atoms: C_17  and  C_19
REMARK                            x       y       z     vdW  Elec       q    Type
REMARK                         _______ _______ _______ _____ _____    ______ ____
ROOT
ATOM      1  O   UNL     1      -4.429  -9.827   8.574  0.00  0.00    -0.252 OA
ATOM      2  O   UNL     1      -1.727 -10.499  14.981  0.00  0.00    -0.270 OA
ATOM      5  N   UNL     1      -4.329  -9.998  10.914  0.00  0.00    -0.278 N 
ATOM      6  N   UNL     1      -6.335 -10.178   9.917  0.00  0.00    -0.276 N 
ATOM      7  N   UNL     1      -3.400 -10.857  13.389  0.00  0.00    -0.294 N 
ATOM     10  C   UNL     1      -5.277 -10.085  12.011  0.00  0.00    +0.112 C 
ATOM     11  C   UNL     1      -6.598 -10.421  11.324  0.00  0.00    +0.134 C 
ATOM     12  C   UNL     1      -4.808 -11.117  13.033  0.00  0.00    +0.132 C 
ATOM     13  C   UNL     1      -2.912  -9.840  11.194  0.00  0.00    +0.128 C 
ATOM     14  C   UNL     1      -2.472 -10.854  12.249  0.00  0.00    +0.127 C 
ATOM     15  C   UNL     1      -4.964  -9.977   9.664  0.00  0.00    +0.306 C 
ATOM     17  C   UNL     1      -2.908 -10.672  14.682  0.00  0.00    +0.247 C 
ENDROOT
BRANCH  17  19
ATOM      3  O   UNL     1      -7.103  -9.287  16.839  0.00  0.00    -0.453 OA
ATOM      4  O   UNL     1      -6.635 -10.571  18.824  0.00  0.00    -0.453 OA
ATOM     19  C   UNL     1      -3.868 -10.668  15.793  0.00  0.00    +0.041 A 
ATOM     20  C   UNL     1      -5.044  -9.922  15.690  0.00  0.00    +0.062 A 
ATOM     21  C   UNL     1      -3.595 -11.417  16.951  0.00  0.00    +0.017 A 
ATOM     25  C   UNL     1      -5.916  -9.949  16.759  0.00  0.00    +0.167 A 
ATOM     26  C   UNL     1      -4.495 -11.427  18.020  0.00  0.00    +0.050 A 
ATOM     27  C   UNL     1      -5.649 -10.681  17.892  0.00  0.00    +0.166 A 
ATOM     28  C   UNL     1      -7.552  -9.686  18.150  0.00  0.00    +0.466 C 
ENDBRANCH  17  19
BRANCH   6  16
ATOM     16  C   UNL     1      -7.373 -10.275   8.916  0.00  0.00    +0.183 C 
BRANCH  16  18
ATOM      8  N   UNL     1      -7.649  -8.467   7.193  0.00  0.00    -0.336 N 
ATOM      9  N   UNL     1      -8.489  -8.044   9.205  0.00  0.00    -0.239 NA
ATOM     18  C   UNL     1      -7.849  -8.923   8.467  0.00  0.00    +0.127 A 
ATOM     22  C   UNL     1      -8.197  -7.218   7.116  0.00  0.00    +0.106 A 
ATOM     23  C   UNL     1      -6.985  -9.163   6.116  0.00  0.00    +0.150 C 
ATOM     24  C   UNL     1      -8.709  -6.979   8.369  0.00  0.00    +0.130 A 
ENDBRANCH  16  18
ENDBRANCH   6  16
TORSDOF 3
ENDMDL
MODEL 10
REMARK VINA RESULT:      -6.1     28.956     31.079
REMARK  Name = 75368531
REMARK  4 active torsions:
REMARK  status: ('A' for Active; 'I' for Inactive)
REMARK    1  A    between atoms: N_6  and  C_16
REMARK    2  A    between atoms: N_8  and  C_23
REMARK    3  A    between atoms: C_16  and  C_18
REMARK    4  A    between atoms: C_17  and  C_19
REMARK                            x       y       z     vdW  Elec       q    Type
REMARK                         _______ _______ _______ _____ _____    ______ ____
ROOT
ATOM      1  O   UNL     1     -13.943  -7.342  16.031  0.00  0.00    -0.252 OA
ATOM      2  O   UNL     1      -9.556 -11.620  19.389  0.00  0.00    -0.270 OA
ATOM      5  N   UNL     1     -11.945  -8.432  16.616  0.00  0.00    -0.278 N 
ATOM      6  N   UNL     1     -11.828  -6.652  15.250  0.00  0.00    -0.276 N 
ATOM      7  N   UNL     1     -10.064  -9.630  18.273  0.00  0.00    -0.294 N 
ATOM     10  C   UNL     1     -10.546  -8.354  16.234  0.00  0.00    +0.112 C 
ATOM     11  C   UNL     1     -10.446  -7.026  15.489  0.00  0.00    +0.134 C 
ATOM     12  C   UNL     1      -9.656  -8.461  17.470  0.00  0.00    +0.132 C 
ATOM     13  C   UNL     1     -12.399  -9.503  17.487  0.00  0.00    +0.128 C 
ATOM     14  C   UNL     1     -11.472  -9.621  18.696  0.00  0.00    +0.127 C 
ATOM     15  C   UNL     1     -12.726  -7.463  15.970  0.00  0.00    +0.306 C 
ATOM     17  C   UNL     1      -9.226 -10.669  18.681  0.00  0.00    +0.247 C 
ENDROOT
BRANCH  17  19
ATOM      3  O   UNL     1      -5.746 -10.781  15.211  0.00  0.00    -0.453 OA
ATOM      4  O   UNL     1      -3.970 -10.604  16.830  0.00  0.00    -0.453 OA
ATOM     19  C   UNL     1      -7.829 -10.649  18.229  0.00  0.00    +0.041 A 
ATOM     20  C   UNL     1      -7.542 -10.732  16.865  0.00  0.00    +0.062 A 
ATOM     21  C   UNL     1      -6.793 -10.546  19.173  0.00  0.00    +0.017 A 
ATOM     25  C   UNL     1      -6.214 -10.709  16.487  0.00  0.00    +0.167 A 
ATOM     26  C   UNL     1      -5.457 -10.525  18.764  0.00  0.00    +0.050 A 
ATOM     27  C   UNL     1      -5.201 -10.609  17.411  0.00  0.00    +0.166 A 
ATOM     28  C   UNL     1      -4.323 -10.714  15.436  0.00  0.00    +0.466 C 
ENDBRANCH  17  19
BRANCH   6  16
ATOM     16  C   UNL     1     -12.182  -5.490  14.464  0.00  0.00    +0.183 C 
BRANCH  16  18
ATOM      8  N   UNL     1     -12.351  -4.865  12.037  0.00  0.00    -0.336 N 
ATOM      9  N   UNL     1     -12.499  -7.030  12.506  0.00  0.00    -0.239 NA
ATOM     18  C   UNL     1     -12.347  -5.826  13.010  0.00  0.00    +0.127 A 
ATOM     22  C   UNL     1     -12.518  -5.497  10.837  0.00  0.00    +0.106 A 
ATOM     23  C   UNL     1     -12.207  -3.440  12.224  0.00  0.00    +0.150 C 
ATOM     24  C   UNL     1     -12.607  -6.833  11.153  0.00  0.00    +0.130 A 
ENDBRANCH  16  18
ENDBRANCH   6  16
TORSDOF 3
ENDMDL
