MODEL 1
REMARK VINA RESULT:      -7.6      0.000      0.000
REMARK  Name = 45783895
REMARK  11 active torsions:
REMARK  status: ('A' for Active; 'I' for Inactive)
REMARK    1  A    between atoms: O_3  and  C_35
REMARK    2  A    between atoms: O_3  and  C_38
REMARK    3  A    between atoms: N_4  and  C_17
REMARK    4  A    between atoms: N_7  and  C_29
REMARK    5  A    between atoms: C_9  and  C_13
REMARK    6  A    between atoms: C_10  and  C_17
REMARK    7  A    between atoms: C_12  and  C_16
REMARK    8  A    between atoms: C_13  and  C_18
REMARK    9  A    between atoms: C_13  and  C_19
REMARK   10  A    between atoms: C_14  and  C_20
REMARK   11  A    between atoms: C_16  and  C_21
REMARK                            x       y       z     vdW  Elec       q    Type
REMARK                         _______ _______ _______ _____ _____    ______ ____
ROOT
ATOM      9  C   UNL     1      -2.975 -12.406  13.653  0.00  0.00    +0.000 C 
ATOM     10  C   UNL     1      -1.793 -11.483  14.042  0.00  0.00    +0.032 C 
ATOM     11  C   UNL     1      -2.978 -12.666  12.139  0.00  0.00    +0.012 C 
ATOM     12  C   UNL     1      -3.087 -11.363  11.325  0.00  0.00    +0.023 C 
ATOM     14  C   UNL     1      -2.129 -10.302  11.828  0.00  0.00    -0.073 C 
ATOM     15  C   UNL     1      -1.551 -10.380  13.039  0.00  0.00    -0.022 C 
ATOM     20  C   UNL     1      -1.817  -9.172  10.888  0.00  0.00    +0.039 C 
ENDROOT
BRANCH   9  13
ATOM     13  C   UNL     1      -2.929 -13.739  14.408  0.00  0.00    -0.013 C 
ATOM     18  C   UNL     1      -4.294 -14.418  14.373  0.00  0.00    +0.007 C 
ATOM     19  C   UNL     1      -1.857 -14.647  13.817  0.00  0.00    +0.007 C 
ENDBRANCH   9  13
BRANCH  12  16
ATOM     16  C   UNL     1      -4.528 -10.840  11.311  0.00  0.00    +0.103 C 
BRANCH  16  21
ATOM      1  O   UNL     1      -4.285 -11.002   8.954  0.00  0.00    -0.276 OA
ATOM      5  N   UNL     1      -6.144  -9.847   9.735  0.00  0.00    -0.298 N 
ATOM      6  N   UNL     1      -8.452  -8.155   9.296  0.00  0.00    -0.312 N 
ATOM      8  N   UNL     1      -9.340  -6.132   8.460  0.00  0.00    -0.240 NA
ATOM     21  C   UNL     1      -4.965 -10.575   9.891  0.00  0.00    +0.216 C 
ATOM     22  C   UNL     1      -6.950  -9.340  10.849  0.00  0.00    +0.126 C 
ATOM     23  C   UNL     1      -6.630  -9.542   8.392  0.00  0.00    +0.126 C 
ATOM     24  C   UNL     1      -8.398  -9.055  10.451  0.00  0.00    +0.125 C 
ATOM     25  C   UNL     1      -7.345  -8.194   8.336  0.00  0.00    +0.125 C 
ATOM     27  C   UNL     1      -9.540  -7.310   9.093  0.00  0.00    +0.121 A 
ATOM     28  C   UNL     1     -10.773  -7.739   9.559  0.00  0.00    +0.043 A 
ATOM     30  C   UNL     1     -11.869  -6.906   9.365  0.00  0.00    +0.005 A 
ATOM     31  C   UNL     1     -10.428  -5.349   8.289  0.00  0.00    +0.113 A 
ATOM     32  C   UNL     1     -11.702  -5.687   8.718  0.00  0.00    +0.020 A 
ENDBRANCH  16  21
ENDBRANCH  12  16
BRANCH  10  17
ATOM     17  C   UNL     1      -2.002 -10.873  15.433  0.00  0.00    +0.113 C 
BRANCH  17   4
ATOM      2  O   UNL     1      -4.284 -11.613  16.996  0.00  0.00    -0.253 OA
ATOM      4  N   UNL     1      -3.251 -10.182  15.502  0.00  0.00    -0.299 N 
ATOM      7  N   UNL     1      -5.418  -9.736  16.159  0.00  0.00    -0.269 N 
ATOM     26  C   UNL     1      -4.333 -10.606  16.295  0.00  0.00    +0.304 C 
ATOM     39  H   UNL     1      -3.374  -9.354  14.926  0.00  0.00    +0.150 HD
ATOM     40  H   UNL     1      -5.292  -8.943  15.536  0.00  0.00    +0.156 HD
BRANCH   7  29
ATOM     29  C   UNL     1      -6.681  -9.820  16.791  0.00  0.00    +0.038 A 
ATOM     33  C   UNL     1      -6.805 -10.470  18.019  0.00  0.00    +0.069 A 
ATOM     34  C   UNL     1      -7.804  -9.255  16.185  0.00  0.00    +0.023 A 
ATOM     35  C   UNL     1      -8.049 -10.554  18.642  0.00  0.00    +0.122 A 
ATOM     36  C   UNL     1      -9.050  -9.340  16.807  0.00  0.00    +0.005 A 
ATOM     37  C   UNL     1      -9.172  -9.989  18.036  0.00  0.00    +0.046 A 
BRANCH  35   3
ATOM      3  O   UNL     1      -8.170 -11.188  19.840  0.00  0.00    -0.495 OA
ATOM     38  C   UNL     1      -7.794 -12.564  19.887  0.00  0.00    +0.277 C 
ENDBRANCH  35   3
ENDBRANCH   7  29
ENDBRANCH  17   4
ENDBRANCH  10  17
TORSDOF 7
ENDMDL
MODEL 2
REMARK VINA RESULT:      -7.4     24.849     29.569
REMARK  Name = 45783895
REMARK  11 active torsions:
REMARK  status: ('A' for Active; 'I' for Inactive)
REMARK    1  A    between atoms: O_3  and  C_35
REMARK    2  A    between atoms: O_3  and  C_38
REMARK    3  A    between atoms: N_4  and  C_17
REMARK    4  A    between atoms: N_7  and  C_29
REMARK    5  A    between atoms: C_9  and  C_13
REMARK    6  A    between atoms: C_10  and  C_17
REMARK    7  A    between atoms: C_12  and  C_16
REMARK    8  A    between atoms: C_13  and  C_18
REMARK    9  A    between atoms: C_13  and  C_19
REMARK   10  A    between atoms: C_14  and  C_20
REMARK   11  A    between atoms: C_16  and  C_21
REMARK                            x       y       z     vdW  Elec       q    Type
REMARK                         _______ _______ _______ _____ _____    ______ ____
ROOT
ATOM      9  C   UNL     1     -12.074   8.956  35.497  0.00  0.00    +0.000 C 
ATOM     10  C   UNL     1     -13.277   8.535  34.616  0.00  0.00    +0.032 C 
ATOM     11  C   UNL     1     -11.565  10.345  35.083  0.00  0.00    +0.012 C 
ATOM     12  C   UNL     1     -11.127  10.388  33.608  0.00  0.00    +0.023 C 
ATOM     14  C   UNL     1     -12.152   9.744  32.696  0.00  0.00    -0.073 C 
ATOM     15  C   UNL     1     -13.113   8.930  33.167  0.00  0.00    -0.022 C 
ATOM     20  C   UNL     1     -12.074  10.093  31.236  0.00  0.00    +0.039 C 
ENDROOT
BRANCH   9  13
ATOM     13  C   UNL     1     -12.434   8.958  36.987  0.00  0.00    -0.013 C 
ATOM     18  C   UNL     1     -11.178   8.800  37.838  0.00  0.00    +0.007 C 
ATOM     19  C   UNL     1     -13.178  10.238  37.352  0.00  0.00    +0.007 C 
ENDBRANCH   9  13
BRANCH  12  16
ATOM     16  C   UNL     1      -9.747   9.747  33.422  0.00  0.00    +0.103 C 
BRANCH  16  21
ATOM      1  O   UNL     1      -8.521  11.770  33.215  0.00  0.00    -0.276 OA
ATOM      5  N   UNL     1      -7.896  10.344  34.939  0.00  0.00    -0.298 N 
ATOM      6  N   UNL     1      -6.090   9.565  37.064  0.00  0.00    -0.312 N 
ATOM      8  N   UNL     1      -3.898   9.012  37.745  0.00  0.00    -0.240 NA
ATOM     21  C   UNL     1      -8.669  10.717  33.840  0.00  0.00    +0.216 C 
ATOM     22  C   UNL     1      -8.074   9.092  35.680  0.00  0.00    +0.126 C 
ATOM     23  C   UNL     1      -6.828  11.225  35.401  0.00  0.00    +0.126 C 
ATOM     24  C   UNL     1      -7.496   9.153  37.094  0.00  0.00    +0.125 C 
ATOM     25  C   UNL     1      -5.649  10.441  35.975  0.00  0.00    +0.125 C 
ATOM     27  C   UNL     1      -5.203   9.168  38.061  0.00  0.00    +0.121 A 
ATOM     28  C   UNL     1      -5.725   8.957  39.328  0.00  0.00    +0.043 A 
ATOM     30  C   UNL     1      -4.851   8.559  40.334  0.00  0.00    +0.005 A 
ATOM     31  C   UNL     1      -3.078   8.624  38.748  0.00  0.00    +0.113 A 
ATOM     32  C   UNL     1      -3.501   8.388  40.047  0.00  0.00    +0.020 A 
ENDBRANCH  16  21
ENDBRANCH  12  16
BRANCH  10  17
ATOM     17  C   UNL     1     -13.531   7.026  34.709  0.00  0.00    +0.113 C 
BRANCH  17   4
ATOM      2  O   UNL     1     -14.529   4.415  34.087  0.00  0.00    -0.253 OA
ATOM      4  N   UNL     1     -13.676   6.455  33.407  0.00  0.00    -0.299 N 
ATOM      7  N   UNL     1     -14.203   4.875  31.808  0.00  0.00    -0.269 N 
ATOM     26  C   UNL     1     -14.176   5.160  33.177  0.00  0.00    +0.304 C 
ATOM     39  H   UNL     1     -13.378   7.003  32.606  0.00  0.00    +0.150 HD
ATOM     40  H   UNL     1     -13.875   5.607  31.184  0.00  0.00    +0.156 HD
BRANCH   7  29
ATOM     29  C   UNL     1     -14.636   3.685  31.179  0.00  0.00    +0.038 A 
ATOM     33  C   UNL     1     -13.755   2.613  31.033  0.00  0.00    +0.069 A 
ATOM     34  C   UNL     1     -15.943   3.583  30.702  0.00  0.00    +0.023 A 
ATOM     35  C   UNL     1     -14.181   1.439  30.413  0.00  0.00    +0.122 A 
ATOM     36  C   UNL     1     -16.370   2.409  30.080  0.00  0.00    +0.005 A 
ATOM     37  C   UNL     1     -15.489   1.337  29.936  0.00  0.00    +0.046 A 
BRANCH  35   3
ATOM      3  O   UNL     1     -13.322   0.394  30.270  0.00  0.00    -0.495 OA
ATOM     38  C   UNL     1     -13.747  -0.689  29.444  0.00  0.00    +0.277 C 
ENDBRANCH  35   3
ENDBRANCH   7  29
ENDBRANCH  17   4
ENDBRANCH  10  17
TORSDOF 7
ENDMDL
MODEL 3
REMARK VINA RESULT:      -7.4     24.938     28.909
REMARK  Name = 45783895
REMARK  11 active torsions:
REMARK  status: ('A' for Active; 'I' for Inactive)
REMARK    1  A    between atoms: O_3  and  C_35
REMARK    2  A    between atoms: O_3  and  C_38
REMARK    3  A    between atoms: N_4  and  C_17
REMARK    4  A    between atoms: N_7  and  C_29
REMARK    5  A    between atoms: C_9  and  C_13
REMARK    6  A    between atoms: C_10  and  C_17
REMARK    7  A    between atoms: C_12  and  C_16
REMARK    8  A    between atoms: C_13  and  C_18
REMARK    9  A    between atoms: C_13  and  C_19
REMARK   10  A    between atoms: C_14  and  C_20
REMARK   11  A    between atoms: C_16  and  C_21
REMARK                            x       y       z     vdW  Elec       q    Type
REMARK                         _______ _______ _______ _____ _____    ______ ____
ROOT
ATOM      9  C   UNL     1      12.452   5.051  -0.465  0.00  0.00    +0.000 C 
ATOM     10  C   UNL     1      13.311   3.795  -0.172  0.00  0.00    +0.032 C 
ATOM     11  C   UNL     1      13.098   5.897  -1.573  0.00  0.00    +0.012 C 
ATOM     12  C   UNL     1      14.521   6.355  -1.201  0.00  0.00    +0.023 C 
ATOM     14  C   UNL     1      15.353   5.215  -0.647  0.00  0.00    -0.073 C 
ATOM     15  C   UNL     1      14.795   4.074  -0.205  0.00  0.00    -0.022 C 
ATOM     20  C   UNL     1      16.844   5.400  -0.656  0.00  0.00    +0.039 C 
ENDROOT
BRANCH   9  13
ATOM     13  C   UNL     1      11.020   4.680  -0.865  0.00  0.00    -0.013 C 
ATOM     18  C   UNL     1      10.031   5.696  -0.302  0.00  0.00    +0.007 C 
ATOM     19  C   UNL     1      10.898   4.588  -2.381  0.00  0.00    +0.007 C 
ENDBRANCH   9  13
BRANCH  12  16
ATOM     16  C   UNL     1      14.483   7.533  -0.222  0.00  0.00    +0.103 C 
BRANCH  16  21
ATOM      1  O   UNL     1      16.177   8.805  -1.296  0.00  0.00    -0.276 OA
ATOM      5  N   UNL     1      16.522   8.289   0.943  0.00  0.00    -0.298 N 
ATOM      6  N   UNL     1      18.199   8.204   3.301  0.00  0.00    -0.312 N 
ATOM      8  N   UNL     1      20.212   7.505   4.320  0.00  0.00    -0.240 NA
ATOM     21  C   UNL     1      15.802   8.267  -0.251  0.00  0.00    +0.216 C 
ATOM     22  C   UNL     1      16.074   7.650   2.183  0.00  0.00    +0.126 C 
ATOM     23  C   UNL     1      17.811   8.973   0.995  0.00  0.00    +0.126 C 
ATOM     24  C   UNL     1      16.740   8.238   3.427  0.00  0.00    +0.125 C 
ATOM     25  C   UNL     1      18.780   8.292   1.959  0.00  0.00    +0.125 C 
ATOM     27  C   UNL     1      19.016   8.127   4.426  0.00  0.00    +0.121 A 
ATOM     28  C   UNL     1      18.542   8.700   5.596  0.00  0.00    +0.043 A 
ATOM     30  C   UNL     1      19.346   8.631   6.728  0.00  0.00    +0.005 A 
ATOM     31  C   UNL     1      20.966   7.456   5.440  0.00  0.00    +0.113 A 
ATOM     32  C   UNL     1      20.583   7.999   6.657  0.00  0.00    +0.020 A 
ENDBRANCH  16  21
ENDBRANCH  12  16
BRANCH  10  17
ATOM     17  C   UNL     1      12.938   3.171   1.177  0.00  0.00    +0.113 C 
BRANCH  17   4
ATOM      2  O   UNL     1      10.490   3.638   2.589  0.00  0.00    -0.253 OA
ATOM      4  N   UNL     1      12.696   4.185   2.155  0.00  0.00    -0.299 N 
ATOM      7  N   UNL     1      11.522   5.425   3.709  0.00  0.00    -0.269 N 
ATOM     26  C   UNL     1      11.462   4.356   2.810  0.00  0.00    +0.304 C 
ATOM     39  H   UNL     1      13.446   4.835   2.369  0.00  0.00    +0.150 HD
ATOM     40  H   UNL     1      12.409   5.918   3.773  0.00  0.00    +0.156 HD
BRANCH   7  29
ATOM     29  C   UNL     1      10.494   5.909   4.551  0.00  0.00    +0.038 A 
ATOM     33  C   UNL     1      10.543   5.664   5.924  0.00  0.00    +0.069 A 
ATOM     34  C   UNL     1       9.429   6.629   4.009  0.00  0.00    +0.023 A 
ATOM     35  C   UNL     1       9.529   6.140   6.754  0.00  0.00    +0.122 A 
ATOM     36  C   UNL     1       8.414   7.105   4.840  0.00  0.00    +0.005 A 
ATOM     37  C   UNL     1       8.464   6.861   6.212  0.00  0.00    +0.046 A 
BRANCH  35   3
ATOM      3  O   UNL     1       9.578   5.902   8.093  0.00  0.00    -0.495 OA
ATOM     38  C   UNL     1       9.675   4.539   8.507  0.00  0.00    +0.277 C 
ENDBRANCH  35   3
ENDBRANCH   7  29
ENDBRANCH  17   4
ENDBRANCH  10  17
TORSDOF 7
ENDMDL
MODEL 4
REMARK VINA RESULT:      -7.4      2.807      9.362
REMARK  Name = 45783895
REMARK  11 active torsions:
REMARK  status: ('A' for Active; 'I' for Inactive)
REMARK    1  A    between atoms: O_3  and  C_35
REMARK    2  A    between atoms: O_3  and  C_38
REMARK    3  A    between atoms: N_4  and  C_17
REMARK    4  A    between atoms: N_7  and  C_29
REMARK    5  A    between atoms: C_9  and  C_13
REMARK    6  A    between atoms: C_10  and  C_17
REMARK    7  A    between atoms: C_12  and  C_16
REMARK    8  A    between atoms: C_13  and  C_18
REMARK    9  A    between atoms: C_13  and  C_19
REMARK   10  A    between atoms: C_14  and  C_20
REMARK   11  A    between atoms: C_16  and  C_21
REMARK                            x       y       z     vdW  Elec       q    Type
REMARK                         _______ _______ _______ _____ _____    ______ ____
ROOT
ATOM      9  C   UNL     1      -5.179 -10.760  13.287  0.00  0.00    +0.000 C 
ATOM     10  C   UNL     1      -3.810 -10.585  12.583  0.00  0.00    +0.032 C 
ATOM     11  C   UNL     1      -5.174 -10.058  14.653  0.00  0.00    +0.012 C 
ATOM     12  C   UNL     1      -4.074 -10.602  15.583  0.00  0.00    +0.023 C 
ATOM     14  C   UNL     1      -2.739 -10.712  14.873  0.00  0.00    -0.073 C 
ATOM     15  C   UNL     1      -2.641 -10.688  13.532  0.00  0.00    -0.022 C 
ATOM     20  C   UNL     1      -1.516 -10.803  15.742  0.00  0.00    +0.039 C 
ENDROOT
BRANCH   9  13
ATOM     13  C   UNL     1      -6.332 -10.222  12.432  0.00  0.00    -0.013 C 
ATOM     18  C   UNL     1      -7.628 -10.205  13.236  0.00  0.00    +0.007 C 
ATOM     19  C   UNL     1      -6.001  -8.828  11.910  0.00  0.00    +0.007 C 
ENDBRANCH   9  13
BRANCH  12  16
ATOM     16  C   UNL     1      -4.482 -11.947  16.194  0.00  0.00    +0.103 C 
BRANCH  16  21
ATOM      1  O   UNL     1      -3.749 -11.861  18.451  0.00  0.00    -0.276 OA
ATOM      5  N   UNL     1      -6.023 -11.563  18.082  0.00  0.00    -0.298 N 
ATOM      6  N   UNL     1      -8.742 -11.317  19.044  0.00  0.00    -0.312 N 
ATOM      8  N   UNL     1     -10.530 -12.226  20.292  0.00  0.00    -0.240 NA
ATOM     21  C   UNL     1      -4.707 -11.789  17.679  0.00  0.00    +0.216 C 
ATOM     22  C   UNL     1      -7.161 -11.479  17.162  0.00  0.00    +0.126 C 
ATOM     23  C   UNL     1      -6.325 -11.408  19.502  0.00  0.00    +0.126 C 
ATOM     24  C   UNL     1      -8.352 -10.731  17.760  0.00  0.00    +0.125 C 
ATOM     25  C   UNL     1      -7.705 -11.959  19.856  0.00  0.00    +0.125 C 
ATOM     27  C   UNL     1     -10.055 -11.236  19.502  0.00  0.00    +0.121 A 
ATOM     28  C   UNL     1     -10.797 -10.133  19.112  0.00  0.00    +0.043 A 
ATOM     30  C   UNL     1     -12.110 -10.038  19.561  0.00  0.00    +0.005 A 
ATOM     31  C   UNL     1     -11.810 -12.100  20.709  0.00  0.00    +0.113 A 
ATOM     32  C   UNL     1     -12.634 -11.036  20.375  0.00  0.00    +0.020 A 
ENDBRANCH  16  21
ENDBRANCH  12  16
BRANCH  10  17
ATOM     17  C   UNL     1      -3.638 -11.600  11.447  0.00  0.00    +0.113 C 
BRANCH  17   4
ATOM      2  O   UNL     1      -5.588 -12.090   9.408  0.00  0.00    -0.253 OA
ATOM      4  N   UNL     1      -3.724 -10.955  10.174  0.00  0.00    -0.299 N 
ATOM      7  N   UNL     1      -4.545 -10.464   8.073  0.00  0.00    -0.269 N 
ATOM     26  C   UNL     1      -4.714 -11.249   9.218  0.00  0.00    +0.304 C 
ATOM     39  H   UNL     1      -3.017 -10.267   9.935  0.00  0.00    +0.150 HD
ATOM     40  H   UNL     1      -3.767  -9.810   8.079  0.00  0.00    +0.156 HD
BRANCH   7  29
ATOM     29  C   UNL     1      -5.333 -10.464   6.898  0.00  0.00    +0.038 A 
ATOM     33  C   UNL     1      -6.288  -9.467   6.699  0.00  0.00    +0.069 A 
ATOM     34  C   UNL     1      -5.157 -11.463   5.940  0.00  0.00    +0.023 A 
ATOM     35  C   UNL     1      -7.065  -9.467   5.541  0.00  0.00    +0.122 A 
ATOM     36  C   UNL     1      -5.935 -11.463   4.782  0.00  0.00    +0.005 A 
ATOM     37  C   UNL     1      -6.889 -10.465   4.582  0.00  0.00    +0.046 A 
BRANCH  35   3
ATOM      3  O   UNL     1      -7.997  -8.494   5.347  0.00  0.00    -0.495 OA
ATOM     38  C   UNL     1      -8.113  -7.494   6.357  0.00  0.00    +0.277 C 
ENDBRANCH  35   3
ENDBRANCH   7  29
ENDBRANCH  17   4
ENDBRANCH  10  17
TORSDOF 7
ENDMDL
MODEL 5
REMARK VINA RESULT:      -7.3      2.228      3.605
REMARK  Name = 45783895
REMARK  11 active torsions:
REMARK  status: ('A' for Active; 'I' for Inactive)
REMARK    1  A    between atoms: O_3  and  C_35
REMARK    2  A    between atoms: O_3  and  C_38
REMARK    3  A    between atoms: N_4  and  C_17
REMARK    4  A    between atoms: N_7  and  C_29
REMARK    5  A    between atoms: C_9  and  C_13
REMARK    6  A    between atoms: C_10  and  C_17
REMARK    7  A    between atoms: C_12  and  C_16
REMARK    8  A    between atoms: C_13  and  C_18
REMARK    9  A    between atoms: C_13  and  C_19
REMARK   10  A    between atoms: C_14  and  C_20
REMARK   11  A    between atoms: C_16  and  C_21
REMARK                            x       y       z     vdW  Elec       q    Type
REMARK                         _______ _______ _______ _____ _____    ______ ____
ROOT
ATOM      9  C   UNL     1      -4.988 -12.158  15.714  0.00  0.00    +0.000 C 
ATOM     10  C   UNL     1      -4.224 -11.829  17.021  0.00  0.00    +0.032 C 
ATOM     11  C   UNL     1      -4.002 -12.525  14.593  0.00  0.00    +0.012 C 
ATOM     12  C   UNL     1      -3.004 -11.389  14.302  0.00  0.00    +0.023 C 
ATOM     14  C   UNL     1      -2.403 -10.827  15.575  0.00  0.00    -0.073 C 
ATOM     15  C   UNL     1      -2.955 -11.046  16.782  0.00  0.00    -0.022 C 
ATOM     20  C   UNL     1      -1.127 -10.044  15.433  0.00  0.00    +0.039 C 
ENDROOT
BRANCH   9  13
ATOM     13  C   UNL     1      -5.993 -13.298  15.913  0.00  0.00    -0.013 C 
ATOM     18  C   UNL     1      -6.539 -13.767  14.569  0.00  0.00    +0.007 C 
ATOM     19  C   UNL     1      -5.343 -14.454  16.666  0.00  0.00    +0.007 C 
ENDBRANCH   9  13
BRANCH  12  16
ATOM     16  C   UNL     1      -3.655 -10.282  13.467  0.00  0.00    +0.103 C 
BRANCH  16  21
ATOM      1  O   UNL     1      -3.124 -11.622  11.579  0.00  0.00    -0.276 OA
ATOM      5  N   UNL     1      -4.946 -10.196  11.367  0.00  0.00    -0.298 N 
ATOM      6  N   UNL     1      -6.998  -8.917   9.775  0.00  0.00    -0.312 N 
ATOM      8  N   UNL     1      -7.565  -7.582   7.911  0.00  0.00    -0.240 NA
ATOM     21  C   UNL     1      -3.874 -10.766  12.054  0.00  0.00    +0.216 C 
ATOM     22  C   UNL     1      -5.836  -9.178  11.932  0.00  0.00    +0.126 C 
ATOM     23  C   UNL     1      -5.220 -10.605   9.992  0.00  0.00    +0.126 C 
ATOM     24  C   UNL     1      -7.184  -9.107  11.216  0.00  0.00    +0.125 C 
ATOM     25  C   UNL     1      -5.785  -9.459   9.157  0.00  0.00    +0.125 C 
ATOM     27  C   UNL     1      -7.962  -8.271   9.005  0.00  0.00    +0.121 A 
ATOM     28  C   UNL     1      -9.281  -8.380   9.415  0.00  0.00    +0.043 A 
ATOM     30  C   UNL     1     -10.255  -7.741   8.657  0.00  0.00    +0.005 A 
ATOM     31  C   UNL     1      -8.539  -6.973   7.198  0.00  0.00    +0.113 A 
ATOM     32  C   UNL     1      -9.885  -7.022   7.525  0.00  0.00    +0.020 A 
ENDBRANCH  16  21
ENDBRANCH  12  16
BRANCH  10  17
ATOM     17  C   UNL     1      -5.117 -11.068  18.007  0.00  0.00    +0.113 C 
BRANCH  17   4
ATOM      2  O   UNL     1      -7.970 -10.902  17.827  0.00  0.00    -0.253 OA
ATOM      4  N   UNL     1      -5.873 -10.060  17.333  0.00  0.00    -0.299 N 
ATOM      7  N   UNL     1      -7.737  -8.941  16.557  0.00  0.00    -0.269 N 
ATOM     26  C   UNL     1      -7.279 -10.043  17.286  0.00  0.00    +0.304 C 
ATOM     39  H   UNL     1      -5.368  -9.332  16.838  0.00  0.00    +0.150 HD
ATOM     40  H   UNL     1      -7.029  -8.321  16.174  0.00  0.00    +0.156 HD
BRANCH   7  29
ATOM     29  C   UNL     1      -9.077  -8.577  16.287  0.00  0.00    +0.038 A 
ATOM     33  C   UNL     1      -9.622  -8.813  15.024  0.00  0.00    +0.069 A 
ATOM     34  C   UNL     1      -9.853  -7.981  17.281  0.00  0.00    +0.023 A 
ATOM     35  C   UNL     1     -10.943  -8.454  14.756  0.00  0.00    +0.122 A 
ATOM     36  C   UNL     1     -11.174  -7.621  17.013  0.00  0.00    +0.005 A 
ATOM     37  C   UNL     1     -11.719  -7.858  15.751  0.00  0.00    +0.046 A 
BRANCH  35   3
ATOM      3  O   UNL     1     -11.474  -8.684  13.525  0.00  0.00    -0.495 OA
ATOM     38  C   UNL     1     -12.317  -7.669  12.981  0.00  0.00    +0.277 C 
ENDBRANCH  35   3
ENDBRANCH   7  29
ENDBRANCH  17   4
ENDBRANCH  10  17
TORSDOF 7
ENDMDL
MODEL 6
REMARK VINA RESULT:      -7.3     23.666     27.643
REMARK  Name = 45783895
REMARK  11 active torsions:
REMARK  status: ('A' for Active; 'I' for Inactive)
REMARK    1  A    between atoms: O_3  and  C_35
REMARK    2  A    between atoms: O_3  and  C_38
REMARK    3  A    between atoms: N_4  and  C_17
REMARK    4  A    between atoms: N_7  and  C_29
REMARK    5  A    between atoms: C_9  and  C_13
REMARK    6  A    between atoms: C_10  and  C_17
REMARK    7  A    between atoms: C_12  and  C_16
REMARK    8  A    between atoms: C_13  and  C_18
REMARK    9  A    between atoms: C_13  and  C_19
REMARK   10  A    between atoms: C_14  and  C_20
REMARK   11  A    between atoms: C_16  and  C_21
REMARK                            x       y       z     vdW  Elec       q    Type
REMARK                         _______ _______ _______ _____ _____    ______ ____
ROOT
ATOM      9  C   UNL     1       8.873   8.576   4.762  0.00  0.00    +0.000 C 
ATOM     10  C   UNL     1       8.511   9.260   6.104  0.00  0.00    +0.032 C 
ATOM     11  C   UNL     1       8.415   7.109   4.766  0.00  0.00    +0.012 C 
ATOM     12  C   UNL     1       9.053   6.303   5.912  0.00  0.00    +0.023 C 
ATOM     14  C   UNL     1       8.973   7.041   7.233  0.00  0.00    -0.073 C 
ATOM     15  C   UNL     1       8.716   8.360   7.299  0.00  0.00    -0.022 C 
ATOM     20  C   UNL     1       9.149   6.220   8.479  0.00  0.00    +0.039 C 
ENDROOT
BRANCH   9  13
ATOM     13  C   UNL     1       8.256   9.308   3.565  0.00  0.00    -0.013 C 
ATOM     18  C   UNL     1       8.446   8.496   2.288  0.00  0.00    +0.007 C 
ATOM     19  C   UNL     1       6.778   9.584   3.816  0.00  0.00    +0.007 C 
ENDBRANCH   9  13
BRANCH  12  16
ATOM     16  C   UNL     1      10.502   5.926   5.582  0.00  0.00    +0.103 C 
BRANCH  16  21
ATOM      1  O   UNL     1       9.987   3.659   5.096  0.00  0.00    -0.276 OA
ATOM      5  N   UNL     1      11.170   4.830   3.475  0.00  0.00    -0.298 N 
ATOM      6  N   UNL     1      12.676   4.930   1.005  0.00  0.00    -0.312 N 
ATOM      8  N   UNL     1      14.507   4.159  -0.274  0.00  0.00    -0.240 NA
ATOM     21  C   UNL     1      10.525   4.697   4.705  0.00  0.00    +0.216 C 
ATOM     22  C   UNL     1      11.809   6.065   3.013  0.00  0.00    +0.126 C 
ATOM     23  C   UNL     1      11.243   3.685   2.572  0.00  0.00    +0.126 C 
ATOM     24  C   UNL     1      11.970   6.116   1.493  0.00  0.00    +0.125 C 
ATOM     25  C   UNL     1      12.535   3.681   1.758  0.00  0.00    +0.125 C 
ATOM     27  C   UNL     1      13.433   4.975  -0.163  0.00  0.00    +0.121 A 
ATOM     28  C   UNL     1      13.031   5.863  -1.147  0.00  0.00    +0.043 A 
ATOM     30  C   UNL     1      13.777   5.920  -2.319  0.00  0.00    +0.005 A 
ATOM     31  C   UNL     1      15.208   4.242  -1.427  0.00  0.00    +0.113 A 
ATOM     32  C   UNL     1      14.888   5.097  -2.470  0.00  0.00    +0.020 A 
ENDBRANCH  16  21
ENDBRANCH  12  16
BRANCH  10  17
ATOM     17  C   UNL     1       9.307  10.556   6.297  0.00  0.00    +0.113 C 
BRANCH  17   4
ATOM      2  O   UNL     1      11.797  10.593   4.883  0.00  0.00    -0.253 OA
ATOM      4  N   UNL     1      10.601  10.280   6.838  0.00  0.00    -0.299 N 
ATOM      7  N   UNL     1      12.893  10.004   6.874  0.00  0.00    -0.269 N 
ATOM     26  C   UNL     1      11.786  10.317   6.080  0.00  0.00    +0.304 C 
ATOM     39  H   UNL     1      10.667  10.017   7.816  0.00  0.00    +0.150 HD
ATOM     40  H   UNL     1      12.709   9.800   7.853  0.00  0.00    +0.156 HD
BRANCH   7  29
ATOM     29  C   UNL     1      14.250   9.936   6.482  0.00  0.00    +0.038 A 
ATOM     33  C   UNL     1      14.696   8.875   5.693  0.00  0.00    +0.069 A 
ATOM     34  C   UNL     1      15.144  10.929   6.884  0.00  0.00    +0.023 A 
ATOM     35  C   UNL     1      16.034   8.808   5.306  0.00  0.00    +0.122 A 
ATOM     36  C   UNL     1      16.483  10.861   6.498  0.00  0.00    +0.005 A 
ATOM     37  C   UNL     1      16.927   9.801   5.709  0.00  0.00    +0.046 A 
BRANCH  35   3
ATOM      3  O   UNL     1      16.469   7.773   4.537  0.00  0.00    -0.495 OA
ATOM     38  C   UNL     1      15.477   7.016   3.844  0.00  0.00    +0.277 C 
ENDBRANCH  35   3
ENDBRANCH   7  29
ENDBRANCH  17   4
ENDBRANCH  10  17
TORSDOF 7
ENDMDL
MODEL 7
REMARK VINA RESULT:      -7.3      2.166      2.917
REMARK  Name = 45783895
REMARK  11 active torsions:
REMARK  status: ('A' for Active; 'I' for Inactive)
REMARK    1  A    between atoms: O_3  and  C_35
REMARK    2  A    between atoms: O_3  and  C_38
REMARK    3  A    between atoms: N_4  and  C_17
REMARK    4  A    between atoms: N_7  and  C_29
REMARK    5  A    between atoms: C_9  and  C_13
REMARK    6  A    between atoms: C_10  and  C_17
REMARK    7  A    between atoms: C_12  and  C_16
REMARK    8  A    between atoms: C_13  and  C_18
REMARK    9  A    between atoms: C_13  and  C_19
REMARK   10  A    between atoms: C_14  and  C_20
REMARK   11  A    between atoms: C_16  and  C_21
REMARK                            x       y       z     vdW  Elec       q    Type
REMARK                         _______ _______ _______ _____ _____    ______ ____
ROOT
ATOM      9  C   UNL     1      -2.960 -12.541  13.173  0.00  0.00    +0.000 C 
ATOM     10  C   UNL     1      -1.775 -11.551  13.297  0.00  0.00    +0.032 C 
ATOM     11  C   UNL     1      -3.321 -12.764  11.696  0.00  0.00    +0.012 C 
ATOM     12  C   UNL     1      -3.704 -11.453  10.986  0.00  0.00    +0.023 C 
ATOM     14  C   UNL     1      -2.716 -10.342  11.281  0.00  0.00    -0.073 C 
ATOM     15  C   UNL     1      -1.853 -10.411  12.310  0.00  0.00    -0.022 C 
ATOM     20  C   UNL     1      -2.712  -9.172  10.339  0.00  0.00    +0.039 C 
ENDROOT
BRANCH   9  13
ATOM     13  C   UNL     1      -2.651 -13.886  13.840  0.00  0.00    -0.013 C 
ATOM     18  C   UNL     1      -3.944 -14.606  14.211  0.00  0.00    +0.007 C 
ATOM     19  C   UNL     1      -1.794 -14.750  12.922  0.00  0.00    +0.007 C 
ENDBRANCH   9  13
BRANCH  12  16
ATOM     16  C   UNL     1      -5.132 -11.027  11.346  0.00  0.00    +0.103 C 
BRANCH  16  21
ATOM      1  O   UNL     1      -6.475 -12.889  10.739  0.00  0.00    -0.276 OA
ATOM      5  N   UNL     1      -6.580 -11.029   9.349  0.00  0.00    -0.298 N 
ATOM      6  N   UNL     1      -7.423  -9.730   6.903  0.00  0.00    -0.312 N 
ATOM      8  N   UNL     1      -7.456  -9.703   4.542  0.00  0.00    -0.240 NA
ATOM     21  C   UNL     1      -6.121 -11.742  10.457  0.00  0.00    +0.216 C 
ATOM     22  C   UNL     1      -6.157  -9.666   9.017  0.00  0.00    +0.126 C 
ATOM     23  C   UNL     1      -7.533 -11.654   8.436  0.00  0.00    +0.126 C 
ATOM     24  C   UNL     1      -7.152  -8.943   8.108  0.00  0.00    +0.125 C 
ATOM     25  C   UNL     1      -7.331 -11.190   6.995  0.00  0.00    +0.125 C 
ATOM     27  C   UNL     1      -7.795  -9.114   5.711  0.00  0.00    +0.121 A 
ATOM     28  C   UNL     1      -8.498  -7.924   5.803  0.00  0.00    +0.043 A 
ATOM     30  C   UNL     1      -8.876  -7.297   4.621  0.00  0.00    +0.005 A 
ATOM     31  C   UNL     1      -7.839  -9.065   3.414  0.00  0.00    +0.113 A 
ATOM     32  C   UNL     1      -8.544  -7.872   3.399  0.00  0.00    +0.020 A 
ENDBRANCH  16  21
ENDBRANCH  12  16
BRANCH  10  17
ATOM     17  C   UNL     1      -1.670 -10.990  14.720  0.00  0.00    +0.113 C 
BRANCH  17   4
ATOM      2  O   UNL     1      -3.654 -11.862  16.592  0.00  0.00    -0.253 OA
ATOM      4  N   UNL     1      -2.866 -10.297  15.082  0.00  0.00    -0.299 N 
ATOM      7  N   UNL     1      -4.866  -9.897  16.163  0.00  0.00    -0.269 N 
ATOM     26  C   UNL     1      -3.800 -10.788  16.013  0.00  0.00    +0.304 C 
ATOM     39  H   UNL     1      -3.067  -9.414  14.622  0.00  0.00    +0.150 HD
ATOM     40  H   UNL     1      -4.832  -9.047  15.607  0.00  0.00    +0.156 HD
BRANCH   7  29
ATOM     29  C   UNL     1      -5.997 -10.032  17.002  0.00  0.00    +0.038 A 
ATOM     33  C   UNL     1      -7.254  -9.633  16.547  0.00  0.00    +0.069 A 
ATOM     34  C   UNL     1      -5.856 -10.563  18.284  0.00  0.00    +0.023 A 
ATOM     35  C   UNL     1      -8.370  -9.766  17.373  0.00  0.00    +0.122 A 
ATOM     36  C   UNL     1      -6.972 -10.696  19.111  0.00  0.00    +0.005 A 
ATOM     37  C   UNL     1      -8.228 -10.297  18.655  0.00  0.00    +0.046 A 
BRANCH  35   3
ATOM      3  O   UNL     1      -9.596  -9.376  16.929  0.00  0.00    -0.495 OA
ATOM     38  C   UNL     1     -10.009  -8.047  17.247  0.00  0.00    +0.277 C 
ENDBRANCH  35   3
ENDBRANCH   7  29
ENDBRANCH  17   4
ENDBRANCH  10  17
TORSDOF 7
ENDMDL
MODEL 8
REMARK VINA RESULT:      -7.1     24.316     28.628
REMARK  Name = 45783895
REMARK  11 active torsions:
REMARK  status: ('A' for Active; 'I' for Inactive)
REMARK    1  A    between atoms: O_3  and  C_35
REMARK    2  A    between atoms: O_3  and  C_38
REMARK    3  A    between atoms: N_4  and  C_17
REMARK    4  A    between atoms: N_7  and  C_29
REMARK    5  A    between atoms: C_9  and  C_13
REMARK    6  A    between atoms: C_10  and  C_17
REMARK    7  A    between atoms: C_12  and  C_16
REMARK    8  A    between atoms: C_13  and  C_18
REMARK    9  A    between atoms: C_13  and  C_19
REMARK   10  A    between atoms: C_14  and  C_20
REMARK   11  A    between atoms: C_16  and  C_21
REMARK                            x       y       z     vdW  Elec       q    Type
REMARK                         _______ _______ _______ _____ _____    ______ ____
ROOT
ATOM      9  C   UNL     1     -12.795   8.512  34.591  0.00  0.00    +0.000 C 
ATOM     10  C   UNL     1     -14.053   7.778  34.062  0.00  0.00    +0.032 C 
ATOM     11  C   UNL     1     -12.792   9.976  34.124  0.00  0.00    +0.012 C 
ATOM     12  C   UNL     1     -12.819  10.098  32.589  0.00  0.00    +0.023 C 
ATOM     14  C   UNL     1     -13.866   9.192  31.970  0.00  0.00    -0.073 C 
ATOM     15  C   UNL     1     -14.415   8.170  32.650  0.00  0.00    -0.022 C 
ATOM     20  C   UNL     1     -14.298   9.517  30.568  0.00  0.00    +0.039 C 
ENDROOT
BRANCH   9  13
ATOM     13  C   UNL     1     -12.703   8.455  36.119  0.00  0.00    -0.013 C 
ATOM     18  C   UNL     1     -11.305   8.026  36.552  0.00  0.00    +0.007 C 
ATOM     19  C   UNL     1     -13.067   9.806  36.725  0.00  0.00    +0.007 C 
ENDBRANCH   9  13
BRANCH  12  16
ATOM     16  C   UNL     1     -11.435   9.827  31.989  0.00  0.00    +0.103 C 
BRANCH  16  21
ATOM      1  O   UNL     1     -11.355  11.787  30.650  0.00  0.00    -0.276 OA
ATOM      5  N   UNL     1      -9.625  11.492  32.173  0.00  0.00    -0.298 N 
ATOM      6  N   UNL     1      -7.051  12.237  33.269  0.00  0.00    -0.312 N 
ATOM      8  N   UNL     1      -4.749  12.633  32.921  0.00  0.00    -0.240 NA
ATOM     21  C   UNL     1     -10.809  11.124  31.536  0.00  0.00    +0.216 C 
ATOM     22  C   UNL     1      -8.979  10.703  33.225  0.00  0.00    +0.126 C 
ATOM     23  C   UNL     1      -8.954  12.730  31.786  0.00  0.00    +0.126 C 
ATOM     24  C   UNL     1      -8.036  11.534  34.095  0.00  0.00    +0.125 C 
ATOM     25  C   UNL     1      -7.435  12.617  31.907  0.00  0.00    +0.125 C 
ATOM     27  C   UNL     1      -5.796  12.570  33.774  0.00  0.00    +0.121 A 
ATOM     28  C   UNL     1      -5.704  12.817  35.134  0.00  0.00    +0.043 A 
ATOM     30  C   UNL     1      -4.457  13.150  35.652  0.00  0.00    +0.005 A 
ATOM     31  C   UNL     1      -3.553  12.959  33.460  0.00  0.00    +0.113 A 
ATOM     32  C   UNL     1      -3.356  13.224  34.806  0.00  0.00    +0.020 A 
ENDBRANCH  16  21
ENDBRANCH  12  16
BRANCH  10  17
ATOM     17  C   UNL     1     -13.881   6.257  34.144  0.00  0.00    +0.113 C 
BRANCH  17   4
ATOM      2  O   UNL     1     -15.487   4.019  33.358  0.00  0.00    -0.253 OA
ATOM      4  N   UNL     1     -13.949   5.669  32.843  0.00  0.00    -0.299 N 
ATOM      7  N   UNL     1     -14.622   4.211  31.184  0.00  0.00    -0.269 N 
ATOM     26  C   UNL     1     -14.764   4.565  32.529  0.00  0.00    +0.304 C 
ATOM     39  H   UNL     1     -13.357   6.050  32.112  0.00  0.00    +0.150 HD
ATOM     40  H   UNL     1     -13.980   4.771  30.630  0.00  0.00    +0.156 HD
BRANCH   7  29
ATOM     29  C   UNL     1     -15.270   3.162  30.491  0.00  0.00    +0.038 A 
ATOM     33  C   UNL     1     -14.748   1.869  30.538  0.00  0.00    +0.069 A 
ATOM     34  C   UNL     1     -16.430   3.420  29.759  0.00  0.00    +0.023 A 
ATOM     35  C   UNL     1     -15.386   0.834  29.855  0.00  0.00    +0.122 A 
ATOM     36  C   UNL     1     -17.067   2.384  29.075  0.00  0.00    +0.005 A 
ATOM     37  C   UNL     1     -16.545   1.092  29.123  0.00  0.00    +0.046 A 
BRANCH  35   3
ATOM      3  O   UNL     1     -14.876  -0.427  29.901  0.00  0.00    -0.495 OA
ATOM     38  C   UNL     1     -13.457  -0.558  29.830  0.00  0.00    +0.277 C 
ENDBRANCH  35   3
ENDBRANCH   7  29
ENDBRANCH  17   4
ENDBRANCH  10  17
TORSDOF 7
ENDMDL
MODEL 9
REMARK VINA RESULT:      -7.1      2.597      3.936
REMARK  Name = 45783895
REMARK  11 active torsions:
REMARK  status: ('A' for Active; 'I' for Inactive)
REMARK    1  A    between atoms: O_3  and  C_35
REMARK    2  A    between atoms: O_3  and  C_38
REMARK    3  A    between atoms: N_4  and  C_17
REMARK    4  A    between atoms: N_7  and  C_29
REMARK    5  A    between atoms: C_9  and  C_13
REMARK    6  A    between atoms: C_10  and  C_17
REMARK    7  A    between atoms: C_12  and  C_16
REMARK    8  A    between atoms: C_13  and  C_18
REMARK    9  A    between atoms: C_13  and  C_19
REMARK   10  A    between atoms: C_14  and  C_20
REMARK   11  A    between atoms: C_16  and  C_21
REMARK                            x       y       z     vdW  Elec       q    Type
REMARK                         _______ _______ _______ _____ _____    ______ ____
ROOT
ATOM      9  C   UNL     1      -5.992 -11.139  14.958  0.00  0.00    +0.000 C 
ATOM     10  C   UNL     1      -5.634 -10.896  16.446  0.00  0.00    +0.032 C 
ATOM     11  C   UNL     1      -4.931 -12.028  14.290  0.00  0.00    +0.012 C 
ATOM     12  C   UNL     1      -3.524 -11.406  14.358  0.00  0.00    +0.023 C 
ATOM     14  C   UNL     1      -3.201 -10.894  15.748  0.00  0.00    -0.073 C 
ATOM     15  C   UNL     1      -4.156 -10.686  16.671  0.00  0.00    -0.022 C 
ATOM     20  C   UNL     1      -1.749 -10.671  16.066  0.00  0.00    +0.039 C 
ENDROOT
BRANCH   9  13
ATOM     13  C   UNL     1      -7.376 -11.779  14.803  0.00  0.00    -0.013 C 
ATOM     18  C   UNL     1      -7.634 -12.141  13.344  0.00  0.00    +0.007 C 
ATOM     19  C   UNL     1      -7.497 -13.009  15.696  0.00  0.00    +0.007 C 
ENDBRANCH   9  13
BRANCH  12  16
ATOM     16  C   UNL     1      -3.359 -10.297  13.313  0.00  0.00    +0.103 C 
BRANCH  16  21
ATOM      1  O   UNL     1      -2.972 -11.740  11.468  0.00  0.00    -0.276 OA
ATOM      5  N   UNL     1      -4.753 -10.260  11.278  0.00  0.00    -0.298 N 
ATOM      6  N   UNL     1      -6.840  -8.983   9.732  0.00  0.00    -0.312 N 
ATOM      8  N   UNL     1      -7.458  -7.715   7.837  0.00  0.00    -0.240 NA
ATOM     21  C   UNL     1      -3.667 -10.837  11.938  0.00  0.00    +0.216 C 
ATOM     22  C   UNL     1      -5.578  -9.187  11.839  0.00  0.00    +0.126 C 
ATOM     23  C   UNL     1      -5.111 -10.723   9.940  0.00  0.00    +0.126 C 
ATOM     24  C   UNL     1      -6.958  -9.099  11.187  0.00  0.00    +0.125 C 
ATOM     25  C   UNL     1      -5.680  -9.596   9.080  0.00  0.00    +0.125 C 
ATOM     27  C   UNL     1      -7.820  -8.339   8.981  0.00  0.00    +0.121 A 
ATOM     28  C   UNL     1      -9.119  -8.381   9.462  0.00  0.00    +0.043 A 
ATOM     30  C   UNL     1     -10.109  -7.743   8.723  0.00  0.00    +0.005 A 
ATOM     31  C   UNL     1      -8.446  -7.105   7.146  0.00  0.00    +0.113 A 
ATOM     32  C   UNL     1      -9.774  -7.090   7.541  0.00  0.00    +0.020 A 
ENDBRANCH  16  21
ENDBRANCH  12  16
BRANCH  10  17
ATOM     17  C   UNL     1      -6.413  -9.703  17.014  0.00  0.00    +0.113 C 
BRANCH  17   4
ATOM      2  O   UNL     1      -9.231 -10.152  17.249  0.00  0.00    -0.253 OA
ATOM      4  N   UNL     1      -7.123 -10.078  18.196  0.00  0.00    -0.299 N 
ATOM      7  N   UNL     1      -8.925 -10.639  19.525  0.00  0.00    -0.269 N 
ATOM     26  C   UNL     1      -8.514 -10.282  18.237  0.00  0.00    +0.304 C 
ATOM     39  H   UNL     1      -6.599 -10.177  19.060  0.00  0.00    +0.150 HD
ATOM     40  H   UNL     1      -8.200 -10.705  20.233  0.00  0.00    +0.156 HD
BRANCH   7  29
ATOM     29  C   UNL     1     -10.238 -10.926  19.967  0.00  0.00    +0.038 A 
ATOM     33  C   UNL     1     -10.565 -12.214  20.393  0.00  0.00    +0.069 A 
ATOM     34  C   UNL     1     -11.207  -9.922  19.976  0.00  0.00    +0.023 A 
ATOM     35  C   UNL     1     -11.858 -12.497  20.830  0.00  0.00    +0.122 A 
ATOM     36  C   UNL     1     -12.502 -10.205  20.412  0.00  0.00    +0.005 A 
ATOM     37  C   UNL     1     -12.827 -11.493  20.839  0.00  0.00    +0.046 A 
BRANCH  35   3
ATOM      3  O   UNL     1     -12.177 -13.753  21.245  0.00  0.00    -0.495 OA
ATOM     38  C   UNL     1     -11.812 -14.110  22.577  0.00  0.00    +0.277 C 
ENDBRANCH  35   3
ENDBRANCH   7  29
ENDBRANCH  17   4
ENDBRANCH  10  17
TORSDOF 7
ENDMDL
MODEL 10
REMARK VINA RESULT:      -7.0      4.523     10.997
REMARK  Name = 45783895
REMARK  11 active torsions:
REMARK  status: ('A' for Active; 'I' for Inactive)
REMARK    1  A    between atoms: O_3  and  C_35
REMARK    2  A    between atoms: O_3  and  C_38
REMARK    3  A    between atoms: N_4  and  C_17
REMARK    4  A    between atoms: N_7  and  C_29
REMARK    5  A    between atoms: C_9  and  C_13
REMARK    6  A    between atoms: C_10  and  C_17
REMARK    7  A    between atoms: C_12  and  C_16
REMARK    8  A    between atoms: C_13  and  C_18
REMARK    9  A    between atoms: C_13  and  C_19
REMARK   10  A    between atoms: C_14  and  C_20
REMARK   11  A    between atoms: C_16  and  C_21
REMARK                            x       y       z     vdW  Elec       q    Type
REMARK                         _______ _______ _______ _____ _____    ______ ____
ROOT
ATOM      9  C   UNL     1     -12.909 -10.145  18.277  0.00  0.00    +0.000 C 
ATOM     10  C   UNL     1     -12.884  -8.824  17.466  0.00  0.00    +0.032 C 
ATOM     11  C   UNL     1     -11.820 -10.131  19.360  0.00  0.00    +0.012 C 
ATOM     12  C   UNL     1     -10.411  -9.950  18.767  0.00  0.00    +0.023 C 
ATOM     14  C   UNL     1     -10.368  -8.827  17.749  0.00  0.00    -0.073 C 
ATOM     15  C   UNL     1     -11.484  -8.328  17.190  0.00  0.00    -0.022 C 
ATOM     20  C   UNL     1      -9.014  -8.260  17.424  0.00  0.00    +0.039 C 
ENDROOT
BRANCH   9  13
ATOM     13  C   UNL     1     -14.278 -10.391  18.920  0.00  0.00    -0.013 C 
ATOM     18  C   UNL     1     -14.459 -11.872  19.235  0.00  0.00    +0.007 C 
ATOM     19  C   UNL     1     -14.433  -9.547  20.180  0.00  0.00    +0.007 C 
ENDBRANCH   9  13
BRANCH  12  16
ATOM     16  C   UNL     1      -9.894 -11.259  18.162  0.00  0.00    +0.103 C 
BRANCH  16  21
ATOM      1  O   UNL     1      -8.746 -12.038  20.089  0.00  0.00    -0.276 OA
ATOM      5  N   UNL     1      -7.476 -11.745  18.166  0.00  0.00    -0.298 N 
ATOM      6  N   UNL     1      -4.927 -11.628  16.798  0.00  0.00    -0.312 N 
ATOM      8  N   UNL     1      -2.768 -10.685  16.633  0.00  0.00    -0.240 NA
ATOM     21  C   UNL     1      -8.660 -11.716  18.902  0.00  0.00    +0.216 C 
ATOM     22  C   UNL     1      -7.377 -11.362  16.755  0.00  0.00    +0.126 C 
ATOM     23  C   UNL     1      -6.236 -12.168  18.812  0.00  0.00    +0.126 C 
ATOM     24  C   UNL     1      -6.151 -11.959  16.064  0.00  0.00    +0.125 C 
ATOM     25  C   UNL     1      -5.020 -11.437  18.248  0.00  0.00    +0.125 C 
ATOM     27  C   UNL     1      -3.700 -11.534  16.145  0.00  0.00    +0.121 A 
ATOM     28  C   UNL     1      -3.515 -12.328  15.025  0.00  0.00    +0.043 A 
ATOM     30  C   UNL     1      -2.295 -12.244  14.362  0.00  0.00    +0.005 A 
ATOM     31  C   UNL     1      -1.595 -10.630  15.963  0.00  0.00    +0.113 A 
ATOM     32  C   UNL     1      -1.312 -11.382  14.834  0.00  0.00    +0.020 A 
ENDBRANCH  16  21
ENDBRANCH  12  16
BRANCH  10  17
ATOM     17  C   UNL     1     -13.645  -8.972  16.144  0.00  0.00    +0.113 C 
BRANCH  17   4
ATOM      2  O   UNL     1     -12.672  -7.643  13.801  0.00  0.00    -0.253 OA
ATOM      4  N   UNL     1     -14.058  -7.695  15.652  0.00  0.00    -0.299 N 
ATOM      7  N   UNL     1     -14.125  -5.857  14.257  0.00  0.00    -0.269 N 
ATOM     26  C   UNL     1     -13.533  -7.102  14.489  0.00  0.00    +0.304 C 
ATOM     39  H   UNL     1     -14.748  -7.175  16.185  0.00  0.00    +0.150 HD
ATOM     40  H   UNL     1     -14.827  -5.554  14.926  0.00  0.00    +0.156 HD
BRANCH   7  29
ATOM     29  C   UNL     1     -13.867  -4.959  13.195  0.00  0.00    +0.038 A 
ATOM     33  C   UNL     1     -14.893  -4.601  12.320  0.00  0.00    +0.069 A 
ATOM     34  C   UNL     1     -12.587  -4.432  13.021  0.00  0.00    +0.023 A 
ATOM     35  C   UNL     1     -14.640  -3.715  11.273  0.00  0.00    +0.122 A 
ATOM     36  C   UNL     1     -12.333  -3.547  11.973  0.00  0.00    +0.005 A 
ATOM     37  C   UNL     1     -13.359  -3.189  11.099  0.00  0.00    +0.046 A 
BRANCH  35   3
ATOM      3  O   UNL     1     -15.640  -3.367  10.419  0.00  0.00    -0.495 OA
ATOM     38  C   UNL     1     -16.036  -1.996  10.407  0.00  0.00    +0.277 C 
ENDBRANCH  35   3
ENDBRANCH   7  29
ENDBRANCH  17   4
ENDBRANCH  10  17
TORSDOF 7
ENDMDL
