MODEL 1
REMARK VINA RESULT:      -6.9      0.000      0.000
REMARK  Name = 45360893
REMARK  9 active torsions:
REMARK  status: ('A' for Active; 'I' for Inactive)
REMARK    1  A    between atoms: N_3  and  C_12
REMARK    2  A    between atoms: N_4  and  C_17
REMARK    3  A    between atoms: C_11  and  C_16
REMARK    4  A    between atoms: C_12  and  C_14
REMARK    5  A    between atoms: C_14  and  C_19
REMARK    6  A    between atoms: C_14  and  C_20
REMARK    7  A    between atoms: C_14  and  C_21
REMARK    8  A    between atoms: C_16  and  C_18
REMARK    9  A    between atoms: C_18  and  C_22
REMARK                            x       y       z     vdW  Elec       q    Type
REMARK                         _______ _______ _______ _____ _____    ______ ____
ROOT
ATOM      1  O   UNL     1      -5.953  -9.597  13.244  0.00  0.00    -0.274 OA
ATOM      3  N   UNL     1      -3.785 -10.299  11.796  0.00  0.00    -0.290 NA
ATOM      4  N   UNL     1      -2.963 -10.941  15.304  0.00  0.00    -0.296 NA
ATOM      5  N   UNL     1      -5.765 -11.321  14.737  0.00  0.00    -0.312 N 
ATOM      7  C   UNL     1      -2.816 -11.162  13.848  0.00  0.00    +0.084 C 
ATOM      8  C   UNL     1      -4.096 -11.146  12.962  0.00  0.00    +0.160 C 
ATOM      9  C   UNL     1      -1.928 -10.118  13.144  0.00  0.00    +0.036 C 
ATOM     10  C   UNL     1      -2.332 -10.235  11.689  0.00  0.00    +0.087 C 
ATOM     11  C   UNL     1      -3.748 -11.992  16.009  0.00  0.00    +0.074 C 
ATOM     13  C   UNL     1      -5.345 -10.589  13.643  0.00  0.00    +0.232 C 
ATOM     15  C   UNL     1      -5.027 -12.445  15.279  0.00  0.00    +0.123 C 
ATOM     17  C   UNL     1      -1.646 -10.774  15.942  0.00  0.00    +0.105 C 
ATOM     31  H   UNL     1      -6.634 -11.050  15.187  0.00  0.00    +0.149 HD
ENDROOT
BRANCH   3  12
ATOM     12  C   UNL     1      -4.405 -10.765  10.562  0.00  0.00    +0.091 C 
BRANCH  12  14
ATOM     14  C   UNL     1      -5.201  -9.672   9.803  0.00  0.00    -0.025 C 
ATOM     19  C   UNL     1      -6.714  -9.943   9.883  0.00  0.00    +0.012 C 
ATOM     20  C   UNL     1      -4.906  -8.272  10.369  0.00  0.00    +0.012 C 
ATOM     21  C   UNL     1      -4.773  -9.702   8.323  0.00  0.00    +0.012 C 
ENDBRANCH  12  14
ENDBRANCH   3  12
BRANCH  11  16
ATOM     16  C   UNL     1      -4.164 -11.501  17.412  0.00  0.00    +0.029 C 
BRANCH  16  18
ATOM     18  C   UNL     1      -5.214 -10.410  17.344  0.00  0.00    +0.098 C 
BRANCH  18  22
ATOM      2  O   UNL     1      -6.290 -11.562  19.115  0.00  0.00    -0.275 OA
ATOM      6  N   UNL     1      -7.583 -10.091  17.846  0.00  0.00    -0.271 N 
ATOM     22  C   UNL     1      -6.414 -10.751  18.196  0.00  0.00    +0.220 C 
ATOM     23  C   UNL     1      -7.730  -9.118  16.743  0.00  0.00    +0.118 C 
ATOM     24  C   UNL     1      -8.835 -10.235  18.480  0.00  0.00    +0.039 A 
ATOM     25  C   UNL     1      -9.187  -8.642  16.730  0.00  0.00    +0.056 C 
ATOM     26  C   UNL     1      -9.781  -9.414  17.862  0.00  0.00    -0.024 A 
ATOM     27  C   UNL     1      -9.191 -11.033  19.558  0.00  0.00    +0.024 A 
ATOM     28  C   UNL     1     -11.096  -9.372  18.300  0.00  0.00    +0.005 A 
ATOM     29  C   UNL     1     -10.515 -10.997  20.006  0.00  0.00    +0.002 A 
ATOM     30  C   UNL     1     -11.461 -10.173  19.382  0.00  0.00    +0.000 A 
ENDBRANCH  18  22
ENDBRANCH  16  18
ENDBRANCH  11  16
TORSDOF 5
ENDMDL
MODEL 2
REMARK VINA RESULT:      -6.9      1.080      1.991
REMARK  Name = 45360893
REMARK  9 active torsions:
REMARK  status: ('A' for Active; 'I' for Inactive)
REMARK    1  A    between atoms: N_3  and  C_12
REMARK    2  A    between atoms: N_4  and  C_17
REMARK    3  A    between atoms: C_11  and  C_16
REMARK    4  A    between atoms: C_12  and  C_14
REMARK    5  A    between atoms: C_14  and  C_19
REMARK    6  A    between atoms: C_14  and  C_20
REMARK    7  A    between atoms: C_14  and  C_21
REMARK    8  A    between atoms: C_16  and  C_18
REMARK    9  A    between atoms: C_18  and  C_22
REMARK                            x       y       z     vdW  Elec       q    Type
REMARK                         _______ _______ _______ _____ _____    ______ ____
ROOT
ATOM      1  O   UNL     1      -5.978  -9.195  12.711  0.00  0.00    -0.274 OA
ATOM      3  N   UNL     1      -3.969 -10.677  11.681  0.00  0.00    -0.290 NA
ATOM      4  N   UNL     1      -3.485 -10.619  15.308  0.00  0.00    -0.296 NA
ATOM      5  N   UNL     1      -6.269 -10.508  14.563  0.00  0.00    -0.312 N 
ATOM      7  C   UNL     1      -3.326 -11.209  13.961  0.00  0.00    +0.084 C 
ATOM      8  C   UNL     1      -4.524 -11.130  12.970  0.00  0.00    +0.160 C 
ATOM      9  C   UNL     1      -2.186 -10.583  13.134  0.00  0.00    +0.036 C 
ATOM     10  C   UNL     1      -2.539 -10.956  11.709  0.00  0.00    +0.087 C 
ATOM     11  C   UNL     1      -4.526 -11.273  16.148  0.00  0.00    +0.074 C 
ATOM     13  C   UNL     1      -5.639 -10.169  13.381  0.00  0.00    +0.232 C 
ATOM     15  C   UNL     1      -5.840 -11.601  15.413  0.00  0.00    +0.123 C 
ATOM     17  C   UNL     1      -2.197 -10.592  16.022  0.00  0.00    +0.105 C 
ATOM     31  H   UNL     1      -7.070  -9.955  14.851  0.00  0.00    +0.149 HD
ENDROOT
BRANCH   3  12
ATOM     12  C   UNL     1      -4.623 -11.280  10.527  0.00  0.00    +0.091 C 
BRANCH  12  14
ATOM     14  C   UNL     1      -4.979 -10.272   9.404  0.00  0.00    -0.025 C 
ATOM     19  C   UNL     1      -4.259  -8.930   9.626  0.00  0.00    +0.012 C 
ATOM     20  C   UNL     1      -4.604 -10.824   8.018  0.00  0.00    +0.012 C 
ATOM     21  C   UNL     1      -6.499 -10.027   9.439  0.00  0.00    +0.012 C 
ENDBRANCH  12  14
ENDBRANCH   3  12
BRANCH  11  16
ATOM     16  C   UNL     1      -4.881 -10.381  17.357  0.00  0.00    +0.029 C 
BRANCH  16  18
ATOM     18  C   UNL     1      -5.918 -11.028  18.254  0.00  0.00    +0.098 C 
BRANCH  18  22
ATOM      2  O   UNL     1      -7.355  -9.332  17.431  0.00  0.00    -0.275 OA
ATOM      6  N   UNL     1      -8.305 -10.988  18.773  0.00  0.00    -0.271 N 
ATOM     22  C   UNL     1      -7.263 -10.358  18.107  0.00  0.00    +0.220 C 
ATOM     23  C   UNL     1      -8.193 -12.219  19.583  0.00  0.00    +0.118 C 
ATOM     24  C   UNL     1      -9.650 -10.564  18.794  0.00  0.00    +0.039 A 
ATOM     25  C   UNL     1      -9.588 -12.554  20.121  0.00  0.00    +0.056 C 
ATOM     26  C   UNL     1     -10.416 -11.444  19.562  0.00  0.00    -0.024 A 
ATOM     27  C   UNL     1     -10.237  -9.464  18.184  0.00  0.00    +0.024 A 
ATOM     28  C   UNL     1     -11.778 -11.247  19.740  0.00  0.00    +0.005 A 
ATOM     29  C   UNL     1     -11.609  -9.259  18.359  0.00  0.00    +0.002 A 
ATOM     30  C   UNL     1     -12.374 -10.144  19.131  0.00  0.00    +0.000 A 
ENDBRANCH  18  22
ENDBRANCH  16  18
ENDBRANCH  11  16
TORSDOF 5
ENDMDL
MODEL 3
REMARK VINA RESULT:      -6.9      2.812      8.985
REMARK  Name = 45360893
REMARK  9 active torsions:
REMARK  status: ('A' for Active; 'I' for Inactive)
REMARK    1  A    between atoms: N_3  and  C_12
REMARK    2  A    between atoms: N_4  and  C_17
REMARK    3  A    between atoms: C_11  and  C_16
REMARK    4  A    between atoms: C_12  and  C_14
REMARK    5  A    between atoms: C_14  and  C_19
REMARK    6  A    between atoms: C_14  and  C_20
REMARK    7  A    between atoms: C_14  and  C_21
REMARK    8  A    between atoms: C_16  and  C_18
REMARK    9  A    between atoms: C_18  and  C_22
REMARK                            x       y       z     vdW  Elec       q    Type
REMARK                         _______ _______ _______ _____ _____    ______ ____
ROOT
ATOM      1  O   UNL     1      -6.021 -12.467  14.977  0.00  0.00    -0.274 OA
ATOM      3  N   UNL     1      -4.006 -11.229  16.281  0.00  0.00    -0.290 NA
ATOM      4  N   UNL     1      -3.283 -10.941  12.704  0.00  0.00    -0.296 NA
ATOM      5  N   UNL     1      -6.112 -10.953  13.264  0.00  0.00    -0.312 N 
ATOM      7  C   UNL     1      -3.182 -10.505  14.115  0.00  0.00    +0.084 C 
ATOM      8  C   UNL     1      -4.446 -10.610  15.016  0.00  0.00    +0.160 C 
ATOM      9  C   UNL     1      -2.137 -11.284  14.937  0.00  0.00    +0.036 C 
ATOM     10  C   UNL     1      -2.563 -11.040  16.369  0.00  0.00    +0.087 C 
ATOM     11  C   UNL     1      -4.227 -10.139  11.878  0.00  0.00    +0.074 C 
ATOM     13  C   UNL     1      -5.583 -11.451  14.438  0.00  0.00    +0.232 C 
ATOM     15  C   UNL     1      -5.567  -9.807  12.563  0.00  0.00    +0.123 C 
ATOM     17  C   UNL     1      -1.953 -10.976  12.071  0.00  0.00    +0.105 C 
ATOM     31  H   UNL     1      -6.923 -11.421  12.869  0.00  0.00    +0.149 HD
ENDROOT
BRANCH   3  12
ATOM     12  C   UNL     1      -4.700 -10.709  17.451  0.00  0.00    +0.091 C 
BRANCH  12  14
ATOM     14  C   UNL     1      -4.936 -11.761  18.566  0.00  0.00    -0.025 C 
ATOM     19  C   UNL     1      -5.425 -13.091  17.966  0.00  0.00    +0.012 C 
ATOM     20  C   UNL     1      -3.652 -12.012  19.376  0.00  0.00    +0.012 C 
ATOM     21  C   UNL     1      -6.019 -11.221  19.518  0.00  0.00    +0.012 C 
ENDBRANCH  12  14
ENDBRANCH   3  12
BRANCH  11  16
ATOM     16  C   UNL     1      -4.550 -10.876  10.561  0.00  0.00    +0.029 C 
BRANCH  16  18
ATOM     18  C   UNL     1      -4.057 -10.113   9.348  0.00  0.00    +0.098 C 
BRANCH  18  22
ATOM      2  O   UNL     1      -5.824  -8.550   9.113  0.00  0.00    -0.275 OA
ATOM      6  N   UNL     1      -5.457 -10.032   7.347  0.00  0.00    -0.271 N 
ATOM     22  C   UNL     1      -5.204  -9.481   8.596  0.00  0.00    +0.220 C 
ATOM     23  C   UNL     1      -4.712 -11.149   6.729  0.00  0.00    +0.118 C 
ATOM     24  C   UNL     1      -6.469  -9.625   6.453  0.00  0.00    +0.039 A 
ATOM     25  C   UNL     1      -5.330 -11.418   5.353  0.00  0.00    +0.056 C 
ATOM     26  C   UNL     1      -6.424 -10.403   5.294  0.00  0.00    -0.024 A 
ATOM     27  C   UNL     1      -7.417  -8.621   6.593  0.00  0.00    +0.024 A 
ATOM     28  C   UNL     1      -7.319 -10.200   4.254  0.00  0.00    +0.005 A 
ATOM     29  C   UNL     1      -8.323  -8.410   5.548  0.00  0.00    +0.002 A 
ATOM     30  C   UNL     1      -8.274  -9.193   4.388  0.00  0.00    +0.000 A 
ENDBRANCH  18  22
ENDBRANCH  16  18
ENDBRANCH  11  16
TORSDOF 5
ENDMDL
MODEL 4
REMARK VINA RESULT:      -6.7      4.583      8.731
REMARK  Name = 45360893
REMARK  9 active torsions:
REMARK  status: ('A' for Active; 'I' for Inactive)
REMARK    1  A    between atoms: N_3  and  C_12
REMARK    2  A    between atoms: N_4  and  C_17
REMARK    3  A    between atoms: C_11  and  C_16
REMARK    4  A    between atoms: C_12  and  C_14
REMARK    5  A    between atoms: C_14  and  C_19
REMARK    6  A    between atoms: C_14  and  C_20
REMARK    7  A    between atoms: C_14  and  C_21
REMARK    8  A    between atoms: C_16  and  C_18
REMARK    9  A    between atoms: C_18  and  C_22
REMARK                            x       y       z     vdW  Elec       q    Type
REMARK                         _______ _______ _______ _____ _____    ______ ____
ROOT
ATOM      1  O   UNL     1      -8.059  -8.794  17.241  0.00  0.00    -0.274 OA
ATOM      3  N   UNL     1      -8.263 -11.116  18.604  0.00  0.00    -0.290 NA
ATOM      4  N   UNL     1     -11.671  -9.871  18.126  0.00  0.00    -0.296 NA
ATOM      5  N   UNL     1      -9.916  -9.153  15.953  0.00  0.00    -0.312 N 
ATOM      7  C   UNL     1     -10.671 -10.938  18.351  0.00  0.00    +0.084 C 
ATOM      8  C   UNL     1      -9.311 -10.851  17.600  0.00  0.00    +0.160 C 
ATOM      9  C   UNL     1     -10.218 -11.070  19.818  0.00  0.00    +0.036 C 
ATOM     10  C   UNL     1      -8.902 -11.811  19.715  0.00  0.00    +0.087 C 
ATOM     11  C   UNL     1     -12.180  -9.791  16.728  0.00  0.00    +0.074 C 
ATOM     13  C   UNL     1      -9.021  -9.502  16.945  0.00  0.00    +0.232 C 
ATOM     15  C   UNL     1     -11.101  -9.925  15.636  0.00  0.00    +0.123 C 
ATOM     17  C   UNL     1     -12.794  -9.998  19.071  0.00  0.00    +0.105 C 
ATOM     31  H   UNL     1      -9.734  -8.305  15.424  0.00  0.00    +0.149 HD
ENDROOT
BRANCH   3  12
ATOM     12  C   UNL     1      -7.128 -11.860  18.071  0.00  0.00    +0.091 C 
BRANCH  12  14
ATOM     14  C   UNL     1      -5.748 -11.264  18.452  0.00  0.00    -0.025 C 
ATOM     19  C   UNL     1      -5.135 -10.502  17.264  0.00  0.00    +0.012 C 
ATOM     20  C   UNL     1      -5.863 -10.315  19.658  0.00  0.00    +0.012 C 
ATOM     21  C   UNL     1      -4.809 -12.425  18.830  0.00  0.00    +0.012 C 
ENDBRANCH  12  14
ENDBRANCH   3  12
BRANCH  11  16
ATOM     16  C   UNL     1     -12.910  -8.450  16.498  0.00  0.00    +0.029 C 
BRANCH  16  18
ATOM     18  C   UNL     1     -13.354  -8.286  15.058  0.00  0.00    +0.098 C 
BRANCH  18  22
ATOM      2  O   UNL     1     -13.095  -5.948  15.349  0.00  0.00    -0.275 OA
ATOM      6  N   UNL     1     -12.813  -6.801  13.195  0.00  0.00    -0.271 N 
ATOM     22  C   UNL     1     -13.075  -6.890  14.555  0.00  0.00    +0.220 C 
ATOM     23  C   UNL     1     -12.790  -7.933  12.244  0.00  0.00    +0.118 C 
ATOM     24  C   UNL     1     -12.525  -5.618  12.483  0.00  0.00    +0.039 A 
ATOM     25  C   UNL     1     -12.453  -7.372  10.858  0.00  0.00    +0.056 C 
ATOM     26  C   UNL     1     -12.313  -5.912  11.134  0.00  0.00    -0.024 A 
ATOM     27  C   UNL     1     -12.438  -4.312  12.943  0.00  0.00    +0.024 A 
ATOM     28  C   UNL     1     -12.012  -4.915  10.218  0.00  0.00    +0.005 A 
ATOM     29  C   UNL     1     -12.135  -3.301  12.026  0.00  0.00    +0.002 A 
ATOM     30  C   UNL     1     -11.923  -3.600  10.673  0.00  0.00    +0.000 A 
ENDBRANCH  18  22
ENDBRANCH  16  18
ENDBRANCH  11  16
TORSDOF 5
ENDMDL
MODEL 5
REMARK VINA RESULT:      -6.7      5.061      8.849
REMARK  Name = 45360893
REMARK  9 active torsions:
REMARK  status: ('A' for Active; 'I' for Inactive)
REMARK    1  A    between atoms: N_3  and  C_12
REMARK    2  A    between atoms: N_4  and  C_17
REMARK    3  A    between atoms: C_11  and  C_16
REMARK    4  A    between atoms: C_12  and  C_14
REMARK    5  A    between atoms: C_14  and  C_19
REMARK    6  A    between atoms: C_14  and  C_20
REMARK    7  A    between atoms: C_14  and  C_21
REMARK    8  A    between atoms: C_16  and  C_18
REMARK    9  A    between atoms: C_18  and  C_22
REMARK                            x       y       z     vdW  Elec       q    Type
REMARK                         _______ _______ _______ _____ _____    ______ ____
ROOT
ATOM      1  O   UNL     1     -11.963  -6.523  12.864  0.00  0.00    -0.274 OA
ATOM      3  N   UNL     1     -14.389  -5.699  13.717  0.00  0.00    -0.290 NA
ATOM      4  N   UNL     1     -13.353  -8.409  15.947  0.00  0.00    -0.296 NA
ATOM      5  N   UNL     1     -11.120  -6.872  14.963  0.00  0.00    -0.312 N 
ATOM      7  C   UNL     1     -14.118  -7.187  15.616  0.00  0.00    +0.084 C 
ATOM      8  C   UNL     1     -13.424  -6.086  14.763  0.00  0.00    +0.160 C 
ATOM      9  C   UNL     1     -15.404  -7.453  14.810  0.00  0.00    +0.036 C 
ATOM     10  C   UNL     1     -15.709  -6.110  14.181  0.00  0.00    +0.087 C 
ATOM     11  C   UNL     1     -12.154  -8.174  16.798  0.00  0.00    +0.074 C 
ATOM     13  C   UNL     1     -12.125  -6.518  14.084  0.00  0.00    +0.232 C 
ATOM     15  C   UNL     1     -11.304  -6.952  16.398  0.00  0.00    +0.123 C 
ATOM     17  C   UNL     1     -14.226  -9.422  16.564  0.00  0.00    +0.105 C 
ATOM     31  H   UNL     1     -10.206  -7.093  14.578  0.00  0.00    +0.149 HD
ENDROOT
BRANCH   3  12
ATOM     12  C   UNL     1     -14.342  -4.281  13.383  0.00  0.00    +0.091 C 
BRANCH  12  14
ATOM     14  C   UNL     1     -14.194  -3.994  11.867  0.00  0.00    -0.025 C 
ATOM     19  C   UNL     1     -12.770  -3.511  11.539  0.00  0.00    +0.012 C 
ATOM     20  C   UNL     1     -14.511  -5.244  11.028  0.00  0.00    +0.012 C 
ATOM     21  C   UNL     1     -15.190  -2.882  11.486  0.00  0.00    +0.012 C 
ENDBRANCH  12  14
ENDBRANCH   3  12
BRANCH  11  16
ATOM     16  C   UNL     1     -11.229  -9.410  16.779  0.00  0.00    +0.029 C 
BRANCH  16  18
ATOM     18  C   UNL     1     -10.125  -9.308  17.813  0.00  0.00    +0.098 C 
BRANCH  18  22
ATOM      2  O   UNL     1      -8.570  -8.834  16.088  0.00  0.00    -0.275 OA
ATOM      6  N   UNL     1      -7.823 -10.123  17.885  0.00  0.00    -0.271 N 
ATOM     22  C   UNL     1      -8.762  -9.394  17.169  0.00  0.00    +0.220 C 
ATOM     23  C   UNL     1      -8.056 -10.794  19.182  0.00  0.00    +0.118 C 
ATOM     24  C   UNL     1      -6.485 -10.352  17.501  0.00  0.00    +0.039 A 
ATOM     25  C   UNL     1      -6.745 -11.468  19.601  0.00  0.00    +0.056 C 
ATOM     26  C   UNL     1      -5.837 -11.124  18.467  0.00  0.00    -0.024 A 
ATOM     27  C   UNL     1      -5.809  -9.927  16.366  0.00  0.00    +0.024 A 
ATOM     28  C   UNL     1      -4.506 -11.489  18.324  0.00  0.00    +0.005 A 
ATOM     29  C   UNL     1      -4.467 -10.291  16.215  0.00  0.00    +0.002 A 
ATOM     30  C   UNL     1      -3.820 -11.065  17.186  0.00  0.00    +0.000 A 
ENDBRANCH  18  22
ENDBRANCH  16  18
ENDBRANCH  11  16
TORSDOF 5
ENDMDL
MODEL 6
REMARK VINA RESULT:      -6.7      1.810      8.287
REMARK  Name = 45360893
REMARK  9 active torsions:
REMARK  status: ('A' for Active; 'I' for Inactive)
REMARK    1  A    between atoms: N_3  and  C_12
REMARK    2  A    between atoms: N_4  and  C_17
REMARK    3  A    between atoms: C_11  and  C_16
REMARK    4  A    between atoms: C_12  and  C_14
REMARK    5  A    between atoms: C_14  and  C_19
REMARK    6  A    between atoms: C_14  and  C_20
REMARK    7  A    between atoms: C_14  and  C_21
REMARK    8  A    between atoms: C_16  and  C_18
REMARK    9  A    between atoms: C_18  and  C_22
REMARK                            x       y       z     vdW  Elec       q    Type
REMARK                         _______ _______ _______ _____ _____    ______ ____
ROOT
ATOM      1  O   UNL     1      -7.399 -12.753  15.927  0.00  0.00    -0.274 OA
ATOM      3  N   UNL     1      -7.086 -10.951  17.914  0.00  0.00    -0.290 NA
ATOM      4  N   UNL     1      -3.917 -11.065  16.086  0.00  0.00    -0.296 NA
ATOM      5  N   UNL     1      -6.193 -11.565  14.386  0.00  0.00    -0.312 N 
ATOM      7  C   UNL     1      -4.925 -10.410  16.949  0.00  0.00    +0.084 C 
ATOM      8  C   UNL     1      -6.432 -10.632  16.631  0.00  0.00    +0.160 C 
ATOM      9  C   UNL     1      -4.846 -10.828  18.430  0.00  0.00    +0.036 C 
ATOM     10  C   UNL     1      -6.211 -10.462  18.973  0.00  0.00    +0.087 C 
ATOM     11  C   UNL     1      -3.928 -10.605  14.670  0.00  0.00    +0.074 C 
ATOM     13  C   UNL     1      -6.724 -11.763  15.646  0.00  0.00    +0.232 C 
ATOM     15  C   UNL     1      -5.329 -10.451  14.048  0.00  0.00    +0.123 C 
ATOM     17  C   UNL     1      -2.567 -10.925  16.658  0.00  0.00    +0.105 C 
ATOM     31  H   UNL     1      -6.418 -12.242  13.663  0.00  0.00    +0.149 HD
ENDROOT
BRANCH   3  12
ATOM     12  C   UNL     1      -8.435 -10.411  18.024  0.00  0.00    +0.091 C 
BRANCH  12  14
ATOM     14  C   UNL     1      -9.444 -11.369  18.708  0.00  0.00    -0.025 C 
ATOM     19  C   UNL     1      -8.766 -12.697  19.088  0.00  0.00    +0.012 C 
ATOM     20  C   UNL     1     -10.052 -10.732  19.970  0.00  0.00    +0.012 C 
ATOM     21  C   UNL     1     -10.581 -11.664  17.712  0.00  0.00    +0.012 C 
ENDBRANCH  12  14
ENDBRANCH   3  12
BRANCH  11  16
ATOM     16  C   UNL     1      -3.130 -11.583  13.780  0.00  0.00    +0.029 C 
BRANCH  16  18
ATOM     18  C   UNL     1      -2.629 -10.918  12.513  0.00  0.00    +0.098 C 
BRANCH  18  22
ATOM      2  O   UNL     1      -3.103 -12.839  11.209  0.00  0.00    -0.275 OA
ATOM      6  N   UNL     1      -3.693 -10.763  10.320  0.00  0.00    -0.271 N 
ATOM     22  C   UNL     1      -3.164 -11.611  11.283  0.00  0.00    +0.220 C 
ATOM     23  C   UNL     1      -3.766  -9.290  10.411  0.00  0.00    +0.118 C 
ATOM     24  C   UNL     1      -4.252 -11.159   9.087  0.00  0.00    +0.039 A 
ATOM     25  C   UNL     1      -4.428  -8.774   9.129  0.00  0.00    +0.056 C 
ATOM     26  C   UNL     1      -4.685 -10.038   8.376  0.00  0.00    -0.024 A 
ATOM     27  C   UNL     1      -4.403 -12.432   8.556  0.00  0.00    +0.024 A 
ATOM     28  C   UNL     1      -5.274 -10.159   7.126  0.00  0.00    +0.005 A 
ATOM     29  C   UNL     1      -4.996 -12.563   7.296  0.00  0.00    +0.002 A 
ATOM     30  C   UNL     1      -5.428 -11.435   6.586  0.00  0.00    +0.000 A 
ENDBRANCH  18  22
ENDBRANCH  16  18
ENDBRANCH  11  16
TORSDOF 5
ENDMDL
MODEL 7
REMARK VINA RESULT:      -6.6      1.843      8.092
REMARK  Name = 45360893
REMARK  9 active torsions:
REMARK  status: ('A' for Active; 'I' for Inactive)
REMARK    1  A    between atoms: N_3  and  C_12
REMARK    2  A    between atoms: N_4  and  C_17
REMARK    3  A    between atoms: C_11  and  C_16
REMARK    4  A    between atoms: C_12  and  C_14
REMARK    5  A    between atoms: C_14  and  C_19
REMARK    6  A    between atoms: C_14  and  C_20
REMARK    7  A    between atoms: C_14  and  C_21
REMARK    8  A    between atoms: C_16  and  C_18
REMARK    9  A    between atoms: C_18  and  C_22
REMARK                            x       y       z     vdW  Elec       q    Type
REMARK                         _______ _______ _______ _____ _____    ______ ____
ROOT
ATOM      1  O   UNL     1      -6.908 -13.944  17.079  0.00  0.00    -0.274 OA
ATOM      3  N   UNL     1      -6.996 -11.437  18.080  0.00  0.00    -0.290 NA
ATOM      4  N   UNL     1      -3.859 -11.719  16.216  0.00  0.00    -0.296 NA
ATOM      5  N   UNL     1      -5.966 -13.331  15.085  0.00  0.00    -0.312 N 
ATOM      7  C   UNL     1      -4.988 -10.962  16.801  0.00  0.00    +0.084 C 
ATOM      8  C   UNL     1      -6.413 -11.585  16.733  0.00  0.00    +0.160 C 
ATOM      9  C   UNL     1      -4.835 -10.675  18.307  0.00  0.00    +0.036 C 
ATOM     10  C   UNL     1      -6.251 -10.380  18.755  0.00  0.00    +0.087 C 
ATOM     11  C   UNL     1      -3.954 -11.928  14.745  0.00  0.00    +0.074 C 
ATOM     13  C   UNL     1      -6.453 -13.063  16.350  0.00  0.00    +0.232 C 
ATOM     15  C   UNL     1      -5.352 -12.331  14.236  0.00  0.00    +0.123 C 
ATOM     17  C   UNL     1      -2.573 -11.088  16.560  0.00  0.00    +0.105 C 
ATOM     31  H   UNL     1      -6.038 -14.284  14.740  0.00  0.00    +0.149 HD
ENDROOT
BRANCH   3  12
ATOM     12  C   UNL     1      -8.429 -11.173  18.063  0.00  0.00    +0.091 C 
BRANCH  12  14
ATOM     14  C   UNL     1      -9.240 -12.026  19.073  0.00  0.00    -0.025 C 
ATOM     19  C   UNL     1      -8.302 -12.888  19.937  0.00  0.00    +0.012 C 
ATOM     20  C   UNL     1     -10.100 -11.139  19.989  0.00  0.00    +0.012 C 
ATOM     21  C   UNL     1     -10.173 -12.959  18.278  0.00  0.00    +0.012 C 
ENDBRANCH  12  14
ENDBRANCH   3  12
BRANCH  11  16
ATOM     16  C   UNL     1      -2.962 -13.020  14.291  0.00  0.00    +0.029 C 
BRANCH  16  18
ATOM     18  C   UNL     1      -1.795 -12.440  13.516  0.00  0.00    +0.098 C 
BRANCH  18  22
ATOM      2  O   UNL     1      -1.945 -10.157  12.896  0.00  0.00    -0.275 OA
ATOM      6  N   UNL     1      -2.974 -11.721  11.501  0.00  0.00    -0.271 N 
ATOM     22  C   UNL     1      -2.243 -11.318  12.610  0.00  0.00    +0.220 C 
ATOM     23  C   UNL     1      -3.330 -13.114  11.161  0.00  0.00    +0.118 C 
ATOM     24  C   UNL     1      -3.506 -10.871  10.509  0.00  0.00    +0.039 A 
ATOM     25  C   UNL     1      -4.132 -13.085   9.855  0.00  0.00    +0.056 C 
ATOM     26  C   UNL     1      -4.179 -11.626   9.546  0.00  0.00    -0.024 A 
ATOM     27  C   UNL     1      -3.434  -9.490  10.400  0.00  0.00    +0.024 A 
ATOM     28  C   UNL     1      -4.794 -11.023   8.458  0.00  0.00    +0.005 A 
ATOM     29  C   UNL     1      -4.051  -8.874   9.306  0.00  0.00    +0.002 A 
ATOM     30  C   UNL     1      -4.726  -9.635   8.342  0.00  0.00    +0.000 A 
ENDBRANCH  18  22
ENDBRANCH  16  18
ENDBRANCH  11  16
TORSDOF 5
ENDMDL
MODEL 8
REMARK VINA RESULT:      -6.4      3.330      9.009
REMARK  Name = 45360893
REMARK  9 active torsions:
REMARK  status: ('A' for Active; 'I' for Inactive)
REMARK    1  A    between atoms: N_3  and  C_12
REMARK    2  A    between atoms: N_4  and  C_17
REMARK    3  A    between atoms: C_11  and  C_16
REMARK    4  A    between atoms: C_12  and  C_14
REMARK    5  A    between atoms: C_14  and  C_19
REMARK    6  A    between atoms: C_14  and  C_20
REMARK    7  A    between atoms: C_14  and  C_21
REMARK    8  A    between atoms: C_16  and  C_18
REMARK    9  A    between atoms: C_18  and  C_22
REMARK                            x       y       z     vdW  Elec       q    Type
REMARK                         _______ _______ _______ _____ _____    ______ ____
ROOT
ATOM      1  O   UNL     1      -7.125 -11.251  14.991  0.00  0.00    -0.274 OA
ATOM      3  N   UNL     1      -4.538 -11.184  15.764  0.00  0.00    -0.290 NA
ATOM      4  N   UNL     1      -4.555 -10.923  12.113  0.00  0.00    -0.296 NA
ATOM      5  N   UNL     1      -6.876  -9.708  13.319  0.00  0.00    -0.312 N 
ATOM      7  C   UNL     1      -3.963 -10.712  13.453  0.00  0.00    +0.084 C 
ATOM      8  C   UNL     1      -4.905 -10.318  14.627  0.00  0.00    +0.160 C 
ATOM      9  C   UNL     1      -3.245 -11.952  14.021  0.00  0.00    +0.036 C 
ATOM     10  C   UNL     1      -3.189 -11.675  15.509  0.00  0.00    +0.087 C 
ATOM     11  C   UNL     1      -5.177  -9.709  11.517  0.00  0.00    +0.074 C 
ATOM     13  C   UNL     1      -6.396 -10.498  14.346  0.00  0.00    +0.232 C 
ATOM     15  C   UNL     1      -6.030  -8.872  12.491  0.00  0.00    +0.123 C 
ATOM     17  C   UNL     1      -3.563 -11.495  11.187  0.00  0.00    +0.105 C 
ATOM     31  H   UNL     1      -7.874  -9.721  13.134  0.00  0.00    +0.149 HD
ENDROOT
BRANCH   3  12
ATOM     12  C   UNL     1      -4.644 -10.517  17.055  0.00  0.00    +0.091 C 
BRANCH  12  14
ATOM     14  C   UNL     1      -5.118 -11.441  18.206  0.00  0.00    -0.025 C 
ATOM     19  C   UNL     1      -6.074 -10.691  19.150  0.00  0.00    +0.012 C 
ATOM     20  C   UNL     1      -5.823 -12.694  17.661  0.00  0.00    +0.012 C 
ATOM     21  C   UNL     1      -3.881 -11.885  19.010  0.00  0.00    +0.012 C 
ENDBRANCH  12  14
ENDBRANCH   3  12
BRANCH  11  16
ATOM     16  C   UNL     1      -6.079 -10.095  10.325  0.00  0.00    +0.029 C 
BRANCH  16  18
ATOM     18  C   UNL     1      -6.765  -8.888   9.717  0.00  0.00    +0.098 C 
BRANCH  18  22
ATOM      2  O   UNL     1      -5.885  -9.616   7.640  0.00  0.00    -0.275 OA
ATOM      6  N   UNL     1      -7.769  -8.239   7.587  0.00  0.00    -0.271 N 
ATOM     22  C   UNL     1      -6.756  -8.955   8.209  0.00  0.00    +0.220 C 
ATOM     23  C   UNL     1      -8.812  -7.447   8.271  0.00  0.00    +0.118 C 
ATOM     24  C   UNL     1      -7.978  -8.140   6.195  0.00  0.00    +0.039 A 
ATOM     25  C   UNL     1      -9.717  -6.836   7.195  0.00  0.00    +0.056 C 
ATOM     26  C   UNL     1      -9.092  -7.339   5.936  0.00  0.00    -0.024 A 
ATOM     27  C   UNL     1      -7.257  -8.707   5.154  0.00  0.00    +0.024 A 
ATOM     28  C   UNL     1      -9.510  -7.085   4.638  0.00  0.00    +0.005 A 
ATOM     29  C   UNL     1      -7.673  -8.455   3.842  0.00  0.00    +0.002 A 
ATOM     30  C   UNL     1      -8.791  -7.651   3.586  0.00  0.00    +0.000 A 
ENDBRANCH  18  22
ENDBRANCH  16  18
ENDBRANCH  11  16
TORSDOF 5
ENDMDL
MODEL 9
REMARK VINA RESULT:      -6.4      2.873      9.272
REMARK  Name = 45360893
REMARK  9 active torsions:
REMARK  status: ('A' for Active; 'I' for Inactive)
REMARK    1  A    between atoms: N_3  and  C_12
REMARK    2  A    between atoms: N_4  and  C_17
REMARK    3  A    between atoms: C_11  and  C_16
REMARK    4  A    between atoms: C_12  and  C_14
REMARK    5  A    between atoms: C_14  and  C_19
REMARK    6  A    between atoms: C_14  and  C_20
REMARK    7  A    between atoms: C_14  and  C_21
REMARK    8  A    between atoms: C_16  and  C_18
REMARK    9  A    between atoms: C_18  and  C_22
REMARK                            x       y       z     vdW  Elec       q    Type
REMARK                         _______ _______ _______ _____ _____    ______ ____
ROOT
ATOM      1  O   UNL     1      -5.913 -12.592  15.094  0.00  0.00    -0.274 OA
ATOM      3  N   UNL     1      -4.005 -11.193  16.396  0.00  0.00    -0.290 NA
ATOM      4  N   UNL     1      -3.149 -11.085  12.840  0.00  0.00    -0.296 NA
ATOM      5  N   UNL     1      -5.996 -11.187  13.289  0.00  0.00    -0.312 N 
ATOM      7  C   UNL     1      -3.124 -10.562  14.224  0.00  0.00    +0.084 C 
ATOM      8  C   UNL     1      -4.419 -10.669  15.081  0.00  0.00    +0.160 C 
ATOM      9  C   UNL     1      -2.083 -11.245  15.131  0.00  0.00    +0.036 C 
ATOM     10  C   UNL     1      -2.576 -10.935  16.529  0.00  0.00    +0.087 C 
ATOM     11  C   UNL     1      -4.091 -10.375  11.931  0.00  0.00    +0.074 C 
ATOM     13  C   UNL     1      -5.495 -11.592  14.511  0.00  0.00    +0.232 C 
ATOM     15  C   UNL     1      -5.470 -10.061  12.542  0.00  0.00    +0.123 C 
ATOM     17  C   UNL     1      -1.794 -11.098  12.262  0.00  0.00    +0.105 C 
ATOM     31  H   UNL     1      -6.769 -11.713  12.893  0.00  0.00    +0.149 HD
ENDROOT
BRANCH   3  12
ATOM     12  C   UNL     1      -4.768 -10.635  17.506  0.00  0.00    +0.091 C 
BRANCH  12  14
ATOM     14  C   UNL     1      -5.073 -11.651  18.637  0.00  0.00    -0.025 C 
ATOM     19  C   UNL     1      -6.033 -11.042  19.674  0.00  0.00    +0.012 C 
ATOM     20  C   UNL     1      -5.689 -12.944  18.075  0.00  0.00    +0.012 C 
ATOM     21  C   UNL     1      -3.748 -12.004  19.339  0.00  0.00    +0.012 C 
ENDBRANCH  12  14
ENDBRANCH   3  12
BRANCH  11  16
ATOM     16  C   UNL     1      -4.328 -11.202  10.649  0.00  0.00    +0.029 C 
BRANCH  16  18
ATOM     18  C   UNL     1      -4.754 -10.332   9.483  0.00  0.00    +0.098 C 
BRANCH  18  22
ATOM      2  O   UNL     1      -4.121 -12.154   8.104  0.00  0.00    -0.275 OA
ATOM      6  N   UNL     1      -5.593 -10.583   7.203  0.00  0.00    -0.271 N 
ATOM     22  C   UNL     1      -4.786 -11.120   8.195  0.00  0.00    +0.220 C 
ATOM     23  C   UNL     1      -6.390  -9.343   7.314  0.00  0.00    +0.118 C 
ATOM     24  C   UNL     1      -5.792 -11.124   5.915  0.00  0.00    +0.039 A 
ATOM     25  C   UNL     1      -7.126  -9.140   5.985  0.00  0.00    +0.056 C 
ATOM     26  C   UNL     1      -6.670 -10.317   5.188  0.00  0.00    -0.024 A 
ATOM     27  C   UNL     1      -5.256 -12.272   5.349  0.00  0.00    +0.024 A 
ATOM     28  C   UNL     1      -7.030 -10.634   3.887  0.00  0.00    +0.005 A 
ATOM     29  C   UNL     1      -5.614 -12.599   4.037  0.00  0.00    +0.002 A 
ATOM     30  C   UNL     1      -6.495 -11.786   3.311  0.00  0.00    +0.000 A 
ENDBRANCH  18  22
ENDBRANCH  16  18
ENDBRANCH  11  16
TORSDOF 5
ENDMDL
MODEL 10
REMARK VINA RESULT:      -6.3      1.726      7.473
REMARK  Name = 45360893
REMARK  9 active torsions:
REMARK  status: ('A' for Active; 'I' for Inactive)
REMARK    1  A    between atoms: N_3  and  C_12
REMARK    2  A    between atoms: N_4  and  C_17
REMARK    3  A    between atoms: C_11  and  C_16
REMARK    4  A    between atoms: C_12  and  C_14
REMARK    5  A    between atoms: C_14  and  C_19
REMARK    6  A    between atoms: C_14  and  C_20
REMARK    7  A    between atoms: C_14  and  C_21
REMARK    8  A    between atoms: C_16  and  C_18
REMARK    9  A    between atoms: C_18  and  C_22
REMARK                            x       y       z     vdW  Elec       q    Type
REMARK                         _______ _______ _______ _____ _____    ______ ____
ROOT
ATOM      1  O   UNL     1      -7.884  -9.614  15.124  0.00  0.00    -0.274 OA
ATOM      3  N   UNL     1      -8.912 -10.496  17.460  0.00  0.00    -0.290 NA
ATOM      4  N   UNL     1      -5.654 -12.115  17.064  0.00  0.00    -0.296 NA
ATOM      5  N   UNL     1      -5.731  -9.482  15.889  0.00  0.00    -0.312 N 
ATOM      7  C   UNL     1      -6.789 -11.602  17.863  0.00  0.00    +0.084 C 
ATOM      8  C   UNL     1      -7.456 -10.264  17.431  0.00  0.00    +0.160 C 
ATOM      9  C   UNL     1      -7.997 -12.558  17.918  0.00  0.00    +0.036 C 
ATOM     10  C   UNL     1      -9.144 -11.654  18.316  0.00  0.00    +0.087 C 
ATOM     11  C   UNL     1      -4.449 -11.239  17.074  0.00  0.00    +0.074 C 
ATOM     13  C   UNL     1      -7.073  -9.773  16.036  0.00  0.00    +0.232 C 
ATOM     15  C   UNL     1      -4.740  -9.734  16.917  0.00  0.00    +0.123 C 
ATOM     17  C   UNL     1      -5.295 -13.481  17.482  0.00  0.00    +0.105 C 
ATOM     31  H   UNL     1      -5.425  -9.076  15.009  0.00  0.00    +0.149 HD
ENDROOT
BRANCH   3  12
ATOM     12  C   UNL     1      -9.674  -9.332  17.894  0.00  0.00    +0.091 C 
BRANCH  12  14
ATOM     14  C   UNL     1     -11.013  -9.136  17.137  0.00  0.00    -0.025 C 
ATOM     19  C   UNL     1     -11.147  -7.690  16.627  0.00  0.00    +0.012 C 
ATOM     20  C   UNL     1     -11.130 -10.105  15.948  0.00  0.00    +0.012 C 
ATOM     21  C   UNL     1     -12.168  -9.421  18.116  0.00  0.00    +0.012 C 
ENDBRANCH  12  14
ENDBRANCH   3  12
BRANCH  11  16
ATOM     16  C   UNL     1      -3.479 -11.645  15.944  0.00  0.00    +0.029 C 
BRANCH  16  18
ATOM     18  C   UNL     1      -4.215 -12.078  14.692  0.00  0.00    +0.098 C 
BRANCH  18  22
ATOM      2  O   UNL     1      -2.595 -10.907  13.418  0.00  0.00    -0.275 OA
ATOM      6  N   UNL     1      -4.756 -11.040  12.548  0.00  0.00    -0.271 N 
ATOM     22  C   UNL     1      -3.766 -11.281  13.490  0.00  0.00    +0.220 C 
ATOM     23  C   UNL     1      -6.162 -11.489  12.637  0.00  0.00    +0.118 C 
ATOM     24  C   UNL     1      -4.595 -10.322  11.344  0.00  0.00    +0.039 A 
ATOM     25  C   UNL     1      -6.888 -11.004  11.377  0.00  0.00    +0.056 C 
ATOM     26  C   UNL     1      -5.804 -10.283  10.647  0.00  0.00    -0.024 A 
ATOM     27  C   UNL     1      -3.462  -9.709  10.829  0.00  0.00    +0.024 A 
ATOM     28  C   UNL     1      -5.911  -9.633   9.425  0.00  0.00    +0.005 A 
ATOM     29  C   UNL     1      -3.561  -9.052   9.598  0.00  0.00    +0.002 A 
ATOM     30  C   UNL     1      -4.776  -9.014   8.902  0.00  0.00    +0.000 A 
ENDBRANCH  18  22
ENDBRANCH  16  18
ENDBRANCH  11  16
TORSDOF 5
ENDMDL
