MODEL 1
REMARK VINA RESULT:      -6.4      0.000      0.000
REMARK  Name = 75367055
REMARK  6 active torsions:
REMARK  status: ('A' for Active; 'I' for Inactive)
REMARK    1  A    between atoms: O_2  and  C_10
REMARK    2  A    between atoms: N_4  and  C_6
REMARK    3  A    between atoms: N_4  and  C_7
REMARK    4  A    between atoms: N_5  and  C_14
REMARK    5  A    between atoms: C_12  and  C_14
REMARK    6  A    between atoms: C_15  and  C_16
REMARK                            x       y       z     vdW  Elec       q    Type
REMARK                         _______ _______ _______ _____ _____    ______ ____
ROOT
ATOM      1  O   UNL     1      -1.284   3.182  25.843  0.00  0.00    -0.371 OA
ATOM      7  C   UNL     1      -0.746   1.161  24.717  0.00  0.00    +0.111 C 
ATOM     10  C   UNL     1      -2.011   1.741  24.113  0.00  0.00    +0.164 C 
ATOM     12  C   UNL     1      -1.900   3.198  24.545  0.00  0.00    +0.165 C 
ATOM     13  C   UNL     1      -0.686   1.890  26.049  0.00  0.00    +0.181 C 
ENDROOT
BRANCH  10   2
ATOM      2  O   UNL     1      -2.055   1.610  22.706  0.00  0.00    -0.388 OA
ATOM     18  H   UNL     1      -2.105   0.664  22.488  0.00  0.00    +0.210 HD
ENDBRANCH  10   2
BRANCH   7   4
ATOM      4  N   UNL     1      -0.780  -0.286  24.864  0.00  0.00    -0.306 NA
ATOM     17  H   UNL     1      -0.485  -0.516  25.813  0.00  0.00    +0.123 HD
BRANCH   4   6
ATOM      6  C   UNL     1      -2.114  -0.775  24.549  0.00  0.00    +0.054 C 
ATOM      8  C   UNL     1      -2.872  -1.064  25.863  0.00  0.00    +0.019 C 
ATOM      9  C   UNL     1      -2.059  -2.303  24.332  0.00  0.00    +0.019 C 
ATOM     11  C   UNL     1      -3.331  -2.386  25.206  0.00  0.00    +0.003 C 
ENDBRANCH   4   6
ENDBRANCH   7   4
BRANCH  12  14
ATOM     14  C   UNL     1      -3.241   3.905  24.621  0.00  0.00    +0.138 C 
BRANCH  14   5
ATOM      3  O   UNL     1      -5.353   3.206  26.488  0.00  0.00    -0.276 OA
ATOM      5  N   UNL     1      -4.327   2.990  24.408  0.00  0.00    -0.313 N 
ATOM     15  C   UNL     1      -5.297   2.715  25.364  0.00  0.00    +0.210 C 
ATOM     16  C   UNL     1      -6.332   1.739  24.872  0.00  0.00    +0.109 C 
ATOM     19  H   UNL     1      -4.378   2.522  23.508  0.00  0.00    +0.149 HD
ENDBRANCH  14   5
ENDBRANCH  12  14
TORSDOF 5
ENDMDL
MODEL 2
REMARK VINA RESULT:      -6.0      1.830      2.330
REMARK  Name = 75367055
REMARK  6 active torsions:
REMARK  status: ('A' for Active; 'I' for Inactive)
REMARK    1  A    between atoms: O_2  and  C_10
REMARK    2  A    between atoms: N_4  and  C_6
REMARK    3  A    between atoms: N_4  and  C_7
REMARK    4  A    between atoms: N_5  and  C_14
REMARK    5  A    between atoms: C_12  and  C_14
REMARK    6  A    between atoms: C_15  and  C_16
REMARK                            x       y       z     vdW  Elec       q    Type
REMARK                         _______ _______ _______ _____ _____    ______ ____
ROOT
ATOM      1  O   UNL     1      -0.708   1.450  26.001  0.00  0.00    -0.371 OA
ATOM      7  C   UNL     1      -0.492  -0.561  24.754  0.00  0.00    +0.111 C 
ATOM     10  C   UNL     1      -0.503   0.616  23.796  0.00  0.00    +0.164 C 
ATOM     12  C   UNL     1      -0.114   1.756  24.729  0.00  0.00    +0.165 C 
ATOM     13  C   UNL     1      -1.090   0.063  26.004  0.00  0.00    +0.181 C 
ENDROOT
BRANCH  10   2
ATOM      2  O   UNL     1       0.419   0.466  22.734  0.00  0.00    -0.388 OA
ATOM     18  H   UNL     1       1.296   0.744  23.049  0.00  0.00    +0.210 HD
ENDBRANCH  10   2
BRANCH   7   4
ATOM      4  N   UNL     1      -1.247  -1.708  24.276  0.00  0.00    -0.306 NA
ATOM     17  H   UNL     1      -0.768  -2.555  24.584  0.00  0.00    +0.123 HD
BRANCH   4   6
ATOM      6  C   UNL     1      -2.617  -1.624  24.758  0.00  0.00    +0.054 C 
ATOM      8  C   UNL     1      -3.356  -2.938  24.423  0.00  0.00    +0.019 C 
ATOM      9  C   UNL     1      -3.494  -0.943  23.685  0.00  0.00    +0.019 C 
ATOM     11  C   UNL     1      -4.535  -2.054  23.956  0.00  0.00    +0.003 C 
ENDBRANCH   4   6
ENDBRANCH   7   4
BRANCH  12  14
ATOM     14  C   UNL     1      -0.596   3.114  24.250  0.00  0.00    +0.138 C 
BRANCH  14   5
ATOM      3  O   UNL     1      -3.302   2.609  23.328  0.00  0.00    -0.276 OA
ATOM      5  N   UNL     1      -1.821   3.490  24.896  0.00  0.00    -0.313 N 
ATOM     15  C   UNL     1      -3.080   3.205  24.378  0.00  0.00    +0.210 C 
ATOM     16  C   UNL     1      -4.193   3.690  25.267  0.00  0.00    +0.109 C 
ATOM     19  H   UNL     1      -1.755   3.993  25.776  0.00  0.00    +0.149 HD
ENDBRANCH  14   5
ENDBRANCH  12  14
TORSDOF 5
ENDMDL
MODEL 3
REMARK VINA RESULT:      -5.9     16.852     18.540
REMARK  Name = 75367055
REMARK  6 active torsions:
REMARK  status: ('A' for Active; 'I' for Inactive)
REMARK    1  A    between atoms: O_2  and  C_10
REMARK    2  A    between atoms: N_4  and  C_6
REMARK    3  A    between atoms: N_4  and  C_7
REMARK    4  A    between atoms: N_5  and  C_14
REMARK    5  A    between atoms: C_12  and  C_14
REMARK    6  A    between atoms: C_15  and  C_16
REMARK                            x       y       z     vdW  Elec       q    Type
REMARK                         _______ _______ _______ _____ _____    ______ ____
ROOT
ATOM      1  O   UNL     1      13.129   9.250  19.293  0.00  0.00    -0.371 OA
ATOM      7  C   UNL     1      14.115   7.089  19.280  0.00  0.00    +0.111 C 
ATOM     10  C   UNL     1      12.710   6.988  19.844  0.00  0.00    +0.164 C 
ATOM     12  C   UNL     1      12.083   8.265  19.298  0.00  0.00    +0.165 C 
ATOM     13  C   UNL     1      14.393   8.576  19.428  0.00  0.00    +0.181 C 
ENDROOT
BRANCH  10   2
ATOM      2  O   UNL     1      12.024   5.833  19.400  0.00  0.00    -0.388 OA
ATOM     18  H   UNL     1      12.582   5.378  18.747  0.00  0.00    +0.210 HD
ENDBRANCH  10   2
BRANCH   7   4
ATOM      4  N   UNL     1      15.084   6.259  19.979  0.00  0.00    -0.306 NA
ATOM     17  H   UNL     1      14.999   5.306  19.627  0.00  0.00    +0.123 HD
BRANCH   4   6
ATOM      6  C   UNL     1      16.418   6.814  19.799  0.00  0.00    +0.054 C 
ATOM      8  C   UNL     1      17.301   5.783  19.063  0.00  0.00    +0.019 C 
ATOM      9  C   UNL     1      17.263   6.528  21.060  0.00  0.00    +0.019 C 
ATOM     11  C   UNL     1      18.401   6.117  20.097  0.00  0.00    +0.003 C 
ENDBRANCH   4   6
ENDBRANCH   7   4
BRANCH  12  14
ATOM     14  C   UNL     1      10.913   8.761  20.129  0.00  0.00    +0.138 C 
BRANCH  14   5
ATOM      3  O   UNL     1      10.931   8.580  23.027  0.00  0.00    -0.276 OA
ATOM      5  N   UNL     1      11.328   9.769  21.063  0.00  0.00    -0.313 N 
ATOM     15  C   UNL     1      11.302   9.594  22.442  0.00  0.00    +0.210 C 
ATOM     16  C   UNL     1      11.812  10.798  23.187  0.00  0.00    +0.109 C 
ATOM     19  H   UNL     1      11.653  10.655  20.687  0.00  0.00    +0.149 HD
ENDBRANCH  14   5
ENDBRANCH  12  14
TORSDOF 5
ENDMDL
MODEL 4
REMARK VINA RESULT:      -5.7     15.999     17.775
REMARK  Name = 75367055
REMARK  6 active torsions:
REMARK  status: ('A' for Active; 'I' for Inactive)
REMARK    1  A    between atoms: O_2  and  C_10
REMARK    2  A    between atoms: N_4  and  C_6
REMARK    3  A    between atoms: N_4  and  C_7
REMARK    4  A    between atoms: N_5  and  C_14
REMARK    5  A    between atoms: C_12  and  C_14
REMARK    6  A    between atoms: C_15  and  C_16
REMARK                            x       y       z     vdW  Elec       q    Type
REMARK                         _______ _______ _______ _____ _____    ______ ____
ROOT
ATOM      1  O   UNL     1      11.892   9.629  20.645  0.00  0.00    -0.371 OA
ATOM      7  C   UNL     1      12.480   7.403  20.060  0.00  0.00    +0.111 C 
ATOM     10  C   UNL     1      11.662   7.379  21.338  0.00  0.00    +0.164 C 
ATOM     12  C   UNL     1      10.958   8.727  21.260  0.00  0.00    +0.165 C 
ATOM     13  C   UNL     1      12.929   8.854  20.017  0.00  0.00    +0.181 C 
ENDROOT
BRANCH  10   2
ATOM      2  O   UNL     1      10.743   6.305  21.379  0.00  0.00    -0.388 OA
ATOM     18  H   UNL     1      11.207   5.495  21.108  0.00  0.00    +0.210 HD
ENDBRANCH  10   2
BRANCH   7   4
ATOM      4  N   UNL     1      13.592   6.466  20.061  0.00  0.00    -0.306 NA
ATOM     17  H   UNL     1      13.504   5.866  19.240  0.00  0.00    +0.123 HD
BRANCH   4   6
ATOM      6  C   UNL     1      14.847   7.201  20.095  0.00  0.00    +0.054 C 
ATOM      8  C   UNL     1      15.834   6.567  19.091  0.00  0.00    +0.019 C 
ATOM      9  C   UNL     1      15.740   6.633  21.219  0.00  0.00    +0.019 C 
ATOM     11  C   UNL     1      16.903   6.683  20.202  0.00  0.00    +0.003 C 
ENDBRANCH   4   6
ENDBRANCH   7   4
BRANCH  12  14
ATOM     14  C   UNL     1      10.542   9.265  22.618  0.00  0.00    +0.138 C 
BRANCH  14   5
ATOM      3  O   UNL     1      10.305  11.682  24.209  0.00  0.00    -0.276 OA
ATOM      5  N   UNL     1      11.603  10.014  23.230  0.00  0.00    -0.313 N 
ATOM     15  C   UNL     1      11.395  11.167  23.978  0.00  0.00    +0.210 C 
ATOM     16  C   UNL     1      12.676  11.740  24.525  0.00  0.00    +0.109 C 
ATOM     19  H   UNL     1      12.552   9.678  23.101  0.00  0.00    +0.149 HD
ENDBRANCH  14   5
ENDBRANCH  12  14
TORSDOF 5
ENDMDL
MODEL 5
REMARK VINA RESULT:      -5.4     12.564     13.746
REMARK  Name = 75367055
REMARK  6 active torsions:
REMARK  status: ('A' for Active; 'I' for Inactive)
REMARK    1  A    between atoms: O_2  and  C_10
REMARK    2  A    between atoms: N_4  and  C_6
REMARK    3  A    between atoms: N_4  and  C_7
REMARK    4  A    between atoms: N_5  and  C_14
REMARK    5  A    between atoms: C_12  and  C_14
REMARK    6  A    between atoms: C_15  and  C_16
REMARK                            x       y       z     vdW  Elec       q    Type
REMARK                         _______ _______ _______ _____ _____    ______ ____
ROOT
ATOM      1  O   UNL     1     -14.978   0.018  29.095  0.00  0.00    -0.371 OA
ATOM      7  C   UNL     1     -14.229   1.858  30.397  0.00  0.00    +0.111 C 
ATOM     10  C   UNL     1     -15.188   2.362  29.335  0.00  0.00    +0.164 C 
ATOM     12  C   UNL     1     -15.937   1.082  28.986  0.00  0.00    +0.165 C 
ATOM     13  C   UNL     1     -13.842   0.500  29.834  0.00  0.00    +0.181 C 
ENDROOT
BRANCH  10   2
ATOM      2  O   UNL     1     -16.058   3.368  29.816  0.00  0.00    -0.388 OA
ATOM     18  H   UNL     1     -16.956   3.170  29.504  0.00  0.00    +0.210 HD
ENDBRANCH  10   2
BRANCH   7   4
ATOM      4  N   UNL     1     -13.085   2.729  30.611  0.00  0.00    -0.306 NA
ATOM     17  H   UNL     1     -13.183   3.540  30.000  0.00  0.00    +0.123 HD
BRANCH   4   6
ATOM      6  C   UNL     1     -13.002   3.088  32.020  0.00  0.00    +0.054 C 
ATOM      8  C   UNL     1     -14.179   2.437  32.779  0.00  0.00    +0.019 C 
ATOM      9  C   UNL     1     -13.705   4.444  32.243  0.00  0.00    +0.019 C 
ATOM     11  C   UNL     1     -14.364   3.800  33.484  0.00  0.00    +0.003 C 
ENDBRANCH   4   6
ENDBRANCH   7   4
BRANCH  12  14
ATOM     14  C   UNL     1     -16.531   1.098  27.588  0.00  0.00    +0.138 C 
BRANCH  14   5
ATOM      3  O   UNL     1     -16.263   1.731  24.767  0.00  0.00    -0.276 OA
ATOM      5  N   UNL     1     -16.431   2.400  26.993  0.00  0.00    -0.313 N 
ATOM     15  C   UNL     1     -16.304   2.610  25.624  0.00  0.00    +0.210 C 
ATOM     16  C   UNL     1     -16.244   4.071  25.267  0.00  0.00    +0.109 C 
ATOM     19  H   UNL     1     -16.452   3.204  27.613  0.00  0.00    +0.149 HD
ENDBRANCH  14   5
ENDBRANCH  12  14
TORSDOF 5
ENDMDL
MODEL 6
REMARK VINA RESULT:      -5.3     23.126     24.491
REMARK  Name = 75367055
REMARK  6 active torsions:
REMARK  status: ('A' for Active; 'I' for Inactive)
REMARK    1  A    between atoms: O_2  and  C_10
REMARK    2  A    between atoms: N_4  and  C_6
REMARK    3  A    between atoms: N_4  and  C_7
REMARK    4  A    between atoms: N_5  and  C_14
REMARK    5  A    between atoms: C_12  and  C_14
REMARK    6  A    between atoms: C_15  and  C_16
REMARK                            x       y       z     vdW  Elec       q    Type
REMARK                         _______ _______ _______ _____ _____    ______ ____
ROOT
ATOM      1  O   UNL     1       9.223   7.238   4.653  0.00  0.00    -0.371 OA
ATOM      7  C   UNL     1      10.404   5.325   3.887  0.00  0.00    +0.111 C 
ATOM     10  C   UNL     1      10.441   5.354   5.403  0.00  0.00    +0.164 C 
ATOM     12  C   UNL     1       9.257   6.263   5.707  0.00  0.00    +0.165 C 
ATOM     13  C   UNL     1      10.038   6.765   3.566  0.00  0.00    +0.181 C 
ENDROOT
BRANCH  10   2
ATOM      2  O   UNL     1      10.285   4.072   5.979  0.00  0.00    -0.388 OA
ATOM     18  H   UNL     1      10.788   4.047   6.811  0.00  0.00    +0.210 HD
ENDBRANCH  10   2
BRANCH   7   4
ATOM      4  N   UNL     1      11.660   4.911   3.281  0.00  0.00    -0.306 NA
ATOM     17  H   UNL     1      12.259   4.533   4.015  0.00  0.00    +0.123 HD
BRANCH   4   6
ATOM      6  C   UNL     1      11.394   3.954   2.216  0.00  0.00    +0.054 C 
ATOM      8  C   UNL     1      12.731   3.362   1.720  0.00  0.00    +0.019 C 
ATOM      9  C   UNL     1      11.309   4.702   0.868  0.00  0.00    +0.019 C 
ATOM     11  C   UNL     1      12.193   3.575   0.286  0.00  0.00    +0.003 C 
ENDBRANCH   4   6
ENDBRANCH   7   4
BRANCH  12  14
ATOM     14  C   UNL     1       9.367   6.962   7.050  0.00  0.00    +0.138 C 
BRANCH  14   5
ATOM      3  O   UNL     1      11.010   5.360   8.829  0.00  0.00    -0.276 OA
ATOM      5  N   UNL     1       8.923   6.113   8.119  0.00  0.00    -0.313 N 
ATOM     15  C   UNL     1       9.787   5.379   8.924  0.00  0.00    +0.210 C 
ATOM     16  C   UNL     1       9.060   4.592   9.983  0.00  0.00    +0.109 C 
ATOM     19  H   UNL     1       7.924   6.051   8.287  0.00  0.00    +0.149 HD
ENDBRANCH  14   5
ENDBRANCH  12  14
TORSDOF 5
ENDMDL
MODEL 7
REMARK VINA RESULT:      -5.3     30.323     31.381
REMARK  Name = 75367055
REMARK  6 active torsions:
REMARK  status: ('A' for Active; 'I' for Inactive)
REMARK    1  A    between atoms: O_2  and  C_10
REMARK    2  A    between atoms: N_4  and  C_6
REMARK    3  A    between atoms: N_4  and  C_7
REMARK    4  A    between atoms: N_5  and  C_14
REMARK    5  A    between atoms: C_12  and  C_14
REMARK    6  A    between atoms: C_15  and  C_16
REMARK                            x       y       z     vdW  Elec       q    Type
REMARK                         _______ _______ _______ _____ _____    ______ ____
ROOT
ATOM      1  O   UNL     1       2.081   0.962  -5.133  0.00  0.00    -0.371 OA
ATOM      7  C   UNL     1       0.244   1.023  -6.638  0.00  0.00    +0.111 C 
ATOM     10  C   UNL     1       0.870   2.403  -6.566  0.00  0.00    +0.164 C 
ATOM     12  C   UNL     1       2.257   2.068  -6.033  0.00  0.00    +0.165 C 
ATOM     13  C   UNL     1       0.788   0.379  -5.373  0.00  0.00    +0.181 C 
ENDROOT
BRANCH  10   2
ATOM      2  O   UNL     1       0.929   3.043  -7.826  0.00  0.00    -0.388 OA
ATOM     18  H   UNL     1       1.861   3.224  -8.033  0.00  0.00    +0.210 HD
ENDBRANCH  10   2
BRANCH   7   4
ATOM      4  N   UNL     1      -1.209   1.043  -6.684  0.00  0.00    -0.306 NA
ATOM     17  H   UNL     1      -1.505   1.970  -6.989  0.00  0.00    +0.123 HD
BRANCH   4   6
ATOM      6  C   UNL     1      -1.683  -0.020  -7.557  0.00  0.00    +0.054 C 
ATOM      8  C   UNL     1      -3.165   0.235  -7.910  0.00  0.00    +0.019 C 
ATOM      9  C   UNL     1      -2.168  -1.208  -6.698  0.00  0.00    +0.019 C 
ATOM     11  C   UNL     1      -3.399  -1.268  -7.631  0.00  0.00    +0.003 C 
ENDBRANCH   4   6
ENDBRANCH   7   4
BRANCH  12  14
ATOM     14  C   UNL     1       2.915   3.226  -5.302  0.00  0.00    +0.138 C 
BRANCH  14   5
ATOM      3  O   UNL     1       0.967   4.519  -3.580  0.00  0.00    -0.276 OA
ATOM      5  N   UNL     1       2.219   4.458  -5.544  0.00  0.00    -0.313 N 
ATOM     15  C   UNL     1       1.298   5.005  -4.657  0.00  0.00    +0.210 C 
ATOM     16  C   UNL     1       0.735   6.313  -5.144  0.00  0.00    +0.109 C 
ATOM     19  H   UNL     1       2.415   4.947  -6.411  0.00  0.00    +0.149 HD
ENDBRANCH  14   5
ENDBRANCH  12  14
TORSDOF 5
ENDMDL
MODEL 8
REMARK VINA RESULT:      -5.1     19.904     22.014
REMARK  Name = 75367055
REMARK  6 active torsions:
REMARK  status: ('A' for Active; 'I' for Inactive)
REMARK    1  A    between atoms: O_2  and  C_10
REMARK    2  A    between atoms: N_4  and  C_6
REMARK    3  A    between atoms: N_4  and  C_7
REMARK    4  A    between atoms: N_5  and  C_14
REMARK    5  A    between atoms: C_12  and  C_14
REMARK    6  A    between atoms: C_15  and  C_16
REMARK                            x       y       z     vdW  Elec       q    Type
REMARK                         _______ _______ _______ _____ _____    ______ ____
ROOT
ATOM      1  O   UNL     1      17.451   7.080  21.500  0.00  0.00    -0.371 OA
ATOM      7  C   UNL     1      16.166   6.241  19.688  0.00  0.00    +0.111 C 
ATOM     10  C   UNL     1      17.637   6.185  19.319  0.00  0.00    +0.164 C 
ATOM     12  C   UNL     1      18.286   6.231  20.696  0.00  0.00    +0.165 C 
ATOM     13  C   UNL     1      16.182   7.232  20.840  0.00  0.00    +0.181 C 
ENDROOT
BRANCH  10   2
ATOM      2  O   UNL     1      17.979   5.008  18.614  0.00  0.00    -0.388 OA
ATOM     18  H   UNL     1      18.943   4.997  18.487  0.00  0.00    +0.210 HD
ENDBRANCH  10   2
BRANCH   7   4
ATOM      4  N   UNL     1      15.306   6.660  18.593  0.00  0.00    -0.306 NA
ATOM     17  H   UNL     1      14.820   5.837  18.236  0.00  0.00    +0.123 HD
BRANCH   4   6
ATOM      6  C   UNL     1      14.397   7.698  19.057  0.00  0.00    +0.054 C 
ATOM      8  C   UNL     1      12.949   7.167  19.003  0.00  0.00    +0.019 C 
ATOM      9  C   UNL     1      14.027   8.618  17.874  0.00  0.00    +0.019 C 
ATOM     11  C   UNL     1      12.567   8.526  18.373  0.00  0.00    +0.003 C 
ENDBRANCH   4   6
ENDBRANCH   7   4
BRANCH  12  14
ATOM     14  C   UNL     1      19.703   6.777  20.673  0.00  0.00    +0.138 C 
BRANCH  14   5
ATOM      3  O   UNL     1      21.097   5.265  22.723  0.00  0.00    -0.276 OA
ATOM      5  N   UNL     1      20.663   5.727  20.481  0.00  0.00    -0.313 N 
ATOM     15  C   UNL     1      21.284   5.055  21.528  0.00  0.00    +0.210 C 
ATOM     16  C   UNL     1      22.227   3.985  21.048  0.00  0.00    +0.109 C 
ATOM     19  H   UNL     1      20.896   5.470  19.527  0.00  0.00    +0.149 HD
ENDBRANCH  14   5
ENDBRANCH  12  14
TORSDOF 5
ENDMDL
MODEL 9
REMARK VINA RESULT:      -5.1     14.408     16.616
REMARK  Name = 75367055
REMARK  6 active torsions:
REMARK  status: ('A' for Active; 'I' for Inactive)
REMARK    1  A    between atoms: O_2  and  C_10
REMARK    2  A    between atoms: N_4  and  C_6
REMARK    3  A    between atoms: N_4  and  C_7
REMARK    4  A    between atoms: N_5  and  C_14
REMARK    5  A    between atoms: C_12  and  C_14
REMARK    6  A    between atoms: C_15  and  C_16
REMARK                            x       y       z     vdW  Elec       q    Type
REMARK                         _______ _______ _______ _____ _____    ______ ____
ROOT
ATOM      1  O   UNL     1      -4.210 -11.374  13.552  0.00  0.00    -0.371 OA
ATOM      7  C   UNL     1      -3.477 -10.814  15.741  0.00  0.00    +0.111 C 
ATOM     10  C   UNL     1      -2.306 -10.698  14.783  0.00  0.00    +0.164 C 
ATOM     12  C   UNL     1      -3.031 -10.559  13.451  0.00  0.00    +0.165 C 
ATOM     13  C   UNL     1      -4.438 -11.677  14.940  0.00  0.00    +0.181 C 
ENDROOT
BRANCH  10   2
ATOM      2  O   UNL     1      -1.485  -9.580  15.056  0.00  0.00    -0.388 OA
ATOM     18  H   UNL     1      -0.924  -9.415  14.280  0.00  0.00    +0.210 HD
ENDBRANCH  10   2
BRANCH   7   4
ATOM      4  N   UNL     1      -3.124 -11.401  17.024  0.00  0.00    -0.306 NA
ATOM     17  H   UNL     1      -2.609 -10.704  17.562  0.00  0.00    +0.123 HD
BRANCH   4   6
ATOM      6  C   UNL     1      -4.330 -11.859  17.698  0.00  0.00    +0.054 C 
ATOM      8  C   UNL     1      -5.117 -10.638  18.220  0.00  0.00    +0.019 C 
ATOM      9  C   UNL     1      -4.000 -12.185  19.170  0.00  0.00    +0.019 C 
ATOM     11  C   UNL     1      -5.296 -11.427  19.538  0.00  0.00    +0.003 C 
ENDBRANCH   4   6
ENDBRANCH   7   4
BRANCH  12  14
ATOM     14  C   UNL     1      -2.197 -11.007  12.264  0.00  0.00    +0.138 C 
BRANCH  14   5
ATOM      3  O   UNL     1      -3.101  -9.072  10.297  0.00  0.00    -0.276 OA
ATOM      5  N   UNL     1      -3.017 -11.253  11.112  0.00  0.00    -0.313 N 
ATOM     15  C   UNL     1      -3.403 -10.260  10.220  0.00  0.00    +0.210 C 
ATOM     16  C   UNL     1      -4.241 -10.794   9.088  0.00  0.00    +0.109 C 
ATOM     19  H   UNL     1      -3.329 -12.206  10.951  0.00  0.00    +0.149 HD
ENDBRANCH  14   5
ENDBRANCH  12  14
TORSDOF 5
ENDMDL
MODEL 10
REMARK VINA RESULT:      -5.0     14.511     16.935
REMARK  Name = 75367055
REMARK  6 active torsions:
REMARK  status: ('A' for Active; 'I' for Inactive)
REMARK    1  A    between atoms: O_2  and  C_10
REMARK    2  A    between atoms: N_4  and  C_6
REMARK    3  A    between atoms: N_4  and  C_7
REMARK    4  A    between atoms: N_5  and  C_14
REMARK    5  A    between atoms: C_12  and  C_14
REMARK    6  A    between atoms: C_15  and  C_16
REMARK                            x       y       z     vdW  Elec       q    Type
REMARK                         _______ _______ _______ _____ _____    ______ ____
ROOT
ATOM      1  O   UNL     1      -3.746 -10.538  13.810  0.00  0.00    -0.371 OA
ATOM      7  C   UNL     1      -3.089 -10.689  16.088  0.00  0.00    +0.111 C 
ATOM     10  C   UNL     1      -2.006 -11.302  15.219  0.00  0.00    +0.164 C 
ATOM     12  C   UNL     1      -2.315 -10.663  13.871  0.00  0.00    +0.165 C 
ATOM     13  C   UNL     1      -4.275 -10.695  15.138  0.00  0.00    +0.181 C 
ENDROOT
BRANCH  10   2
ATOM      2  O   UNL     1      -0.702 -10.985  15.666  0.00  0.00    -0.388 OA
ATOM     18  H   UNL     1      -0.526 -10.051  15.458  0.00  0.00    +0.210 HD
ENDBRANCH  10   2
BRANCH   7   4
ATOM      4  N   UNL     1      -3.341 -11.429  17.314  0.00  0.00    -0.306 NA
ATOM     17  H   UNL     1      -2.902 -10.927  18.085  0.00  0.00    +0.123 HD
BRANCH   4   6
ATOM      6  C   UNL     1      -4.775 -11.601  17.492  0.00  0.00    +0.054 C 
ATOM      8  C   UNL     1      -5.245 -10.746  18.689  0.00  0.00    +0.019 C 
ATOM      9  C   UNL     1      -5.034 -12.843  18.372  0.00  0.00    +0.019 C 
ATOM     11  C   UNL     1      -6.063 -11.979  19.137  0.00  0.00    +0.003 C 
ENDBRANCH   4   6
ENDBRANCH   7   4
BRANCH  12  14
ATOM     14  C   UNL     1      -1.820 -11.482  12.692  0.00  0.00    +0.138 C 
BRANCH  14   5
ATOM      3  O   UNL     1      -3.136 -13.982  12.023  0.00  0.00    -0.276 OA
ATOM      5  N   UNL     1      -1.438 -12.804  13.098  0.00  0.00    -0.313 N 
ATOM     15  C   UNL     1      -2.132 -13.951  12.728  0.00  0.00    +0.210 C 
ATOM     16  C   UNL     1      -1.503 -15.207  13.271  0.00  0.00    +0.109 C 
ATOM     19  H   UNL     1      -0.617 -12.897  13.689  0.00  0.00    +0.149 HD
ENDBRANCH  14   5
ENDBRANCH  12  14
TORSDOF 5
ENDMDL
