MODEL 1
REMARK VINA RESULT:      -7.0      0.000      0.000
REMARK  Name = 40778248
REMARK  11 active torsions:
REMARK  status: ('A' for Active; 'I' for Inactive)
REMARK    1  A    between atoms: O_2  and  C_10
REMARK    2  A    between atoms: O_3  and  C_11
REMARK    3  A    between atoms: N_6  and  C_15
REMARK    4  A    between atoms: N_7  and  C_18
REMARK    5  A    between atoms: N_8  and  C_19
REMARK    6  A    between atoms: C_12  and  C_14
REMARK    7  A    between atoms: C_13  and  C_15
REMARK    8  A    between atoms: C_14  and  C_16
REMARK    9  A    between atoms: C_18  and  C_20
REMARK   10  A    between atoms: C_19  and  C_21
REMARK   11  A    between atoms: C_19  and  C_22
REMARK                            x       y       z     vdW  Elec       q    Type
REMARK                         _______ _______ _______ _____ _____    ______ ____
ROOT
ATOM      1  O   UNL     1      10.655   8.288  20.309  0.00  0.00    -0.366 OA
ATOM     10  C   UNL     1      12.706   7.173  20.638  0.00  0.00    +0.175 C 
ATOM     11  C   UNL     1      11.651   6.457  21.456  0.00  0.00    +0.176 C 
ATOM     12  C   UNL     1      11.853   7.903  19.614  0.00  0.00    +0.158 C 
ATOM     13  C   UNL     1      10.536   7.496  21.514  0.00  0.00    +0.167 C 
ENDROOT
BRANCH  10   2
ATOM      2  O   UNL     1      13.631   6.297  20.028  0.00  0.00    -0.387 OA
ATOM     27  H   UNL     1      14.427   6.814  19.819  0.00  0.00    +0.210 HD
ENDBRANCH  10   2
BRANCH  11   3
ATOM      3  O   UNL     1      11.161   5.320  20.748  0.00  0.00    -0.387 OA
ATOM     28  H   UNL     1      11.733   4.567  20.976  0.00  0.00    +0.210 HD
ENDBRANCH  11   3
BRANCH  12  14
ATOM     14  C   UNL     1      12.527   9.135  19.035  0.00  0.00    +0.130 C 
BRANCH  14  16
ATOM      4  O   UNL     1      13.139  10.586  20.870  0.00  0.00    -0.276 OA
ATOM      7  N   UNL     1      14.794   9.357  19.798  0.00  0.00    -0.311 N 
ATOM     16  C   UNL     1      13.491   9.784  20.009  0.00  0.00    +0.216 C 
ATOM     30  H   UNL     1      14.979   8.678  19.064  0.00  0.00    +0.149 HD
BRANCH   7  18
ATOM     18  C   UNL     1      15.914   9.820  20.583  0.00  0.00    +0.141 C 
BRANCH  18  20
ATOM      9  N   UNL     1      18.936   7.991  21.934  0.00  0.00    -0.263 NA
ATOM     20  C   UNL     1      16.915   8.729  20.831  0.00  0.00    -0.012 A 
ATOM     23  C   UNL     1      16.785   7.485  20.222  0.00  0.00    +0.008 A 
ATOM     24  C   UNL     1      17.999   8.929  21.670  0.00  0.00    +0.115 A 
ATOM     25  C   UNL     1      17.729   6.494  20.469  0.00  0.00    +0.020 A 
ATOM     26  C   UNL     1      18.776   6.795  21.325  0.00  0.00    +0.111 A 
ENDBRANCH  18  20
ENDBRANCH   7  18
ENDBRANCH  14  16
ENDBRANCH  12  14
BRANCH  13  15
ATOM     15  C   UNL     1      10.659   8.438  22.704  0.00  0.00    +0.140 C 
BRANCH  15   6
ATOM      5  O   UNL     1      11.057  10.771  24.354  0.00  0.00    -0.253 OA
ATOM      6  N   UNL     1      10.607   9.808  22.288  0.00  0.00    -0.297 N 
ATOM      8  N   UNL     1      10.707  12.106  22.489  0.00  0.00    -0.297 N 
ATOM     17  C   UNL     1      10.812  10.887  23.154  0.00  0.00    +0.300 C 
ATOM     29  H   UNL     1      10.425  10.006  21.309  0.00  0.00    +0.150 HD
ATOM     31  H   UNL     1      10.428  12.101  21.513  0.00  0.00    +0.150 HD
BRANCH   8  19
ATOM     19  C   UNL     1      10.876  13.377  23.154  0.00  0.00    +0.068 C 
ATOM     21  C   UNL     1       9.799  14.357  22.704  0.00  0.00    +0.027 C 
ATOM     22  C   UNL     1      12.270  13.934  22.898  0.00  0.00    +0.027 C 
ENDBRANCH   8  19
ENDBRANCH  15   6
ENDBRANCH  13  15
TORSDOF 9
ENDMDL
MODEL 2
REMARK VINA RESULT:      -6.6      3.046      4.005
REMARK  Name = 40778248
REMARK  11 active torsions:
REMARK  status: ('A' for Active; 'I' for Inactive)
REMARK    1  A    between atoms: O_2  and  C_10
REMARK    2  A    between atoms: O_3  and  C_11
REMARK    3  A    between atoms: N_6  and  C_15
REMARK    4  A    between atoms: N_7  and  C_18
REMARK    5  A    between atoms: N_8  and  C_19
REMARK    6  A    between atoms: C_12  and  C_14
REMARK    7  A    between atoms: C_13  and  C_15
REMARK    8  A    between atoms: C_14  and  C_16
REMARK    9  A    between atoms: C_18  and  C_20
REMARK   10  A    between atoms: C_19  and  C_21
REMARK   11  A    between atoms: C_19  and  C_22
REMARK                            x       y       z     vdW  Elec       q    Type
REMARK                         _______ _______ _______ _____ _____    ______ ____
ROOT
ATOM      1  O   UNL     1      10.587   8.285  20.352  0.00  0.00    -0.366 OA
ATOM     10  C   UNL     1      12.694   7.240  20.529  0.00  0.00    +0.175 C 
ATOM     11  C   UNL     1      11.716   6.466  21.389  0.00  0.00    +0.176 C 
ATOM     12  C   UNL     1      11.755   7.962  19.577  0.00  0.00    +0.158 C 
ATOM     13  C   UNL     1      10.569   7.460  21.540  0.00  0.00    +0.167 C 
ENDROOT
BRANCH  10   2
ATOM      2  O   UNL     1      13.611   6.415  19.843  0.00  0.00    -0.387 OA
ATOM     27  H   UNL     1      13.773   6.820  18.974  0.00  0.00    +0.210 HD
ENDBRANCH  10   2
BRANCH  11   3
ATOM      3  O   UNL     1      11.226   5.329  20.681  0.00  0.00    -0.387 OA
ATOM     28  H   UNL     1      11.853   4.601  20.830  0.00  0.00    +0.210 HD
ENDBRANCH  11   3
BRANCH  12  14
ATOM     14  C   UNL     1      12.349   9.233  18.993  0.00  0.00    +0.130 C 
BRANCH  14  16
ATOM      4  O   UNL     1      13.130   7.927  17.113  0.00  0.00    -0.276 OA
ATOM      7  N   UNL     1      13.066  10.243  16.935  0.00  0.00    -0.311 N 
ATOM     16  C   UNL     1      12.888   9.033  17.590  0.00  0.00    +0.216 C 
ATOM     30  H   UNL     1      12.822  11.105  17.415  0.00  0.00    +0.149 HD
BRANCH   7  18
ATOM     18  C   UNL     1      13.571  10.344  15.586  0.00  0.00    +0.141 C 
BRANCH  18  20
ATOM      9  N   UNL     1      16.873  11.658  14.293  0.00  0.00    -0.263 NA
ATOM     20  C   UNL     1      14.877  11.083  15.529  0.00  0.00    -0.012 A 
ATOM     23  C   UNL     1      15.311  11.854  16.603  0.00  0.00    +0.008 A 
ATOM     24  C   UNL     1      15.688  11.019  14.408  0.00  0.00    +0.115 A 
ATOM     25  C   UNL     1      16.526  12.526  16.522  0.00  0.00    +0.020 A 
ATOM     26  C   UNL     1      17.262  12.397  15.355  0.00  0.00    +0.111 A 
ENDBRANCH  18  20
ENDBRANCH   7  18
ENDBRANCH  14  16
ENDBRANCH  12  14
BRANCH  13  15
ATOM     15  C   UNL     1      10.729   8.376  22.745  0.00  0.00    +0.140 C 
BRANCH  15   6
ATOM      5  O   UNL     1      12.470  10.670  22.925  0.00  0.00    -0.253 OA
ATOM      6  N   UNL     1      10.407   9.732  22.412  0.00  0.00    -0.297 N 
ATOM      8  N   UNL     1      10.740  12.001  22.136  0.00  0.00    -0.297 N 
ATOM     17  C   UNL     1      11.312  10.792  22.528  0.00  0.00    +0.300 C 
ATOM     29  H   UNL     1       9.475   9.932  22.060  0.00  0.00    +0.150 HD
ATOM     31  H   UNL     1       9.754  12.012  21.894  0.00  0.00    +0.150 HD
BRANCH   8  19
ATOM     19  C   UNL     1      11.461  13.251  22.160  0.00  0.00    +0.068 C 
ATOM     21  C   UNL     1      10.878  14.179  23.218  0.00  0.00    +0.027 C 
ATOM     22  C   UNL     1      11.445  13.904  20.784  0.00  0.00    +0.027 C 
ENDBRANCH   8  19
ENDBRANCH  15   6
ENDBRANCH  13  15
TORSDOF 9
ENDMDL
MODEL 3
REMARK VINA RESULT:      -6.5      2.009      7.100
REMARK  Name = 40778248
REMARK  11 active torsions:
REMARK  status: ('A' for Active; 'I' for Inactive)
REMARK    1  A    between atoms: O_2  and  C_10
REMARK    2  A    between atoms: O_3  and  C_11
REMARK    3  A    between atoms: N_6  and  C_15
REMARK    4  A    between atoms: N_7  and  C_18
REMARK    5  A    between atoms: N_8  and  C_19
REMARK    6  A    between atoms: C_12  and  C_14
REMARK    7  A    between atoms: C_13  and  C_15
REMARK    8  A    between atoms: C_14  and  C_16
REMARK    9  A    between atoms: C_18  and  C_20
REMARK   10  A    between atoms: C_19  and  C_21
REMARK   11  A    between atoms: C_19  and  C_22
REMARK                            x       y       z     vdW  Elec       q    Type
REMARK                         _______ _______ _______ _____ _____    ______ ____
ROOT
ATOM      1  O   UNL     1      11.972   7.420  22.207  0.00  0.00    -0.366 OA
ATOM     10  C   UNL     1      11.552   8.402  20.105  0.00  0.00    +0.175 C 
ATOM     11  C   UNL     1      12.586   7.313  19.912  0.00  0.00    +0.176 C 
ATOM     12  C   UNL     1      10.911   7.983  21.417  0.00  0.00    +0.158 C 
ATOM     13  C   UNL     1      13.078   7.084  21.337  0.00  0.00    +0.167 C 
ENDROOT
BRANCH  10   2
ATOM      2  O   UNL     1      10.611   8.474  19.055  0.00  0.00    -0.387 OA
ATOM     27  H   UNL     1      10.641   9.379  18.700  0.00  0.00    +0.210 HD
ENDBRANCH  10   2
BRANCH  11   3
ATOM      3  O   UNL     1      11.962   6.112  19.461  0.00  0.00    -0.387 OA
ATOM     28  H   UNL     1      11.041   6.329  19.236  0.00  0.00    +0.210 HD
ENDBRANCH  11   3
BRANCH  12  14
ATOM     14  C   UNL     1      10.268   9.135  22.170  0.00  0.00    +0.130 C 
BRANCH  14  16
ATOM      4  O   UNL     1      11.271  11.196  21.397  0.00  0.00    -0.276 OA
ATOM      7  N   UNL     1      11.879  10.350  23.474  0.00  0.00    -0.311 N 
ATOM     16  C   UNL     1      11.179  10.343  22.276  0.00  0.00    +0.216 C 
ATOM     30  H   UNL     1      11.721   9.601  24.144  0.00  0.00    +0.149 HD
BRANCH   7  18
ATOM     18  C   UNL     1      12.819  11.386  23.833  0.00  0.00    +0.141 C 
BRANCH  18  20
ATOM      9  N   UNL     1      11.853  15.020  24.237  0.00  0.00    -0.263 NA
ATOM     20  C   UNL     1      12.129  12.620  24.338  0.00  0.00    -0.012 A 
ATOM     23  C   UNL     1      11.164  12.544  25.336  0.00  0.00    +0.008 A 
ATOM     24  C   UNL     1      12.435  13.871  23.826  0.00  0.00    +0.115 A 
ATOM     25  C   UNL     1      10.542  13.705  25.785  0.00  0.00    +0.020 A 
ATOM     26  C   UNL     1      10.919  14.907  25.207  0.00  0.00    +0.111 A 
ENDBRANCH  18  20
ENDBRANCH   7  18
ENDBRANCH  14  16
ENDBRANCH  12  14
BRANCH  13  15
ATOM     15  C   UNL     1      14.254   7.976  21.712  0.00  0.00    +0.140 C 
BRANCH  15   6
ATOM      5  O   UNL     1      16.924   8.615  20.825  0.00  0.00    -0.253 OA
ATOM      6  N   UNL     1      15.442   7.204  21.926  0.00  0.00    -0.297 N 
ATOM      8  N   UNL     1      17.682   6.655  21.808  0.00  0.00    -0.297 N 
ATOM     17  C   UNL     1      16.705   7.585  21.461  0.00  0.00    +0.300 C 
ATOM     29  H   UNL     1      15.365   6.340  22.455  0.00  0.00    +0.150 HD
ATOM     31  H   UNL     1      17.391   5.798  22.269  0.00  0.00    +0.150 HD
BRANCH   8  19
ATOM     19  C   UNL     1      19.072   6.809  21.448  0.00  0.00    +0.068 C 
ATOM     21  C   UNL     1      19.457   5.797  20.377  0.00  0.00    +0.027 C 
ATOM     22  C   UNL     1      19.960   6.675  22.679  0.00  0.00    +0.027 C 
ENDBRANCH   8  19
ENDBRANCH  15   6
ENDBRANCH  13  15
TORSDOF 9
ENDMDL
MODEL 4
REMARK VINA RESULT:      -6.5      2.327      6.193
REMARK  Name = 40778248
REMARK  11 active torsions:
REMARK  status: ('A' for Active; 'I' for Inactive)
REMARK    1  A    between atoms: O_2  and  C_10
REMARK    2  A    between atoms: O_3  and  C_11
REMARK    3  A    between atoms: N_6  and  C_15
REMARK    4  A    between atoms: N_7  and  C_18
REMARK    5  A    between atoms: N_8  and  C_19
REMARK    6  A    between atoms: C_12  and  C_14
REMARK    7  A    between atoms: C_13  and  C_15
REMARK    8  A    between atoms: C_14  and  C_16
REMARK    9  A    between atoms: C_18  and  C_20
REMARK   10  A    between atoms: C_19  and  C_21
REMARK   11  A    between atoms: C_19  and  C_22
REMARK                            x       y       z     vdW  Elec       q    Type
REMARK                         _______ _______ _______ _____ _____    ______ ____
ROOT
ATOM      1  O   UNL     1      12.930  10.425  21.356  0.00  0.00    -0.366 OA
ATOM     10  C   UNL     1      11.447  10.755  23.158  0.00  0.00    +0.175 C 
ATOM     11  C   UNL     1      12.525  11.816  23.242  0.00  0.00    +0.176 C 
ATOM     12  C   UNL     1      11.536  10.346  21.698  0.00  0.00    +0.158 C 
ATOM     13  C   UNL     1      13.610  11.238  22.340  0.00  0.00    +0.167 C 
ENDROOT
BRANCH  10   2
ATOM      2  O   UNL     1      10.162  11.234  23.497  0.00  0.00    -0.387 OA
ATOM     27  H   UNL     1      10.081  12.131  23.130  0.00  0.00    +0.210 HD
ENDBRANCH  10   2
BRANCH  11   3
ATOM      3  O   UNL     1      12.067  13.035  22.659  0.00  0.00    -0.387 OA
ATOM     28  H   UNL     1      11.879  13.652  23.386  0.00  0.00    +0.210 HD
ENDBRANCH  11   3
BRANCH  12  14
ATOM     14  C   UNL     1      11.022   8.942  21.432  0.00  0.00    +0.130 C 
BRANCH  14  16
ATOM      4  O   UNL     1      10.393   8.497  19.140  0.00  0.00    -0.276 OA
ATOM      7  N   UNL     1      12.577   8.085  19.815  0.00  0.00    -0.311 N 
ATOM     16  C   UNL     1      11.265   8.493  20.004  0.00  0.00    +0.216 C 
ATOM     30  H   UNL     1      13.228   8.132  20.595  0.00  0.00    +0.149 HD
BRANCH   7  18
ATOM     18  C   UNL     1      13.080   7.605  18.549  0.00  0.00    +0.141 C 
BRANCH  18  20
ATOM      9  N   UNL     1      13.394   9.798  15.484  0.00  0.00    -0.263 NA
ATOM     20  C   UNL     1      13.504   8.731  17.650  0.00  0.00    -0.012 A 
ATOM     23  C   UNL     1      14.367   9.723  18.103  0.00  0.00    +0.008 A 
ATOM     24  C   UNL     1      13.051   8.814  16.344  0.00  0.00    +0.115 A 
ATOM     25  C   UNL     1      14.744  10.753  17.247  0.00  0.00    +0.020 A 
ATOM     26  C   UNL     1      14.234  10.745  15.959  0.00  0.00    +0.111 A 
ENDBRANCH  18  20
ENDBRANCH   7  18
ENDBRANCH  14  16
ENDBRANCH  12  14
BRANCH  13  15
ATOM     15  C   UNL     1      14.591  10.343  23.085  0.00  0.00    +0.140 C 
BRANCH  15   6
ATOM      5  O   UNL     1      14.719   7.558  22.343  0.00  0.00    -0.253 OA
ATOM      6  N   UNL     1      15.523   9.732  22.184  0.00  0.00    -0.297 N 
ATOM      8  N   UNL     1      16.528   8.042  20.974  0.00  0.00    -0.297 N 
ATOM     17  C   UNL     1      15.518   8.368  21.876  0.00  0.00    +0.300 C 
ATOM     29  H   UNL     1      16.216  10.324  21.736  0.00  0.00    +0.150 HD
ATOM     31  H   UNL     1      17.186   8.767  20.702  0.00  0.00    +0.150 HD
BRANCH   8  19
ATOM     19  C   UNL     1      16.743   6.698  20.491  0.00  0.00    +0.068 C 
ATOM     21  C   UNL     1      18.219   6.334  20.577  0.00  0.00    +0.027 C 
ATOM     22  C   UNL     1      16.220   6.552  19.067  0.00  0.00    +0.027 C 
ENDBRANCH   8  19
ENDBRANCH  15   6
ENDBRANCH  13  15
TORSDOF 9
ENDMDL
MODEL 5
REMARK VINA RESULT:      -6.5      2.853      4.409
REMARK  Name = 40778248
REMARK  11 active torsions:
REMARK  status: ('A' for Active; 'I' for Inactive)
REMARK    1  A    between atoms: O_2  and  C_10
REMARK    2  A    between atoms: O_3  and  C_11
REMARK    3  A    between atoms: N_6  and  C_15
REMARK    4  A    between atoms: N_7  and  C_18
REMARK    5  A    between atoms: N_8  and  C_19
REMARK    6  A    between atoms: C_12  and  C_14
REMARK    7  A    between atoms: C_13  and  C_15
REMARK    8  A    between atoms: C_14  and  C_16
REMARK    9  A    between atoms: C_18  and  C_20
REMARK   10  A    between atoms: C_19  and  C_21
REMARK   11  A    between atoms: C_19  and  C_22
REMARK                            x       y       z     vdW  Elec       q    Type
REMARK                         _______ _______ _______ _____ _____    ______ ____
ROOT
ATOM      1  O   UNL     1      13.754   7.533  20.756  0.00  0.00    -0.366 OA
ATOM     10  C   UNL     1      11.564   7.956  21.520  0.00  0.00    +0.175 C 
ATOM     11  C   UNL     1      11.555   6.626  20.795  0.00  0.00    +0.176 C 
ATOM     12  C   UNL     1      13.037   8.106  21.863  0.00  0.00    +0.158 C 
ATOM     13  C   UNL     1      12.855   6.689  19.999  0.00  0.00    +0.167 C 
ENDROOT
BRANCH  10   2
ATOM      2  O   UNL     1      10.748   7.971  22.672  0.00  0.00    -0.387 OA
ATOM     27  H   UNL     1       9.942   7.470  22.464  0.00  0.00    +0.210 HD
ENDBRANCH  10   2
BRANCH  11   3
ATOM      3  O   UNL     1      11.659   5.553  21.728  0.00  0.00    -0.387 OA
ATOM     28  H   UNL     1      11.875   5.940  22.594  0.00  0.00    +0.210 HD
ENDBRANCH  11   3
BRANCH  12  14
ATOM     14  C   UNL     1      13.467   9.549  22.059  0.00  0.00    +0.130 C 
BRANCH  14  16
ATOM      4  O   UNL     1      14.920  10.603  20.439  0.00  0.00    -0.276 OA
ATOM      7  N   UNL     1      15.841   9.185  22.030  0.00  0.00    -0.311 N 
ATOM     16  C   UNL     1      14.800   9.854  21.404  0.00  0.00    +0.216 C 
ATOM     30  H   UNL     1      15.638   8.595  22.834  0.00  0.00    +0.149 HD
BRANCH   7  18
ATOM     18  C   UNL     1      17.218   9.293  21.608  0.00  0.00    +0.141 C 
BRANCH  18  20
ATOM      9  N   UNL     1      17.398   6.148  19.515  0.00  0.00    -0.263 NA
ATOM     20  C   UNL     1      17.729   8.008  21.024  0.00  0.00    -0.012 A 
ATOM     23  C   UNL     1      18.953   7.479  21.419  0.00  0.00    +0.008 A 
ATOM     24  C   UNL     1      16.997   7.310  20.078  0.00  0.00    +0.115 A 
ATOM     25  C   UNL     1      19.401   6.285  20.862  0.00  0.00    +0.020 A 
ATOM     26  C   UNL     1      18.593   5.665  19.922  0.00  0.00    +0.111 A 
ENDBRANCH  18  20
ENDBRANCH   7  18
ENDBRANCH  14  16
ENDBRANCH  12  14
BRANCH  13  15
ATOM     15  C   UNL     1      12.681   7.313  18.621  0.00  0.00    +0.140 C 
BRANCH  15   6
ATOM      5  O   UNL     1      12.492   9.621  16.900  0.00  0.00    -0.253 OA
ATOM      6  N   UNL     1      13.707   8.278  18.356  0.00  0.00    -0.297 N 
ATOM      8  N   UNL     1      14.689  10.151  17.428  0.00  0.00    -0.297 N 
ATOM     17  C   UNL     1      13.535   9.374  17.504  0.00  0.00    +0.300 C 
ATOM     29  H   UNL     1      14.602   8.167  18.822  0.00  0.00    +0.150 HD
ATOM     31  H   UNL     1      15.523   9.824  17.906  0.00  0.00    +0.150 HD
BRANCH   8  19
ATOM     19  C   UNL     1      14.778  11.341  16.616  0.00  0.00    +0.068 C 
ATOM     21  C   UNL     1      15.343  11.005  15.242  0.00  0.00    +0.027 C 
ATOM     22  C   UNL     1      15.620  12.402  17.314  0.00  0.00    +0.027 C 
ENDBRANCH   8  19
ENDBRANCH  15   6
ENDBRANCH  13  15
TORSDOF 9
ENDMDL
MODEL 6
REMARK VINA RESULT:      -6.4      3.118      4.212
REMARK  Name = 40778248
REMARK  11 active torsions:
REMARK  status: ('A' for Active; 'I' for Inactive)
REMARK    1  A    between atoms: O_2  and  C_10
REMARK    2  A    between atoms: O_3  and  C_11
REMARK    3  A    between atoms: N_6  and  C_15
REMARK    4  A    between atoms: N_7  and  C_18
REMARK    5  A    between atoms: N_8  and  C_19
REMARK    6  A    between atoms: C_12  and  C_14
REMARK    7  A    between atoms: C_13  and  C_15
REMARK    8  A    between atoms: C_14  and  C_16
REMARK    9  A    between atoms: C_18  and  C_20
REMARK   10  A    between atoms: C_19  and  C_21
REMARK   11  A    between atoms: C_19  and  C_22
REMARK                            x       y       z     vdW  Elec       q    Type
REMARK                         _______ _______ _______ _____ _____    ______ ____
ROOT
ATOM      1  O   UNL     1      11.192   8.525  20.081  0.00  0.00    -0.366 OA
ATOM     10  C   UNL     1      11.859   6.800  21.544  0.00  0.00    +0.175 C 
ATOM     11  C   UNL     1      10.700   7.532  22.187  0.00  0.00    +0.176 C 
ATOM     12  C   UNL     1      11.681   7.173  20.082  0.00  0.00    +0.158 C 
ATOM     13  C   UNL     1      10.668   8.835  21.394  0.00  0.00    +0.167 C 
ENDROOT
BRANCH  10   2
ATOM      2  O   UNL     1      11.818   5.403  21.742  0.00  0.00    -0.387 OA
ATOM     27  H   UNL     1      12.736   5.094  21.826  0.00  0.00    +0.210 HD
ENDBRANCH  10   2
BRANCH  11   3
ATOM      3  O   UNL     1       9.478   6.836  21.944  0.00  0.00    -0.387 OA
ATOM     28  H   UNL     1       9.014   7.304  21.229  0.00  0.00    +0.210 HD
ENDBRANCH  11   3
BRANCH  12  14
ATOM     14  C   UNL     1      12.968   7.094  19.278  0.00  0.00    +0.130 C 
BRANCH  14  16
ATOM      4  O   UNL     1      11.802   7.320  17.171  0.00  0.00    -0.276 OA
ATOM      7  N   UNL     1      13.884   8.320  17.427  0.00  0.00    -0.311 N 
ATOM     16  C   UNL     1      12.794   7.574  17.850  0.00  0.00    +0.216 C 
ATOM     30  H   UNL     1      14.651   8.485  18.073  0.00  0.00    +0.149 HD
BRANCH   7  18
ATOM     18  C   UNL     1      13.981   8.897  16.106  0.00  0.00    +0.141 C 
BRANCH  18  20
ATOM      9  N   UNL     1      14.895  12.320  17.429  0.00  0.00    -0.263 NA
ATOM     20  C   UNL     1      14.218  10.379  16.157  0.00  0.00    -0.012 A 
ATOM     23  C   UNL     1      13.996  11.179  15.041  0.00  0.00    +0.008 A 
ATOM     24  C   UNL     1      14.663  10.994  17.316  0.00  0.00    +0.115 A 
ATOM     25  C   UNL     1      14.223  12.549  15.118  0.00  0.00    +0.020 A 
ATOM     26  C   UNL     1      14.669  13.065  16.324  0.00  0.00    +0.111 A 
ENDBRANCH  18  20
ENDBRANCH   7  18
ENDBRANCH  14  16
ENDBRANCH  12  14
BRANCH  13  15
ATOM     15  C   UNL     1      11.543   9.923  21.999  0.00  0.00    +0.140 C 
BRANCH  15   6
ATOM      5  O   UNL     1      12.337  12.578  22.806  0.00  0.00    -0.253 OA
ATOM      6  N   UNL     1      10.758  10.875  22.728  0.00  0.00    -0.297 N 
ATOM      8  N   UNL     1      10.252  12.866  23.783  0.00  0.00    -0.297 N 
ATOM     17  C   UNL     1      11.218  12.148  23.082  0.00  0.00    +0.300 C 
ATOM     29  H   UNL     1       9.811  10.616  22.989  0.00  0.00    +0.150 HD
ATOM     31  H   UNL     1       9.385  12.398  24.027  0.00  0.00    +0.150 HD
BRANCH   8  19
ATOM     19  C   UNL     1      10.473  14.209  24.265  0.00  0.00    +0.068 C 
ATOM     21  C   UNL     1      10.533  14.222  25.787  0.00  0.00    +0.027 C 
ATOM     22  C   UNL     1       9.391  15.148  23.747  0.00  0.00    +0.027 C 
ENDBRANCH   8  19
ENDBRANCH  15   6
ENDBRANCH  13  15
TORSDOF 9
ENDMDL
MODEL 7
REMARK VINA RESULT:      -6.3     16.660     18.612
REMARK  Name = 40778248
REMARK  11 active torsions:
REMARK  status: ('A' for Active; 'I' for Inactive)
REMARK    1  A    between atoms: O_2  and  C_10
REMARK    2  A    between atoms: O_3  and  C_11
REMARK    3  A    between atoms: N_6  and  C_15
REMARK    4  A    between atoms: N_7  and  C_18
REMARK    5  A    between atoms: N_8  and  C_19
REMARK    6  A    between atoms: C_12  and  C_14
REMARK    7  A    between atoms: C_13  and  C_15
REMARK    8  A    between atoms: C_14  and  C_16
REMARK    9  A    between atoms: C_18  and  C_20
REMARK   10  A    between atoms: C_19  and  C_21
REMARK   11  A    between atoms: C_19  and  C_22
REMARK                            x       y       z     vdW  Elec       q    Type
REMARK                         _______ _______ _______ _____ _____    ______ ____
ROOT
ATOM      1  O   UNL     1       9.295   5.740   6.128  0.00  0.00    -0.366 OA
ATOM     10  C   UNL     1      11.462   6.634   6.379  0.00  0.00    +0.175 C 
ATOM     11  C   UNL     1      10.910   6.359   7.762  0.00  0.00    +0.176 C 
ATOM     12  C   UNL     1      10.598   5.727   5.520  0.00  0.00    +0.158 C 
ATOM     13  C   UNL     1       9.416   6.224   7.486  0.00  0.00    +0.167 C 
ENDROOT
BRANCH  10   2
ATOM      2  O   UNL     1      12.836   6.330   6.254  0.00  0.00    -0.387 OA
ATOM     27  H   UNL     1      13.312   6.864   6.913  0.00  0.00    +0.210 HD
ENDBRANCH  10   2
BRANCH  11   3
ATOM      3  O   UNL     1      11.385   5.104   8.245  0.00  0.00    -0.387 OA
ATOM     28  H   UNL     1      10.653   4.469   8.174  0.00  0.00    +0.210 HD
ENDBRANCH  11   3
BRANCH  12  14
ATOM     14  C   UNL     1      10.493   6.183   4.075  0.00  0.00    +0.130 C 
BRANCH  14  16
ATOM      4  O   UNL     1      12.651   6.561   3.051  0.00  0.00    -0.276 OA
ATOM      7  N   UNL     1      11.610   4.503   2.771  0.00  0.00    -0.311 N 
ATOM     16  C   UNL     1      11.709   5.801   3.253  0.00  0.00    +0.216 C 
ATOM     30  H   UNL     1      10.791   3.949   3.007  0.00  0.00    +0.149 HD
BRANCH   7  18
ATOM     18  C   UNL     1      12.628   3.885   1.955  0.00  0.00    +0.141 C 
BRANCH  18  20
ATOM      9  N   UNL     1      10.496   4.085  -1.162  0.00  0.00    -0.263 NA
ATOM     20  C   UNL     1      12.206   3.775   0.518  0.00  0.00    -0.012 A 
ATOM     23  C   UNL     1      13.076   3.281  -0.448  0.00  0.00    +0.008 A 
ATOM     24  C   UNL     1      10.938   4.160   0.113  0.00  0.00    +0.115 A 
ATOM     25  C   UNL     1      12.657   3.189  -1.771  0.00  0.00    +0.020 A 
ATOM     26  C   UNL     1      11.369   3.601  -2.074  0.00  0.00    +0.111 A 
ENDBRANCH  18  20
ENDBRANCH   7  18
ENDBRANCH  14  16
ENDBRANCH  12  14
BRANCH  13  15
ATOM     15  C   UNL     1       8.671   7.549   7.575  0.00  0.00    +0.140 C 
BRANCH  15   6
ATOM      5  O   UNL     1       9.042   9.560   5.539  0.00  0.00    -0.253 OA
ATOM      6  N   UNL     1       7.856   7.765   6.416  0.00  0.00    -0.297 N 
ATOM      8  N   UNL     1       7.160   8.752   4.448  0.00  0.00    -0.297 N 
ATOM     17  C   UNL     1       8.104   8.766   5.472  0.00  0.00    +0.300 C 
ATOM     29  H   UNL     1       7.063   7.149   6.266  0.00  0.00    +0.150 HD
ATOM     31  H   UNL     1       6.380   8.107   4.520  0.00  0.00    +0.150 HD
BRANCH   8  19
ATOM     19  C   UNL     1       7.188   9.684   3.345  0.00  0.00    +0.068 C 
ATOM     21  C   UNL     1       5.777  10.148   3.008  0.00  0.00    +0.027 C 
ATOM     22  C   UNL     1       7.868   9.059   2.134  0.00  0.00    +0.027 C 
ENDBRANCH   8  19
ENDBRANCH  15   6
ENDBRANCH  13  15
TORSDOF 9
ENDMDL
MODEL 8
REMARK VINA RESULT:      -6.2     26.445     28.069
REMARK  Name = 40778248
REMARK  11 active torsions:
REMARK  status: ('A' for Active; 'I' for Inactive)
REMARK    1  A    between atoms: O_2  and  C_10
REMARK    2  A    between atoms: O_3  and  C_11
REMARK    3  A    between atoms: N_6  and  C_15
REMARK    4  A    between atoms: N_7  and  C_18
REMARK    5  A    between atoms: N_8  and  C_19
REMARK    6  A    between atoms: C_12  and  C_14
REMARK    7  A    between atoms: C_13  and  C_15
REMARK    8  A    between atoms: C_14  and  C_16
REMARK    9  A    between atoms: C_18  and  C_20
REMARK   10  A    between atoms: C_19  and  C_21
REMARK   11  A    between atoms: C_19  and  C_22
REMARK                            x       y       z     vdW  Elec       q    Type
REMARK                         _______ _______ _______ _____ _____    ______ ____
ROOT
ATOM      1  O   UNL     1      -5.336 -10.995  16.236  0.00  0.00    -0.366 OA
ATOM     10  C   UNL     1      -4.349 -11.511  18.315  0.00  0.00    +0.175 C 
ATOM     11  C   UNL     1      -5.806 -11.918  18.378  0.00  0.00    +0.176 C 
ATOM     12  C   UNL     1      -4.109 -11.472  16.815  0.00  0.00    +0.158 C 
ATOM     13  C   UNL     1      -6.402 -11.151  17.202  0.00  0.00    +0.167 C 
ENDROOT
BRANCH  10   2
ATOM      2  O   UNL     1      -3.486 -12.419  18.966  0.00  0.00    -0.387 OA
ATOM     27  H   UNL     1      -3.695 -13.309  18.633  0.00  0.00    +0.210 HD
ENDBRANCH  10   2
BRANCH  11   3
ATOM      3  O   UNL     1      -5.944 -13.313  18.112  0.00  0.00    -0.387 OA
ATOM     28  H   UNL     1      -5.526 -13.792  18.847  0.00  0.00    +0.210 HD
ENDBRANCH  11   3
BRANCH  12  14
ATOM     14  C   UNL     1      -2.964 -10.560  16.410  0.00  0.00    +0.130 C 
BRANCH  14  16
ATOM      4  O   UNL     1      -1.324 -11.690  15.038  0.00  0.00    -0.276 OA
ATOM      7  N   UNL     1      -3.000 -10.451  14.011  0.00  0.00    -0.311 N 
ATOM     16  C   UNL     1      -2.322 -10.977  15.101  0.00  0.00    +0.216 C 
ATOM     30  H   UNL     1      -3.826  -9.881  14.171  0.00  0.00    +0.149 HD
BRANCH   7  18
ATOM     18  C   UNL     1      -2.601 -10.687  12.644  0.00  0.00    +0.141 C 
BRANCH  18  20
ATOM      9  N   UNL     1      -5.725  -9.194  11.123  0.00  0.00    -0.263 NA
ATOM     20  C   UNL     1      -3.512 -10.002  11.666  0.00  0.00    -0.012 A 
ATOM     23  C   UNL     1      -3.038  -9.552  10.439  0.00  0.00    +0.008 A 
ATOM     24  C   UNL     1      -4.852  -9.801  11.957  0.00  0.00    +0.115 A 
ATOM     25  C   UNL     1      -3.906  -8.922   9.553  0.00  0.00    +0.020 A 
ATOM     26  C   UNL     1      -5.228  -8.769   9.939  0.00  0.00    +0.111 A 
ENDBRANCH  18  20
ENDBRANCH   7  18
ENDBRANCH  14  16
ENDBRANCH  12  14
BRANCH  13  15
ATOM     15  C   UNL     1      -6.891  -9.760  17.583  0.00  0.00    +0.140 C 
BRANCH  15   6
ATOM      5  O   UNL     1      -9.594  -8.766  17.753  0.00  0.00    -0.253 OA
ATOM      6  N   UNL     1      -7.663  -9.174  16.528  0.00  0.00    -0.297 N 
ATOM      8  N   UNL     1      -9.487  -8.193  15.507  0.00  0.00    -0.297 N 
ATOM     17  C   UNL     1      -8.974  -8.715  16.692  0.00  0.00    +0.300 C 
ATOM     29  H   UNL     1      -7.230  -9.077  15.614  0.00  0.00    +0.150 HD
ATOM     31  H   UNL     1      -8.924  -8.263  14.665  0.00  0.00    +0.150 HD
BRANCH   8  19
ATOM     19  C   UNL     1     -10.822  -7.651  15.404  0.00  0.00    +0.068 C 
ATOM     21  C   UNL     1     -11.463  -8.069  14.087  0.00  0.00    +0.027 C 
ATOM     22  C   UNL     1     -10.796  -6.135  15.550  0.00  0.00    +0.027 C 
ENDBRANCH   8  19
ENDBRANCH  15   6
ENDBRANCH  13  15
TORSDOF 9
ENDMDL
MODEL 9
REMARK VINA RESULT:      -6.1      3.231      6.363
REMARK  Name = 40778248
REMARK  11 active torsions:
REMARK  status: ('A' for Active; 'I' for Inactive)
REMARK    1  A    between atoms: O_2  and  C_10
REMARK    2  A    between atoms: O_3  and  C_11
REMARK    3  A    between atoms: N_6  and  C_15
REMARK    4  A    between atoms: N_7  and  C_18
REMARK    5  A    between atoms: N_8  and  C_19
REMARK    6  A    between atoms: C_12  and  C_14
REMARK    7  A    between atoms: C_13  and  C_15
REMARK    8  A    between atoms: C_14  and  C_16
REMARK    9  A    between atoms: C_18  and  C_20
REMARK   10  A    between atoms: C_19  and  C_21
REMARK   11  A    between atoms: C_19  and  C_22
REMARK                            x       y       z     vdW  Elec       q    Type
REMARK                         _______ _______ _______ _____ _____    ______ ____
ROOT
ATOM      1  O   UNL     1      13.239   8.751  19.809  0.00  0.00    -0.366 OA
ATOM     10  C   UNL     1      11.358   7.853  20.911  0.00  0.00    +0.175 C 
ATOM     11  C   UNL     1      12.497   7.911  21.908  0.00  0.00    +0.176 C 
ATOM     12  C   UNL     1      11.808   8.870  19.875  0.00  0.00    +0.158 C 
ATOM     13  C   UNL     1      13.709   8.069  20.996  0.00  0.00    +0.167 C 
ENDROOT
BRANCH  10   2
ATOM      2  O   UNL     1      10.106   8.187  21.471  0.00  0.00    -0.387 OA
ATOM     27  H   UNL     1       9.895   9.094  21.191  0.00  0.00    +0.210 HD
ENDBRANCH  10   2
BRANCH  11   3
ATOM      3  O   UNL     1      12.392   9.084  22.712  0.00  0.00    -0.387 OA
ATOM     28  H   UNL     1      12.550   8.820  23.634  0.00  0.00    +0.210 HD
ENDBRANCH  11   3
BRANCH  12  14
ATOM     14  C   UNL     1      11.211   8.634  18.499  0.00  0.00    +0.130 C 
BRANCH  14  16
ATOM      4  O   UNL     1      12.729   7.557  16.956  0.00  0.00    -0.276 OA
ATOM      7  N   UNL     1      12.612   9.877  16.995  0.00  0.00    -0.311 N 
ATOM     16  C   UNL     1      12.261   8.599  17.406  0.00  0.00    +0.216 C 
ATOM     30  H   UNL     1      12.154  10.677  17.423  0.00  0.00    +0.149 HD
BRANCH   7  18
ATOM     18  C   UNL     1      13.594  10.134  15.968  0.00  0.00    +0.141 C 
BRANCH  18  20
ATOM      9  N   UNL     1      16.426  12.640  15.909  0.00  0.00    -0.263 NA
ATOM     20  C   UNL     1      14.675  11.061  16.444  0.00  0.00    -0.012 A 
ATOM     23  C   UNL     1      14.944  11.211  17.800  0.00  0.00    +0.008 A 
ATOM     24  C   UNL     1      15.438  11.791  15.547  0.00  0.00    +0.115 A 
ATOM     25  C   UNL     1      15.953  12.075  18.212  0.00  0.00    +0.020 A 
ATOM     26  C   UNL     1      16.658  12.761  17.236  0.00  0.00    +0.111 A 
ENDBRANCH  18  20
ENDBRANCH   7  18
ENDBRANCH  14  16
ENDBRANCH  12  14
BRANCH  13  15
ATOM     15  C   UNL     1      14.307   6.738  20.562  0.00  0.00    +0.140 C 
BRANCH  15   6
ATOM      5  O   UNL     1      16.939   7.754  19.956  0.00  0.00    -0.253 OA
ATOM      6  N   UNL     1      15.523   6.461  21.268  0.00  0.00    -0.297 N 
ATOM      8  N   UNL     1      17.776   6.564  21.764  0.00  0.00    -0.297 N 
ATOM     17  C   UNL     1      16.764   6.995  20.909  0.00  0.00    +0.300 C 
ATOM     29  H   UNL     1      15.477   5.853  22.081  0.00  0.00    +0.150 HD
ATOM     31  H   UNL     1      17.545   5.878  22.477  0.00  0.00    +0.150 HD
BRANCH   8  19
ATOM     19  C   UNL     1      19.153   6.969  21.614  0.00  0.00    +0.068 C 
ATOM     21  C   UNL     1      19.892   6.005  20.694  0.00  0.00    +0.027 C 
ATOM     22  C   UNL     1      19.834   7.066  22.973  0.00  0.00    +0.027 C 
ENDBRANCH   8  19
ENDBRANCH  15   6
ENDBRANCH  13  15
TORSDOF 9
ENDMDL
MODEL 10
REMARK VINA RESULT:      -6.0      2.701      3.480
REMARK  Name = 40778248
REMARK  11 active torsions:
REMARK  status: ('A' for Active; 'I' for Inactive)
REMARK    1  A    between atoms: O_2  and  C_10
REMARK    2  A    between atoms: O_3  and  C_11
REMARK    3  A    between atoms: N_6  and  C_15
REMARK    4  A    between atoms: N_7  and  C_18
REMARK    5  A    between atoms: N_8  and  C_19
REMARK    6  A    between atoms: C_12  and  C_14
REMARK    7  A    between atoms: C_13  and  C_15
REMARK    8  A    between atoms: C_14  and  C_16
REMARK    9  A    between atoms: C_18  and  C_20
REMARK   10  A    between atoms: C_19  and  C_21
REMARK   11  A    between atoms: C_19  and  C_22
REMARK                            x       y       z     vdW  Elec       q    Type
REMARK                         _______ _______ _______ _____ _____    ______ ____
ROOT
ATOM      1  O   UNL     1      11.377   8.449  19.603  0.00  0.00    -0.366 OA
ATOM     10  C   UNL     1      12.147   6.941  21.243  0.00  0.00    +0.175 C 
ATOM     11  C   UNL     1      10.937   7.659  21.803  0.00  0.00    +0.176 C 
ATOM     12  C   UNL     1      11.955   7.141  19.749  0.00  0.00    +0.158 C 
ATOM     13  C   UNL     1      10.824   8.863  20.874  0.00  0.00    +0.167 C 
ENDROOT
BRANCH  10   2
ATOM      2  O   UNL     1      12.197   5.573  21.592  0.00  0.00    -0.387 OA
ATOM     27  H   UNL     1      13.133   5.337  21.708  0.00  0.00    +0.210 HD
ENDBRANCH  10   2
BRANCH  11   3
ATOM      3  O   UNL     1       9.766   6.861  21.637  0.00  0.00    -0.387 OA
ATOM     28  H   UNL     1       9.277   7.217  20.876  0.00  0.00    +0.210 HD
ENDBRANCH  11   3
BRANCH  12  14
ATOM     14  C   UNL     1      13.249   7.062  18.959  0.00  0.00    +0.130 C 
BRANCH  14  16
ATOM      4  O   UNL     1      12.927   7.785  16.673  0.00  0.00    -0.276 OA
ATOM      7  N   UNL     1      13.798   9.282  18.222  0.00  0.00    -0.311 N 
ATOM     16  C   UNL     1      13.295   8.055  17.814  0.00  0.00    +0.216 C 
ATOM     30  H   UNL     1      14.063   9.408  19.196  0.00  0.00    +0.149 HD
BRANCH   7  18
ATOM     18  C   UNL     1      13.952  10.408  17.332  0.00  0.00    +0.141 C 
BRANCH  18  20
ATOM      9  N   UNL     1      16.539  12.124  19.493  0.00  0.00    -0.263 NA
ATOM     20  C   UNL     1      15.093  11.295  17.742  0.00  0.00    -0.012 A 
ATOM     23  C   UNL     1      15.752  12.091  16.811  0.00  0.00    +0.008 A 
ATOM     24  C   UNL     1      15.522  11.347  19.058  0.00  0.00    +0.115 A 
ATOM     25  C   UNL     1      16.804  12.903  17.220  0.00  0.00    +0.020 A 
ATOM     26  C   UNL     1      17.156  12.883  18.559  0.00  0.00    +0.111 A 
ENDBRANCH  18  20
ENDBRANCH   7  18
ENDBRANCH  14  16
ENDBRANCH  12  14
BRANCH  13  15
ATOM     15  C   UNL     1      11.621  10.067  21.358  0.00  0.00    +0.140 C 
BRANCH  15   6
ATOM      5  O   UNL     1      12.325  12.656  22.420  0.00  0.00    -0.253 OA
ATOM      6  N   UNL     1      10.856  10.863  22.271  0.00  0.00    -0.297 N 
ATOM      8  N   UNL     1      10.336  12.668  23.614  0.00  0.00    -0.297 N 
ATOM     17  C   UNL     1      11.269  12.114  22.741  0.00  0.00    +0.300 C 
ATOM     29  H   UNL     1       9.959  10.504  22.585  0.00  0.00    +0.150 HD
ATOM     31  H   UNL     1       9.529  12.111  23.876  0.00  0.00    +0.150 HD
BRANCH   8  19
ATOM     19  C   UNL     1      10.520  13.956  24.241  0.00  0.00    +0.068 C 
ATOM     21  C   UNL     1      10.538  13.809  25.757  0.00  0.00    +0.027 C 
ATOM     22  C   UNL     1       9.437  14.929  23.793  0.00  0.00    +0.027 C 
ENDBRANCH   8  19
ENDBRANCH  15   6
ENDBRANCH  13  15
TORSDOF 9
ENDMDL
