MODEL 1
REMARK VINA RESULT:      -7.7      0.000      0.000
REMARK  Name = 25338279
REMARK  5 active torsions:
REMARK  status: ('A' for Active; 'I' for Inactive)
REMARK    1  A    between atoms: N_3  and  C_14
REMARK    2  A    between atoms: N_4  and  C_9
REMARK    3  A    between atoms: C_10  and  C_13
REMARK    4  A    between atoms: C_15  and  C_17
REMARK    5  A    between atoms: C_16  and  C_18
REMARK                            x       y       z     vdW  Elec       q    Type
REMARK                         _______ _______ _______ _____ _____    ______ ____
ROOT
ATOM      3  N   UNL     1      13.384   9.083  18.536  0.00  0.00    -0.293 NA
ATOM      9  C   UNL     1      14.396   6.985  18.624  0.00  0.00    +0.089 C 
ATOM     10  C   UNL     1      12.405   8.251  19.260  0.00  0.00    +0.147 C 
ATOM     11  C   UNL     1      13.121   6.900  19.462  0.00  0.00    +0.052 C 
ATOM     12  C   UNL     1      14.148   8.160  17.690  0.00  0.00    +0.107 C 
ATOM     14  C   UNL     1      12.766  10.149  17.756  0.00  0.00    +0.105 C 
ENDROOT
BRANCH  10  13
ATOM      1  O   UNL     1      11.614   7.995  21.557  0.00  0.00    -0.336 OA
ATOM      5  N   UNL     1      11.805  10.124  20.887  0.00  0.00    -0.189 NA
ATOM      6  N   UNL     1      11.220   8.783  22.647  0.00  0.00    -0.054 NA
ATOM     13  C   UNL     1      11.941   8.863  20.565  0.00  0.00    +0.245 A 
ATOM     16  C   UNL     1      11.359  10.025  22.174  0.00  0.00    +0.222 A 
BRANCH  16  18
ATOM      7  N   UNL     1      10.928  12.351  22.292  0.00  0.00    -0.249 NA
ATOM      8  N   UNL     1      10.655  12.198  25.079  0.00  0.00    -0.260 NA
ATOM     18  C   UNL     1      11.065  11.187  22.960  0.00  0.00    +0.129 A 
ATOM     23  C   UNL     1      10.931  11.113  24.329  0.00  0.00    +0.142 A 
ATOM     25  C   UNL     1      10.652  13.436  23.043  0.00  0.00    +0.131 A 
ATOM     26  C   UNL     1      10.519  13.360  24.412  0.00  0.00    +0.130 A 
ENDBRANCH  16  18
ENDBRANCH  10  13
BRANCH   9   4
ATOM      2  O   UNL     1      16.835   5.471  18.581  0.00  0.00    -0.270 OA
ATOM      4  N   UNL     1      15.560   7.204  19.447  0.00  0.00    -0.307 N 
ATOM     15  C   UNL     1      16.697   6.416  19.353  0.00  0.00    +0.244 C 
ATOM     27  H   UNL     1      15.477   7.896  20.185  0.00  0.00    +0.149 HD
BRANCH  15  17
ATOM     17  C   UNL     1      17.799   6.754  20.290  0.00  0.00    +0.037 A 
ATOM     19  C   UNL     1      18.941   5.953  20.344  0.00  0.00    +0.013 A 
ATOM     20  C   UNL     1      17.693   7.872  21.117  0.00  0.00    +0.013 A 
ATOM     21  C   UNL     1      19.976   6.272  21.225  0.00  0.00    +0.001 A 
ATOM     22  C   UNL     1      18.728   8.191  21.997  0.00  0.00    +0.001 A 
ATOM     24  C   UNL     1      19.868   7.391  22.050  0.00  0.00    +0.000 A 
ENDBRANCH  15  17
ENDBRANCH   9   4
TORSDOF 4
ENDMDL
MODEL 2
REMARK VINA RESULT:      -7.6      2.441      7.288
REMARK  Name = 25338279
REMARK  5 active torsions:
REMARK  status: ('A' for Active; 'I' for Inactive)
REMARK    1  A    between atoms: N_3  and  C_14
REMARK    2  A    between atoms: N_4  and  C_9
REMARK    3  A    between atoms: C_10  and  C_13
REMARK    4  A    between atoms: C_15  and  C_17
REMARK    5  A    between atoms: C_16  and  C_18
REMARK                            x       y       z     vdW  Elec       q    Type
REMARK                         _______ _______ _______ _____ _____    ______ ____
ROOT
ATOM      3  N   UNL     1      14.989   7.727  20.051  0.00  0.00    -0.293 NA
ATOM      9  C   UNL     1      13.032   7.416  21.278  0.00  0.00    +0.089 C 
ATOM     10  C   UNL     1      14.020   7.242  19.050  0.00  0.00    +0.147 C 
ATOM     11  C   UNL     1      12.680   7.176  19.811  0.00  0.00    +0.052 C 
ATOM     12  C   UNL     1      14.536   7.195  21.340  0.00  0.00    +0.107 C 
ATOM     14  C   UNL     1      16.363   7.337  19.755  0.00  0.00    +0.105 C 
ENDROOT
BRANCH  10  13
ATOM      1  O   UNL     1      13.720   7.469  16.636  0.00  0.00    -0.336 OA
ATOM      5  N   UNL     1      14.063   9.409  17.702  0.00  0.00    -0.189 NA
ATOM      6  N   UNL     1      13.691   8.465  15.652  0.00  0.00    -0.054 NA
ATOM     13  C   UNL     1      13.944   8.111  17.813  0.00  0.00    +0.245 A 
ATOM     16  C   UNL     1      13.902   9.579  16.357  0.00  0.00    +0.222 A 
BRANCH  16  18
ATOM      7  N   UNL     1      13.524  10.970  14.477  0.00  0.00    -0.249 NA
ATOM      8  N   UNL     1      14.478  13.200  15.886  0.00  0.00    -0.260 NA
ATOM     18  C   UNL     1      13.955  10.878  15.752  0.00  0.00    +0.129 A 
ATOM     23  C   UNL     1      14.423  11.974  16.443  0.00  0.00    +0.142 A 
ATOM     25  C   UNL     1      13.579  12.196  13.920  0.00  0.00    +0.131 A 
ATOM     26  C   UNL     1      14.048  13.291  14.612  0.00  0.00    +0.130 A 
ENDBRANCH  16  18
ENDBRANCH  10  13
BRANCH   9   4
ATOM      2  O   UNL     1      10.617   8.213  22.609  0.00  0.00    -0.270 OA
ATOM      4  N   UNL     1      12.680   8.751  21.698  0.00  0.00    -0.307 N 
ATOM     15  C   UNL     1      11.484   9.039  22.337  0.00  0.00    +0.244 C 
ATOM     27  H   UNL     1      13.298   9.502  21.408  0.00  0.00    +0.149 HD
BRANCH  15  17
ATOM     17  C   UNL     1      11.259  10.467  22.680  0.00  0.00    +0.037 A 
ATOM     19  C   UNL     1      10.933  10.828  23.987  0.00  0.00    +0.013 A 
ATOM     20  C   UNL     1      11.373  11.446  21.694  0.00  0.00    +0.013 A 
ATOM     21  C   UNL     1      10.721  12.171  24.308  0.00  0.00    +0.001 A 
ATOM     22  C   UNL     1      11.162  12.788  22.014  0.00  0.00    +0.001 A 
ATOM     24  C   UNL     1      10.837  13.149  23.321  0.00  0.00    +0.000 A 
ENDBRANCH  15  17
ENDBRANCH   9   4
TORSDOF 4
ENDMDL
MODEL 3
REMARK VINA RESULT:      -6.9     27.061     28.541
REMARK  Name = 25338279
REMARK  5 active torsions:
REMARK  status: ('A' for Active; 'I' for Inactive)
REMARK    1  A    between atoms: N_3  and  C_14
REMARK    2  A    between atoms: N_4  and  C_9
REMARK    3  A    between atoms: C_10  and  C_13
REMARK    4  A    between atoms: C_15  and  C_17
REMARK    5  A    between atoms: C_16  and  C_18
REMARK                            x       y       z     vdW  Elec       q    Type
REMARK                         _______ _______ _______ _____ _____    ______ ____
ROOT
ATOM      3  N   UNL     1      -4.439 -12.686  15.747  0.00  0.00    -0.293 NA
ATOM      9  C   UNL     1      -2.815 -11.308  14.798  0.00  0.00    +0.089 C 
ATOM     10  C   UNL     1      -4.127 -11.721  16.818  0.00  0.00    +0.147 C 
ATOM     11  C   UNL     1      -3.167 -10.709  16.159  0.00  0.00    +0.052 C 
ATOM     12  C   UNL     1      -3.234 -12.766  14.915  0.00  0.00    +0.107 C 
ATOM     14  C   UNL     1      -4.839 -13.994  16.252  0.00  0.00    +0.105 C 
ENDROOT
BRANCH  10  13
ATOM      1  O   UNL     1      -5.314 -10.796  18.742  0.00  0.00    -0.336 OA
ATOM      5  N   UNL     1      -6.464 -10.694  16.822  0.00  0.00    -0.189 NA
ATOM      6  N   UNL     1      -6.540 -10.193  19.054  0.00  0.00    -0.054 NA
ATOM     13  C   UNL     1      -5.353 -11.058  17.409  0.00  0.00    +0.245 A 
ATOM     16  C   UNL     1      -7.162 -10.170  17.872  0.00  0.00    +0.222 A 
BRANCH  16  18
ATOM      7  N   UNL     1      -8.589  -8.541  16.910  0.00  0.00    -0.249 NA
ATOM      8  N   UNL     1     -10.815  -9.688  18.174  0.00  0.00    -0.260 NA
ATOM     18  C   UNL     1      -8.479  -9.626  17.703  0.00  0.00    +0.129 A 
ATOM     23  C   UNL     1      -9.572 -10.189  18.323  0.00  0.00    +0.142 A 
ATOM     25  C   UNL     1      -9.831  -8.040  16.760  0.00  0.00    +0.131 A 
ATOM     26  C   UNL     1     -10.924  -8.603  17.382  0.00  0.00    +0.130 A 
ENDBRANCH  16  18
ENDBRANCH  10  13
BRANCH   9   4
ATOM      2  O   UNL     1      -2.020 -11.186  12.043  0.00  0.00    -0.270 OA
ATOM      4  N   UNL     1      -3.518 -10.644  13.727  0.00  0.00    -0.307 N 
ATOM     15  C   UNL     1      -3.052 -10.640  12.421  0.00  0.00    +0.244 C 
ATOM     27  H   UNL     1      -4.320 -10.078  13.986  0.00  0.00    +0.149 HD
BRANCH  15  17
ATOM     17  C   UNL     1      -3.877  -9.888  11.441  0.00  0.00    +0.037 A 
ATOM     19  C   UNL     1      -5.198  -9.558  11.745  0.00  0.00    +0.013 A 
ATOM     20  C   UNL     1      -3.329  -9.511  10.214  0.00  0.00    +0.013 A 
ATOM     21  C   UNL     1      -5.971  -8.851  10.822  0.00  0.00    +0.001 A 
ATOM     22  C   UNL     1      -4.102  -8.804   9.292  0.00  0.00    +0.001 A 
ATOM     24  C   UNL     1      -5.422  -8.475   9.597  0.00  0.00    +0.000 A 
ENDBRANCH  15  17
ENDBRANCH   9   4
TORSDOF 4
ENDMDL
MODEL 4
REMARK VINA RESULT:      -6.6      3.346      7.657
REMARK  Name = 25338279
REMARK  5 active torsions:
REMARK  status: ('A' for Active; 'I' for Inactive)
REMARK    1  A    between atoms: N_3  and  C_14
REMARK    2  A    between atoms: N_4  and  C_9
REMARK    3  A    between atoms: C_10  and  C_13
REMARK    4  A    between atoms: C_15  and  C_17
REMARK    5  A    between atoms: C_16  and  C_18
REMARK                            x       y       z     vdW  Elec       q    Type
REMARK                         _______ _______ _______ _____ _____    ______ ____
ROOT
ATOM      3  N   UNL     1      13.865   8.257  20.201  0.00  0.00    -0.293 NA
ATOM      9  C   UNL     1      12.971   8.401  18.053  0.00  0.00    +0.089 C 
ATOM     10  C   UNL     1      14.236   6.972  19.578  0.00  0.00    +0.147 C 
ATOM     11  C   UNL     1      13.787   7.110  18.110  0.00  0.00    +0.052 C 
ATOM     12  C   UNL     1      12.650   8.702  19.509  0.00  0.00    +0.107 C 
ATOM     14  C   UNL     1      13.664   8.159  21.642  0.00  0.00    +0.105 C 
ENDROOT
BRANCH  10  13
ATOM      1  O   UNL     1      16.268   5.963  18.673  0.00  0.00    -0.336 OA
ATOM      5  N   UNL     1      16.538   6.919  20.680  0.00  0.00    -0.189 NA
ATOM      6  N   UNL     1      17.614   5.777  19.015  0.00  0.00    -0.054 NA
ATOM     13  C   UNL     1      15.708   6.643  19.707  0.00  0.00    +0.245 A 
ATOM     16  C   UNL     1      17.695   6.366  20.211  0.00  0.00    +0.222 A 
BRANCH  16  18
ATOM      7  N   UNL     1      18.925   7.233  22.041  0.00  0.00    -0.249 NA
ATOM      8  N   UNL     1      21.173   5.735  21.290  0.00  0.00    -0.260 NA
ATOM     18  C   UNL     1      18.915   6.424  20.962  0.00  0.00    +0.129 A 
ATOM     23  C   UNL     1      20.020   5.689  20.594  0.00  0.00    +0.142 A 
ATOM     25  C   UNL     1      20.077   7.279  22.737  0.00  0.00    +0.131 A 
ATOM     26  C   UNL     1      21.182   6.544  22.367  0.00  0.00    +0.130 A 
ENDBRANCH  16  18
ENDBRANCH  10  13
BRANCH   9   4
ATOM      2  O   UNL     1      13.183   8.972  15.248  0.00  0.00    -0.270 OA
ATOM      4  N   UNL     1      13.718   9.477  17.446  0.00  0.00    -0.307 N 
ATOM     15  C   UNL     1      13.760   9.673  16.075  0.00  0.00    +0.244 C 
ATOM     27  H   UNL     1      14.309  10.028  18.060  0.00  0.00    +0.149 HD
BRANCH  15  17
ATOM     17  C   UNL     1      14.596  10.807  15.607  0.00  0.00    +0.037 A 
ATOM     19  C   UNL     1      15.512  10.620  14.571  0.00  0.00    +0.013 A 
ATOM     20  C   UNL     1      14.466  12.062  16.203  0.00  0.00    +0.013 A 
ATOM     21  C   UNL     1      16.297  11.688  14.133  0.00  0.00    +0.001 A 
ATOM     22  C   UNL     1      15.250  13.129  15.765  0.00  0.00    +0.001 A 
ATOM     24  C   UNL     1      16.165  12.941  14.730  0.00  0.00    +0.000 A 
ENDBRANCH  15  17
ENDBRANCH   9   4
TORSDOF 4
ENDMDL
MODEL 5
REMARK VINA RESULT:      -6.6     26.851     28.505
REMARK  Name = 25338279
REMARK  5 active torsions:
REMARK  status: ('A' for Active; 'I' for Inactive)
REMARK    1  A    between atoms: N_3  and  C_14
REMARK    2  A    between atoms: N_4  and  C_9
REMARK    3  A    between atoms: C_10  and  C_13
REMARK    4  A    between atoms: C_15  and  C_17
REMARK    5  A    between atoms: C_16  and  C_18
REMARK                            x       y       z     vdW  Elec       q    Type
REMARK                         _______ _______ _______ _____ _____    ______ ____
ROOT
ATOM      3  N   UNL     1      -3.157 -12.655  13.810  0.00  0.00    -0.293 NA
ATOM      9  C   UNL     1      -2.118 -11.185  12.328  0.00  0.00    +0.089 C 
ATOM     10  C   UNL     1      -2.824 -11.487  14.648  0.00  0.00    +0.147 C 
ATOM     11  C   UNL     1      -2.274 -10.444  13.655  0.00  0.00    +0.052 C 
ATOM     12  C   UNL     1      -2.181 -12.655  12.716  0.00  0.00    +0.107 C 
ATOM     14  C   UNL     1      -3.148 -13.912  14.548  0.00  0.00    +0.105 C 
ENDROOT
BRANCH  10  13
ATOM      1  O   UNL     1      -3.813 -10.857  16.791  0.00  0.00    -0.336 OA
ATOM      5  N   UNL     1      -5.184 -10.596  15.039  0.00  0.00    -0.189 NA
ATOM      6  N   UNL     1      -5.016 -10.362  17.309  0.00  0.00    -0.054 NA
ATOM     13  C   UNL     1      -3.998 -10.965  15.449  0.00  0.00    +0.245 A 
ATOM     16  C   UNL     1      -5.774 -10.235  16.216  0.00  0.00    +0.222 A 
BRANCH  16  18
ATOM      7  N   UNL     1      -7.825  -9.800  15.114  0.00  0.00    -0.249 NA
ATOM      8  N   UNL     1      -8.930  -8.791  17.486  0.00  0.00    -0.260 NA
ATOM     18  C   UNL     1      -7.122  -9.748  16.263  0.00  0.00    +0.129 A 
ATOM     23  C   UNL     1      -7.665  -9.252  17.428  0.00  0.00    +0.142 A 
ATOM     25  C   UNL     1      -9.090  -9.338  15.172  0.00  0.00    +0.131 A 
ATOM     26  C   UNL     1      -9.632  -8.842  16.337  0.00  0.00    +0.130 A 
ENDBRANCH  16  18
ENDBRANCH  10  13
BRANCH   9   4
ATOM      2  O   UNL     1      -2.094  -9.025  10.438  0.00  0.00    -0.270 OA
ATOM      4  N   UNL     1      -3.168 -10.841  11.400  0.00  0.00    -0.307 N 
ATOM     15  C   UNL     1      -3.064  -9.774  10.521  0.00  0.00    +0.244 C 
ATOM     27  H   UNL     1      -4.043 -11.347  11.489  0.00  0.00    +0.149 HD
BRANCH  15  17
ATOM     17  C   UNL     1      -4.242  -9.534   9.649  0.00  0.00    +0.037 A 
ATOM     19  C   UNL     1      -4.409 -10.277   8.480  0.00  0.00    +0.013 A 
ATOM     20  C   UNL     1      -5.182  -8.565  10.000  0.00  0.00    +0.013 A 
ATOM     21  C   UNL     1      -5.517 -10.050   7.662  0.00  0.00    +0.001 A 
ATOM     22  C   UNL     1      -6.290  -8.338   9.183  0.00  0.00    +0.001 A 
ATOM     24  C   UNL     1      -6.457  -9.081   8.014  0.00  0.00    +0.000 A 
ENDBRANCH  15  17
ENDBRANCH   9   4
TORSDOF 4
ENDMDL
MODEL 6
REMARK VINA RESULT:      -6.5     27.196     28.767
REMARK  Name = 25338279
REMARK  5 active torsions:
REMARK  status: ('A' for Active; 'I' for Inactive)
REMARK    1  A    between atoms: N_3  and  C_14
REMARK    2  A    between atoms: N_4  and  C_9
REMARK    3  A    between atoms: C_10  and  C_13
REMARK    4  A    between atoms: C_15  and  C_17
REMARK    5  A    between atoms: C_16  and  C_18
REMARK                            x       y       z     vdW  Elec       q    Type
REMARK                         _______ _______ _______ _____ _____    ______ ____
ROOT
ATOM      3  N   UNL     1      -6.010 -12.043  16.837  0.00  0.00    -0.293 NA
ATOM      9  C   UNL     1      -4.118 -10.782  16.325  0.00  0.00    +0.089 C 
ATOM     10  C   UNL     1      -6.156 -10.836  17.671  0.00  0.00    +0.147 C 
ATOM     11  C   UNL     1      -4.995  -9.921  17.234  0.00  0.00    +0.052 C 
ATOM     12  C   UNL     1      -4.569 -12.205  16.614  0.00  0.00    +0.107 C 
ATOM     14  C   UNL     1      -6.603 -13.232  17.438  0.00  0.00    +0.105 C 
ENDROOT
BRANCH  10  13
ATOM      1  O   UNL     1      -8.441 -10.490  18.465  0.00  0.00    -0.336 OA
ATOM      5  N   UNL     1      -7.920  -9.309  16.634  0.00  0.00    -0.189 NA
ATOM      6  N   UNL     1      -9.589  -9.760  18.133  0.00  0.00    -0.054 NA
ATOM     13  C   UNL     1      -7.507 -10.167  17.532  0.00  0.00    +0.245 A 
ATOM     16  C   UNL     1      -9.203  -9.090  17.043  0.00  0.00    +0.222 A 
BRANCH  16  18
ATOM      7  N   UNL     1     -10.456  -7.079  17.003  0.00  0.00    -0.249 NA
ATOM      8  N   UNL     1     -11.312  -7.619  14.387  0.00  0.00    -0.260 NA
ATOM     18  C   UNL     1     -10.073  -8.190  16.342  0.00  0.00    +0.129 A 
ATOM     23  C   UNL     1     -10.494  -8.455  15.057  0.00  0.00    +0.142 A 
ATOM     25  C   UNL     1     -11.273  -6.243  16.333  0.00  0.00    +0.131 A 
ATOM     26  C   UNL     1     -11.694  -6.509  15.048  0.00  0.00    +0.130 A 
ENDBRANCH  16  18
ENDBRANCH  10  13
BRANCH   9   4
ATOM      2  O   UNL     1      -2.248 -11.224  14.193  0.00  0.00    -0.270 OA
ATOM      4  N   UNL     1      -4.301 -10.444  14.934  0.00  0.00    -0.307 N 
ATOM     15  C   UNL     1      -3.336 -10.698  13.973  0.00  0.00    +0.244 C 
ATOM     27  H   UNL     1      -5.129  -9.907  14.698  0.00  0.00    +0.149 HD
BRANCH  15  17
ATOM     17  C   UNL     1      -3.666 -10.265  12.591  0.00  0.00    +0.037 A 
ATOM     19  C   UNL     1      -4.989  -9.993  12.241  0.00  0.00    +0.013 A 
ATOM     20  C   UNL     1      -2.653 -10.132  11.641  0.00  0.00    +0.013 A 
ATOM     21  C   UNL     1      -5.298  -9.586  10.942  0.00  0.00    +0.001 A 
ATOM     22  C   UNL     1      -2.961  -9.725  10.343  0.00  0.00    +0.001 A 
ATOM     24  C   UNL     1      -4.284  -9.452   9.995  0.00  0.00    +0.000 A 
ENDBRANCH  15  17
ENDBRANCH   9   4
TORSDOF 4
ENDMDL
MODEL 7
REMARK VINA RESULT:      -6.4     28.666     30.687
REMARK  Name = 25338279
REMARK  5 active torsions:
REMARK  status: ('A' for Active; 'I' for Inactive)
REMARK    1  A    between atoms: N_3  and  C_14
REMARK    2  A    between atoms: N_4  and  C_9
REMARK    3  A    between atoms: C_10  and  C_13
REMARK    4  A    between atoms: C_15  and  C_17
REMARK    5  A    between atoms: C_16  and  C_18
REMARK                            x       y       z     vdW  Elec       q    Type
REMARK                         _______ _______ _______ _____ _____    ______ ____
ROOT
ATOM      3  N   UNL     1     -12.165 -10.289  16.186  0.00  0.00    -0.293 NA
ATOM      9  C   UNL     1     -10.953 -10.522  18.164  0.00  0.00    +0.089 C 
ATOM     10  C   UNL     1     -12.538  -9.096  16.970  0.00  0.00    +0.147 C 
ATOM     11  C   UNL     1     -11.631  -9.153  18.216  0.00  0.00    +0.052 C 
ATOM     12  C   UNL     1     -11.788 -11.312  17.167  0.00  0.00    +0.107 C 
ATOM     14  C   UNL     1     -13.228 -10.750  15.302  0.00  0.00    +0.105 C 
ENDROOT
BRANCH  10  13
ATOM      1  O   UNL     1     -11.281  -7.061  16.472  0.00  0.00    -0.336 OA
ATOM      5  N   UNL     1     -13.180  -7.272  15.303  0.00  0.00    -0.189 NA
ATOM      6  N   UNL     1     -11.363  -5.926  15.655  0.00  0.00    -0.054 NA
ATOM     13  C   UNL     1     -12.389  -7.800  16.202  0.00  0.00    +0.245 A 
ATOM     16  C   UNL     1     -12.509  -6.123  14.997  0.00  0.00    +0.222 A 
BRANCH  16  18
ATOM      7  N   UNL     1     -14.347  -5.174  13.843  0.00  0.00    -0.249 NA
ATOM      8  N   UNL     1     -12.624  -3.493  12.403  0.00  0.00    -0.260 NA
ATOM     18  C   UNL     1     -13.011  -5.195  14.026  0.00  0.00    +0.129 A 
ATOM     23  C   UNL     1     -12.166  -4.369  13.319  0.00  0.00    +0.142 A 
ATOM     25  C   UNL     1     -14.806  -4.298  12.927  0.00  0.00    +0.131 A 
ATOM     26  C   UNL     1     -13.959  -3.473  12.220  0.00  0.00    +0.130 A 
ENDBRANCH  16  18
ENDBRANCH  10  13
BRANCH   9   4
ATOM      2  O   UNL     1      -8.616 -10.925  19.781  0.00  0.00    -0.270 OA
ATOM      4  N   UNL     1      -9.579 -10.418  17.734  0.00  0.00    -0.307 N 
ATOM     15  C   UNL     1      -8.513 -10.632  18.593  0.00  0.00    +0.244 C 
ATOM     27  H   UNL     1      -9.418 -10.072  16.794  0.00  0.00    +0.149 HD
BRANCH  15  17
ATOM     17  C   UNL     1      -7.160 -10.461  18.003  0.00  0.00    +0.037 A 
ATOM     19  C   UNL     1      -6.043 -10.989  18.651  0.00  0.00    +0.013 A 
ATOM     20  C   UNL     1      -7.007  -9.771  16.801  0.00  0.00    +0.013 A 
ATOM     21  C   UNL     1      -4.773 -10.826  18.095  0.00  0.00    +0.001 A 
ATOM     22  C   UNL     1      -5.738  -9.608  16.245  0.00  0.00    +0.001 A 
ATOM     24  C   UNL     1      -4.622 -10.137  16.893  0.00  0.00    +0.000 A 
ENDBRANCH  15  17
ENDBRANCH   9   4
TORSDOF 4
ENDMDL
MODEL 8
REMARK VINA RESULT:      -6.3      4.073      7.059
REMARK  Name = 25338279
REMARK  5 active torsions:
REMARK  status: ('A' for Active; 'I' for Inactive)
REMARK    1  A    between atoms: N_3  and  C_14
REMARK    2  A    between atoms: N_4  and  C_9
REMARK    3  A    between atoms: C_10  and  C_13
REMARK    4  A    between atoms: C_15  and  C_17
REMARK    5  A    between atoms: C_16  and  C_18
REMARK                            x       y       z     vdW  Elec       q    Type
REMARK                         _______ _______ _______ _____ _____    ______ ____
ROOT
ATOM      3  N   UNL     1      12.868   9.017  17.757  0.00  0.00    -0.293 NA
ATOM      9  C   UNL     1      13.944   9.474  19.774  0.00  0.00    +0.089 C 
ATOM     10  C   UNL     1      13.243  10.439  17.641  0.00  0.00    +0.147 C 
ATOM     11  C   UNL     1      14.089  10.719  18.900  0.00  0.00    +0.052 C 
ATOM     12  C   UNL     1      12.737   8.752  19.194  0.00  0.00    +0.107 C 
ATOM     14  C   UNL     1      11.648   8.685  17.030  0.00  0.00    +0.105 C 
ENDROOT
BRANCH  10  13
ATOM      1  O   UNL     1      13.279  10.623  15.205  0.00  0.00    -0.336 OA
ATOM      5  N   UNL     1      15.214  11.170  16.193  0.00  0.00    -0.189 NA
ATOM      6  N   UNL     1      14.158  10.975  14.173  0.00  0.00    -0.054 NA
ATOM     13  C   UNL     1      13.981  10.765  16.360  0.00  0.00    +0.245 A 
ATOM     16  C   UNL     1      15.277  11.284  14.834  0.00  0.00    +0.222 A 
BRANCH  16  18
ATOM      7  N   UNL     1      17.620  11.633  14.875  0.00  0.00    -0.249 NA
ATOM      8  N   UNL     1      17.562  12.591  12.239  0.00  0.00    -0.260 NA
ATOM     18  C   UNL     1      16.473  11.713  14.169  0.00  0.00    +0.129 A 
ATOM     23  C   UNL     1      16.445  12.184  12.875  0.00  0.00    +0.142 A 
ATOM     25  C   UNL     1      18.736  12.040  14.239  0.00  0.00    +0.131 A 
ATOM     26  C   UNL     1      18.707  12.512  12.945  0.00  0.00    +0.130 A 
ENDBRANCH  16  18
ENDBRANCH  10  13
BRANCH   9   4
ATOM      2  O   UNL     1      15.123   8.032  21.958  0.00  0.00    -0.270 OA
ATOM      4  N   UNL     1      15.125   8.647  19.723  0.00  0.00    -0.307 N 
ATOM     15  C   UNL     1      15.621   7.987  20.837  0.00  0.00    +0.244 C 
ATOM     27  H   UNL     1      15.652   8.652  18.855  0.00  0.00    +0.149 HD
BRANCH  15  17
ATOM     17  C   UNL     1      16.861   7.197  20.625  0.00  0.00    +0.037 A 
ATOM     19  C   UNL     1      17.941   7.346  21.495  0.00  0.00    +0.013 A 
ATOM     20  C   UNL     1      16.946   6.307  19.554  0.00  0.00    +0.013 A 
ATOM     21  C   UNL     1      19.106   6.603  21.295  0.00  0.00    +0.001 A 
ATOM     22  C   UNL     1      18.110   5.565  19.354  0.00  0.00    +0.001 A 
ATOM     24  C   UNL     1      19.189   5.713  20.224  0.00  0.00    +0.000 A 
ENDBRANCH  15  17
ENDBRANCH   9   4
TORSDOF 4
ENDMDL
MODEL 9
REMARK VINA RESULT:      -6.3     27.948     30.666
REMARK  Name = 25338279
REMARK  5 active torsions:
REMARK  status: ('A' for Active; 'I' for Inactive)
REMARK    1  A    between atoms: N_3  and  C_14
REMARK    2  A    between atoms: N_4  and  C_9
REMARK    3  A    between atoms: C_10  and  C_13
REMARK    4  A    between atoms: C_15  and  C_17
REMARK    5  A    between atoms: C_16  and  C_18
REMARK                            x       y       z     vdW  Elec       q    Type
REMARK                         _______ _______ _______ _____ _____    ______ ____
ROOT
ATOM      3  N   UNL     1      -9.257  -8.205   7.770  0.00  0.00    -0.293 NA
ATOM      9  C   UNL     1      -9.710  -5.923   7.913  0.00  0.00    +0.089 C 
ATOM     10  C   UNL     1      -7.931  -7.597   7.990  0.00  0.00    +0.147 C 
ATOM     11  C   UNL     1      -8.228  -6.104   8.239  0.00  0.00    +0.052 C 
ATOM     12  C   UNL     1     -10.071  -7.171   7.122  0.00  0.00    +0.107 C 
ATOM     14  C   UNL     1      -9.203  -9.429   6.979  0.00  0.00    +0.105 C 
ENDROOT
BRANCH  10  13
ATOM      1  O   UNL     1      -7.881  -8.625  10.205  0.00  0.00    -0.336 OA
ATOM      5  N   UNL     1      -5.873  -8.467   9.225  0.00  0.00    -0.189 NA
ATOM      6  N   UNL     1      -6.963  -9.175  11.108  0.00  0.00    -0.054 NA
ATOM     13  C   UNL     1      -7.157  -8.233   9.125  0.00  0.00    +0.245 A 
ATOM     16  C   UNL     1      -5.802  -9.044  10.460  0.00  0.00    +0.222 A 
BRANCH  16  18
ATOM      7  N   UNL     1      -3.441  -9.178  10.316  0.00  0.00    -0.249 NA
ATOM      8  N   UNL     1      -3.336 -10.600  12.731  0.00  0.00    -0.260 NA
ATOM     18  C   UNL     1      -4.554  -9.483  11.014  0.00  0.00    +0.129 A 
ATOM     23  C   UNL     1      -4.502 -10.182  12.200  0.00  0.00    +0.142 A 
ATOM     25  C   UNL     1      -2.275  -9.596  10.847  0.00  0.00    +0.131 A 
ATOM     26  C   UNL     1      -2.224 -10.296  12.033  0.00  0.00    +0.130 A 
ENDBRANCH  16  18
ENDBRANCH  10  13
BRANCH   9   4
ATOM      2  O   UNL     1     -11.097  -3.585   8.834  0.00  0.00    -0.270 OA
ATOM      4  N   UNL     1     -10.508  -5.810   9.110  0.00  0.00    -0.307 N 
ATOM     15  C   UNL     1     -11.143  -4.632   9.473  0.00  0.00    +0.244 C 
ATOM     27  H   UNL     1     -10.499  -6.603   9.744  0.00  0.00    +0.149 HD
BRANCH  15  17
ATOM     17  C   UNL     1     -11.904  -4.671  10.748  0.00  0.00    +0.037 A 
ATOM     19  C   UNL     1     -12.416  -5.880  11.219  0.00  0.00    +0.013 A 
ATOM     20  C   UNL     1     -12.106  -3.498  11.475  0.00  0.00    +0.013 A 
ATOM     21  C   UNL     1     -13.130  -5.915  12.418  0.00  0.00    +0.001 A 
ATOM     22  C   UNL     1     -12.820  -3.533  12.673  0.00  0.00    +0.001 A 
ATOM     24  C   UNL     1     -13.332  -4.742  13.143  0.00  0.00    +0.000 A 
ENDBRANCH  15  17
ENDBRANCH   9   4
TORSDOF 4
ENDMDL
MODEL 10
REMARK VINA RESULT:      -6.3     13.923     16.004
REMARK  Name = 25338279
REMARK  5 active torsions:
REMARK  status: ('A' for Active; 'I' for Inactive)
REMARK    1  A    between atoms: N_3  and  C_14
REMARK    2  A    between atoms: N_4  and  C_9
REMARK    3  A    between atoms: C_10  and  C_13
REMARK    4  A    between atoms: C_15  and  C_17
REMARK    5  A    between atoms: C_16  and  C_18
REMARK                            x       y       z     vdW  Elec       q    Type
REMARK                         _______ _______ _______ _____ _____    ______ ____
ROOT
ATOM      3  N   UNL     1      14.351   9.167   3.695  0.00  0.00    -0.293 NA
ATOM      9  C   UNL     1      15.925   7.778   2.682  0.00  0.00    +0.089 C 
ATOM     10  C   UNL     1      13.685   7.852   3.655  0.00  0.00    +0.147 C 
ATOM     11  C   UNL     1      14.766   6.887   3.128  0.00  0.00    +0.052 C 
ATOM     12  C   UNL     1      15.310   9.166   2.585  0.00  0.00    +0.107 C 
ATOM     14  C   UNL     1      13.419  10.285   3.606  0.00  0.00    +0.105 C 
ENDROOT
BRANCH  10  13
ATOM      1  O   UNL     1      14.026   7.162   5.973  0.00  0.00    -0.336 OA
ATOM      5  N   UNL     1      11.875   7.254   5.353  0.00  0.00    -0.189 NA
ATOM      6  N   UNL     1      13.280   6.786   7.098  0.00  0.00    -0.054 NA
ATOM     13  C   UNL     1      13.122   7.420   4.992  0.00  0.00    +0.245 A 
ATOM     16  C   UNL     1      12.023   6.863   6.653  0.00  0.00    +0.222 A 
BRANCH  16  18
ATOM      7  N   UNL     1      10.978   5.452   8.244  0.00  0.00    -0.249 NA
ATOM      8  N   UNL     1       8.704   7.095   8.264  0.00  0.00    -0.260 NA
ATOM     18  C   UNL     1      10.891   6.561   7.481  0.00  0.00    +0.129 A 
ATOM     23  C   UNL     1       9.774   7.367   7.491  0.00  0.00    +0.142 A 
ATOM     25  C   UNL     1       9.908   5.180   9.017  0.00  0.00    +0.131 A 
ATOM     26  C   UNL     1       8.791   5.986   9.025  0.00  0.00    +0.130 A 
ENDBRANCH  16  18
ENDBRANCH  10  13
BRANCH   9   4
ATOM      2  O   UNL     1      18.684   8.361   2.144  0.00  0.00    -0.270 OA
ATOM      4  N   UNL     1      17.013   7.750   3.630  0.00  0.00    -0.307 N 
ATOM     15  C   UNL     1      18.318   8.049   3.274  0.00  0.00    +0.244 C 
ATOM     27  H   UNL     1      16.804   7.393   4.557  0.00  0.00    +0.149 HD
BRANCH  15  17
ATOM     17  C   UNL     1      19.327   7.948   4.360  0.00  0.00    +0.037 A 
ATOM     19  C   UNL     1      20.516   7.251   4.147  0.00  0.00    +0.013 A 
ATOM     20  C   UNL     1      19.084   8.550   5.594  0.00  0.00    +0.013 A 
ATOM     21  C   UNL     1      21.462   7.157   5.169  0.00  0.00    +0.001 A 
ATOM     22  C   UNL     1      20.029   8.457   6.616  0.00  0.00    +0.001 A 
ATOM     24  C   UNL     1      21.218   7.760   6.402  0.00  0.00    +0.000 A 
ENDBRANCH  15  17
ENDBRANCH   9   4
TORSDOF 4
ENDMDL
