MODEL 1
REMARK VINA RESULT:      -7.3      0.000      0.000
REMARK  Name = 7051449
REMARK  5 active torsions:
REMARK  status: ('A' for Active; 'I' for Inactive)
REMARK    1  A    between atoms: S_1  and  N_10
REMARK    2  A    between atoms: S_1  and  C_29
REMARK    3  A    between atoms: N_7  and  C_16
REMARK    4  A    between atoms: N_10  and  C_25
REMARK    5  A    between atoms: C_27  and  C_28
REMARK                            x       y       z     vdW  Elec       q    Type
REMARK                         _______ _______ _______ _____ _____    ______ ____
ROOT
ATOM      3  O   UNL     1      -5.286 -12.493  10.420  0.00  0.00    -0.266 OA
ATOM      7  N   UNL     1      -3.873 -11.098  15.031  0.00  0.00    -0.298 NA
ATOM      8  N   UNL     1      -3.617 -11.898  11.954  0.00  0.00    -0.310 N 
ATOM     11  C   UNL     1      -3.085 -13.267  14.051  0.00  0.00    +0.024 C 
ATOM     12  C   UNL     1      -1.832 -11.213  13.594  0.00  0.00    +0.050 C 
ATOM     13  C   UNL     1      -1.680 -12.704  13.883  0.00  0.00    +0.017 C 
ATOM     14  C   UNL     1      -3.805 -12.553  15.215  0.00  0.00    +0.090 C 
ATOM     15  C   UNL     1      -2.542 -10.526  14.782  0.00  0.00    +0.094 C 
ATOM     17  C   UNL     1      -3.836 -13.131  12.720  0.00  0.00    +0.130 C 
ATOM     18  C   UNL     1      -2.611 -10.990  12.310  0.00  0.00    +0.026 A 
ATOM     23  C   UNL     1      -2.350  -9.922  11.535  0.00  0.00    +0.024 A 
ATOM     24  C   UNL     1      -4.400 -11.725  10.793  0.00  0.00    +0.274 A 
ATOM     25  C   UNL     1      -4.081 -10.516   9.991  0.00  0.00    +0.112 A 
ATOM     26  C   UNL     1      -3.108  -9.674  10.337  0.00  0.00    +0.031 A 
ENDROOT
BRANCH   7  16
ATOM      4  O   UNL     1      -7.293 -11.702  20.089  0.00  0.00    -0.276 OA
ATOM      9  N   UNL     1      -6.499 -10.475  18.283  0.00  0.00    -0.302 N 
ATOM     16  C   UNL     1      -4.515 -10.455  16.174  0.00  0.00    +0.060 C 
ATOM     19  C   UNL     1      -6.003 -10.223  15.880  0.00  0.00    +0.038 C 
ATOM     20  C   UNL     1      -4.346 -11.321  17.429  0.00  0.00    +0.038 C 
ATOM     21  C   UNL     1      -6.717  -9.637  17.097  0.00  0.00    +0.109 C 
ATOM     22  C   UNL     1      -5.093 -10.713  18.616  0.00  0.00    +0.109 C 
ATOM     27  C   UNL     1      -7.503 -11.000  19.096  0.00  0.00    +0.212 C 
ATOM     28  C   UNL     1      -8.923 -10.672  18.712  0.00  0.00    +0.109 C 
ENDBRANCH   7  16
BRANCH  25  10
ATOM     10  N   UNL     1      -4.801 -10.237   8.816  0.00  0.00    -0.211 N 
ATOM     33  H   UNL     1      -4.207 -10.024   8.002  0.00  0.00    +0.174 HD
BRANCH  10   1
ATOM      1  S   UNL     1      -6.185  -9.275   8.971  0.00  0.00    +0.079 S 
ATOM      5  O   UNL     1      -7.209 -10.007   9.695  0.00  0.00    -0.149 OA
ATOM      6  O   UNL     1      -5.808  -7.939   9.391  0.00  0.00    -0.149 OA
BRANCH   1  29
ATOM      2  S   UNL     1      -7.906  -7.992   6.987  0.00  0.00    -0.077 S 
ATOM     29  C   UNL     1      -6.706  -9.172   7.284  0.00  0.00    +0.146 A 
ATOM     30  C   UNL     1      -6.340  -9.850   6.152  0.00  0.00    +0.036 A 
ATOM     31  C   UNL     1      -7.059  -9.397   5.008  0.00  0.00    +0.010 A 
ATOM     32  C   UNL     1      -7.944  -8.389   5.321  0.00  0.00    +0.047 A 
ENDBRANCH   1  29
ENDBRANCH  10   1
ENDBRANCH  25  10
TORSDOF 4
ENDMDL
MODEL 2
REMARK VINA RESULT:      -7.0      6.927     10.753
REMARK  Name = 7051449
REMARK  5 active torsions:
REMARK  status: ('A' for Active; 'I' for Inactive)
REMARK    1  A    between atoms: S_1  and  N_10
REMARK    2  A    between atoms: S_1  and  C_29
REMARK    3  A    between atoms: N_7  and  C_16
REMARK    4  A    between atoms: N_10  and  C_25
REMARK    5  A    between atoms: C_27  and  C_28
REMARK                            x       y       z     vdW  Elec       q    Type
REMARK                         _______ _______ _______ _____ _____    ______ ____
ROOT
ATOM      3  O   UNL     1      -8.985  -9.620  14.092  0.00  0.00    -0.266 OA
ATOM      7  N   UNL     1     -12.809  -6.370  14.000  0.00  0.00    -0.298 NA
ATOM      8  N   UNL     1     -11.012  -8.824  14.958  0.00  0.00    -0.310 N 
ATOM     11  C   UNL     1     -13.200  -8.818  13.627  0.00  0.00    +0.024 C 
ATOM     12  C   UNL     1     -13.168  -7.937  15.912  0.00  0.00    +0.050 C 
ATOM     13  C   UNL     1     -13.860  -8.941  14.994  0.00  0.00    +0.017 C 
ATOM     14  C   UNL     1     -13.363  -7.381  13.089  0.00  0.00    +0.090 C 
ATOM     15  C   UNL     1     -13.362  -6.509  15.355  0.00  0.00    +0.094 C 
ATOM     17  C   UNL     1     -11.730  -9.241  13.746  0.00  0.00    +0.130 C 
ATOM     18  C   UNL     1     -11.690  -8.259  16.046  0.00  0.00    +0.026 A 
ATOM     23  C   UNL     1     -11.036  -7.985  17.189  0.00  0.00    +0.024 A 
ATOM     24  C   UNL     1      -9.632  -9.111  15.007  0.00  0.00    +0.274 A 
ATOM     25  C   UNL     1      -8.961  -8.766  16.286  0.00  0.00    +0.112 A 
ATOM     26  C   UNL     1      -9.627  -8.245  17.317  0.00  0.00    +0.031 A 
ENDROOT
BRANCH   7  16
ATOM      4  O   UNL     1     -16.253  -2.608  10.591  0.00  0.00    -0.276 OA
ATOM      9  N   UNL     1     -14.231  -3.238  11.545  0.00  0.00    -0.302 N 
ATOM     16  C   UNL     1     -13.027  -5.022  13.480  0.00  0.00    +0.060 C 
ATOM     19  C   UNL     1     -12.498  -4.920  12.044  0.00  0.00    +0.038 C 
ATOM     20  C   UNL     1     -14.521  -4.674  13.527  0.00  0.00    +0.038 C 
ATOM     21  C   UNL     1     -12.799  -3.546  11.446  0.00  0.00    +0.109 C 
ATOM     22  C   UNL     1     -14.782  -3.306  12.900  0.00  0.00    +0.109 C 
ATOM     27  C   UNL     1     -15.051  -2.862  10.481  0.00  0.00    +0.212 C 
ATOM     28  C   UNL     1     -14.399  -2.772   9.125  0.00  0.00    +0.109 C 
ENDBRANCH   7  16
BRANCH  25  10
ATOM     10  N   UNL     1      -7.584  -9.001  16.449  0.00  0.00    -0.211 N 
ATOM     33  H   UNL     1      -7.025  -8.814  15.605  0.00  0.00    +0.174 HD
BRANCH  10   1
ATOM      1  S   UNL     1      -7.136 -10.381  17.321  0.00  0.00    +0.079 S 
ATOM      5  O   UNL     1      -6.928 -10.031  18.714  0.00  0.00    -0.149 OA
ATOM      6  O   UNL     1      -8.007 -11.487  16.968  0.00  0.00    -0.149 OA
BRANCH   1  29
ATOM      2  S   UNL     1      -5.550 -11.921  15.410  0.00  0.00    -0.077 S 
ATOM     29  C   UNL     1      -5.548 -10.714  16.618  0.00  0.00    +0.146 A 
ATOM     30  C   UNL     1      -4.300 -10.196  16.846  0.00  0.00    +0.036 A 
ATOM     31  C   UNL     1      -3.317 -10.802  16.012  0.00  0.00    +0.010 A 
ATOM     32  C   UNL     1      -3.860 -11.757  15.182  0.00  0.00    +0.047 A 
ENDBRANCH   1  29
ENDBRANCH  10   1
ENDBRANCH  25  10
TORSDOF 4
ENDMDL
MODEL 3
REMARK VINA RESULT:      -6.9      1.744      2.326
REMARK  Name = 7051449
REMARK  5 active torsions:
REMARK  status: ('A' for Active; 'I' for Inactive)
REMARK    1  A    between atoms: S_1  and  N_10
REMARK    2  A    between atoms: S_1  and  C_29
REMARK    3  A    between atoms: N_7  and  C_16
REMARK    4  A    between atoms: N_10  and  C_25
REMARK    5  A    between atoms: C_27  and  C_28
REMARK                            x       y       z     vdW  Elec       q    Type
REMARK                         _______ _______ _______ _____ _____    ______ ____
ROOT
ATOM      3  O   UNL     1      -5.332 -12.550  10.469  0.00  0.00    -0.266 OA
ATOM      7  N   UNL     1      -3.841 -11.130  15.047  0.00  0.00    -0.298 NA
ATOM      8  N   UNL     1      -3.640 -11.922  11.964  0.00  0.00    -0.310 N 
ATOM     11  C   UNL     1      -3.033 -13.282  14.048  0.00  0.00    +0.024 C 
ATOM     12  C   UNL     1      -1.832 -11.203  13.564  0.00  0.00    +0.050 C 
ATOM     13  C   UNL     1      -1.644 -12.691  13.848  0.00  0.00    +0.017 C 
ATOM     14  C   UNL     1      -3.740 -12.583  15.228  0.00  0.00    +0.090 C 
ATOM     15  C   UNL     1      -2.527 -10.531  14.769  0.00  0.00    +0.094 C 
ATOM     17  C   UNL     1      -3.817 -13.160  12.734  0.00  0.00    +0.130 C 
ATOM     18  C   UNL     1      -2.644 -10.995  12.298  0.00  0.00    +0.026 A 
ATOM     23  C   UNL     1      -2.423  -9.922  11.518  0.00  0.00    +0.024 A 
ATOM     24  C   UNL     1      -4.453 -11.764  10.822  0.00  0.00    +0.274 A 
ATOM     25  C   UNL     1      -4.177 -10.550  10.014  0.00  0.00    +0.112 A 
ATOM     26  C   UNL     1      -3.212  -9.688  10.339  0.00  0.00    +0.031 A 
ENDROOT
BRANCH   7  16
ATOM      4  O   UNL     1      -7.277 -11.777  20.089  0.00  0.00    -0.276 OA
ATOM      9  N   UNL     1      -6.454 -10.526  18.313  0.00  0.00    -0.302 N 
ATOM     16  C   UNL     1      -4.469 -10.500  16.206  0.00  0.00    +0.060 C 
ATOM     19  C   UNL     1      -5.951 -10.227  15.917  0.00  0.00    +0.038 C 
ATOM     20  C   UNL     1      -4.321 -11.399  17.440  0.00  0.00    +0.038 C 
ATOM     21  C   UNL     1      -6.653  -9.654  17.148  0.00  0.00    +0.109 C 
ATOM     22  C   UNL     1      -5.054 -10.803  18.640  0.00  0.00    +0.109 C 
ATOM     27  C   UNL     1      -7.471 -11.047  19.114  0.00  0.00    +0.212 C 
ATOM     28  C   UNL     1      -8.883 -10.678  18.737  0.00  0.00    +0.109 C 
ENDBRANCH   7  16
BRANCH  25  10
ATOM     10  N   UNL     1      -4.929 -10.284   8.856  0.00  0.00    -0.211 N 
ATOM     33  H   UNL     1      -4.385 -10.336   7.983  0.00  0.00    +0.174 HD
BRANCH  10   1
ATOM      1  S   UNL     1      -6.045  -9.015   8.938  0.00  0.00    +0.079 S 
ATOM      5  O   UNL     1      -5.359  -7.781   9.273  0.00  0.00    -0.149 OA
ATOM      6  O   UNL     1      -6.932  -9.068   7.790  0.00  0.00    -0.149 OA
BRANCH   1  29
ATOM      2  S   UNL     1      -8.262 -10.583  10.021  0.00  0.00    -0.077 S 
ATOM     29  C   UNL     1      -6.988  -9.495  10.356  0.00  0.00    +0.146 A 
ATOM     30  C   UNL     1      -6.905  -9.172  11.684  0.00  0.00    +0.036 A 
ATOM     31  C   UNL     1      -7.909  -9.828  12.451  0.00  0.00    +0.010 A 
ATOM     32  C   UNL     1      -8.716 -10.627  11.672  0.00  0.00    +0.047 A 
ENDBRANCH   1  29
ENDBRANCH  10   1
ENDBRANCH  25  10
TORSDOF 4
ENDMDL
MODEL 4
REMARK VINA RESULT:      -6.8      3.654      9.457
REMARK  Name = 7051449
REMARK  5 active torsions:
REMARK  status: ('A' for Active; 'I' for Inactive)
REMARK    1  A    between atoms: S_1  and  N_10
REMARK    2  A    between atoms: S_1  and  C_29
REMARK    3  A    between atoms: N_7  and  C_16
REMARK    4  A    between atoms: N_10  and  C_25
REMARK    5  A    between atoms: C_27  and  C_28
REMARK                            x       y       z     vdW  Elec       q    Type
REMARK                         _______ _______ _______ _____ _____    ______ ____
ROOT
ATOM      3  O   UNL     1      -7.109 -10.798  13.784  0.00  0.00    -0.266 OA
ATOM      7  N   UNL     1      -5.344 -10.817   9.085  0.00  0.00    -0.298 NA
ATOM      8  N   UNL     1      -5.642  -9.981  12.148  0.00  0.00    -0.310 N 
ATOM     11  C   UNL     1      -6.431  -8.767  10.036  0.00  0.00    +0.024 C 
ATOM     12  C   UNL     1      -4.038  -9.141  10.398  0.00  0.00    +0.050 C 
ATOM     13  C   UNL     1      -5.082  -8.064  10.115  0.00  0.00    +0.017 C 
ATOM     14  C   UNL     1      -6.411  -9.823   8.910  0.00  0.00    +0.090 C 
ATOM     15  C   UNL     1      -4.033 -10.172   9.248  0.00  0.00    +0.094 C 
ATOM     17  C   UNL     1      -6.755  -9.373  11.408  0.00  0.00    +0.130 C 
ATOM     18  C   UNL     1      -4.316  -9.825  11.724  0.00  0.00    +0.026 A 
ATOM     23  C   UNL     1      -3.301 -10.294  12.472  0.00  0.00    +0.024 A 
ATOM     24  C   UNL     1      -5.967 -10.642  13.352  0.00  0.00    +0.274 A 
ATOM     25  C   UNL     1      -4.807 -11.157  14.122  0.00  0.00    +0.112 A 
ATOM     26  C   UNL     1      -3.551 -10.983  13.710  0.00  0.00    +0.031 A 
ENDROOT
BRANCH   7  16
ATOM      4  O   UNL     1      -2.024 -14.091   5.098  0.00  0.00    -0.276 OA
ATOM      9  N   UNL     1      -3.966 -12.983   5.728  0.00  0.00    -0.302 N 
ATOM     16  C   UNL     1      -5.327 -11.767   7.975  0.00  0.00    +0.060 C 
ATOM     19  C   UNL     1      -5.144 -11.021   6.647  0.00  0.00    +0.038 C 
ATOM     20  C   UNL     1      -4.201 -12.789   8.175  0.00  0.00    +0.038 C 
ATOM     21  C   UNL     1      -5.029 -12.001   5.480  0.00  0.00    +0.109 C 
ATOM     22  C   UNL     1      -4.104 -13.734   6.978  0.00  0.00    +0.109 C 
ATOM     27  C   UNL     1      -2.905 -13.260   4.866  0.00  0.00    +0.212 C 
ATOM     28  C   UNL     1      -2.859 -12.476   3.579  0.00  0.00    +0.109 C 
ENDBRANCH   7  16
BRANCH  25  10
ATOM     10  N   UNL     1      -5.010 -11.839  15.335  0.00  0.00    -0.211 N 
ATOM     33  H   UNL     1      -5.817 -12.477  15.326  0.00  0.00    +0.174 HD
BRANCH  10   1
ATOM      1  S   UNL     1      -4.807 -10.950  16.761  0.00  0.00    +0.079 S 
ATOM      5  O   UNL     1      -3.506 -11.238  17.336  0.00  0.00    -0.149 OA
ATOM      6  O   UNL     1      -5.221  -9.576  16.544  0.00  0.00    -0.149 OA
BRANCH   1  29
ATOM      2  S   UNL     1      -7.023 -12.841  17.001  0.00  0.00    -0.077 S 
ATOM     29  C   UNL     1      -6.021 -11.710  17.799  0.00  0.00    +0.146 A 
ATOM     30  C   UNL     1      -6.327 -11.577  19.127  0.00  0.00    +0.036 A 
ATOM     31  C   UNL     1      -7.410 -12.421  19.506  0.00  0.00    +0.010 A 
ATOM     32  C   UNL     1      -7.883 -13.163  18.447  0.00  0.00    +0.047 A 
ENDBRANCH   1  29
ENDBRANCH  10   1
ENDBRANCH  25  10
TORSDOF 4
ENDMDL
MODEL 5
REMARK VINA RESULT:      -6.7     24.213     27.215
REMARK  Name = 7051449
REMARK  5 active torsions:
REMARK  status: ('A' for Active; 'I' for Inactive)
REMARK    1  A    between atoms: S_1  and  N_10
REMARK    2  A    between atoms: S_1  and  C_29
REMARK    3  A    between atoms: N_7  and  C_16
REMARK    4  A    between atoms: N_10  and  C_25
REMARK    5  A    between atoms: C_27  and  C_28
REMARK                            x       y       z     vdW  Elec       q    Type
REMARK                         _______ _______ _______ _____ _____    ______ ____
ROOT
ATOM      3  O   UNL     1      12.648   7.624   3.442  0.00  0.00    -0.266 OA
ATOM      7  N   UNL     1      13.082   4.819  -0.698  0.00  0.00    -0.298 NA
ATOM      8  N   UNL     1      12.916   5.540   2.404  0.00  0.00    -0.310 N 
ATOM     11  C   UNL     1      14.950   4.937   0.969  0.00  0.00    +0.024 C 
ATOM     12  C   UNL     1      13.157   3.298   1.282  0.00  0.00    +0.050 C 
ATOM     13  C   UNL     1      14.662   3.512   1.423  0.00  0.00    +0.017 C 
ATOM     14  C   UNL     1      14.503   5.126  -0.496  0.00  0.00    +0.090 C 
ATOM     15  C   UNL     1      12.745   3.478  -0.196  0.00  0.00    +0.094 C 
ATOM     17  C   UNL     1      14.255   5.912   1.929  0.00  0.00    +0.130 C 
ATOM     18  C   UNL     1      12.391   4.262   2.169  0.00  0.00    +0.026 A 
ATOM     23  C   UNL     1      11.211   3.901   2.705  0.00  0.00    +0.024 A 
ATOM     24  C   UNL     1      12.233   6.494   3.188  0.00  0.00    +0.274 A 
ATOM     25  C   UNL     1      10.927   6.044   3.733  0.00  0.00    +0.112 A 
ATOM     26  C   UNL     1      10.452   4.818   3.512  0.00  0.00    +0.031 A 
ENDROOT
BRANCH   7  16
ATOM      4  O   UNL     1       8.667   4.614  -4.953  0.00  0.00    -0.276 OA
ATOM      9  N   UNL     1      10.885   4.431  -4.287  0.00  0.00    -0.302 N 
ATOM     16  C   UNL     1      12.710   4.960  -2.104  0.00  0.00    +0.060 C 
ATOM     19  C   UNL     1      12.631   3.580  -2.768  0.00  0.00    +0.038 C 
ATOM     20  C   UNL     1      11.366   5.690  -2.223  0.00  0.00    +0.038 C 
ATOM     21  C   UNL     1      12.153   3.695  -4.215  0.00  0.00    +0.109 C 
ATOM     22  C   UNL     1      10.913   5.763  -3.680  0.00  0.00    +0.109 C 
ATOM     27  C   UNL     1       9.721   3.975  -4.906  0.00  0.00    +0.212 C 
ATOM     28  C   UNL     1       9.786   2.612  -5.547  0.00  0.00    +0.109 C 
ENDBRANCH   7  16
BRANCH  25  10
ATOM     10  N   UNL     1      10.154   6.913   4.524  0.00  0.00    -0.211 N 
ATOM     33  H   UNL     1      10.207   7.900   4.235  0.00  0.00    +0.174 HD
BRANCH  10   1
ATOM      1  S   UNL     1      10.164   6.647   6.195  0.00  0.00    +0.079 S 
ATOM      5  O   UNL     1       8.995   5.875   6.574  0.00  0.00    -0.149 OA
ATOM      6  O   UNL     1      11.487   6.222   6.615  0.00  0.00    -0.149 OA
BRANCH   1  29
ATOM      2  S   UNL     1      10.315   9.518   5.667  0.00  0.00    -0.077 S 
ATOM     29  C   UNL     1       9.923   8.294   6.793  0.00  0.00    +0.146 A 
ATOM     30  C   UNL     1       9.480   8.797   7.987  0.00  0.00    +0.036 A 
ATOM     31  C   UNL     1       9.461  10.222   7.986  0.00  0.00    +0.010 A 
ATOM     32  C   UNL     1       9.890  10.743   6.786  0.00  0.00    +0.047 A 
ENDBRANCH   1  29
ENDBRANCH  10   1
ENDBRANCH  25  10
TORSDOF 4
ENDMDL
MODEL 6
REMARK VINA RESULT:      -6.6      3.239      6.078
REMARK  Name = 7051449
REMARK  5 active torsions:
REMARK  status: ('A' for Active; 'I' for Inactive)
REMARK    1  A    between atoms: S_1  and  N_10
REMARK    2  A    between atoms: S_1  and  C_29
REMARK    3  A    between atoms: N_7  and  C_16
REMARK    4  A    between atoms: N_10  and  C_25
REMARK    5  A    between atoms: C_27  and  C_28
REMARK                            x       y       z     vdW  Elec       q    Type
REMARK                         _______ _______ _______ _____ _____    ______ ____
ROOT
ATOM      3  O   UNL     1      -4.808 -14.145  16.010  0.00  0.00    -0.266 OA
ATOM      7  N   UNL     1      -8.316 -10.998  17.739  0.00  0.00    -0.298 NA
ATOM      8  N   UNL     1      -5.424 -12.248  17.240  0.00  0.00    -0.310 N 
ATOM     11  C   UNL     1      -6.915 -12.348  19.321  0.00  0.00    +0.024 C 
ATOM     12  C   UNL     1      -6.088 -10.185  18.523  0.00  0.00    +0.050 C 
ATOM     13  C   UNL     1      -6.154 -11.098  19.744  0.00  0.00    +0.017 C 
ATOM     14  C   UNL     1      -8.332 -11.967  18.842  0.00  0.00    +0.090 C 
ATOM     15  C   UNL     1      -7.520  -9.810  18.080  0.00  0.00    +0.094 C 
ATOM     17  C   UNL     1      -6.104 -13.079  18.242  0.00  0.00    +0.130 C 
ATOM     18  C   UNL     1      -5.339 -10.858  17.387  0.00  0.00    +0.026 A 
ATOM     23  C   UNL     1      -4.619 -10.123  16.520  0.00  0.00    +0.024 A 
ATOM     24  C   UNL     1      -4.782 -12.927  16.183  0.00  0.00    +0.274 A 
ATOM     25  C   UNL     1      -4.022 -12.061  15.247  0.00  0.00    +0.112 A 
ATOM     26  C   UNL     1      -3.938 -10.741  15.413  0.00  0.00    +0.031 A 
ENDROOT
BRANCH   7  16
ATOM      4  O   UNL     1     -11.946  -7.721  14.034  0.00  0.00    -0.276 OA
ATOM      9  N   UNL     1     -11.503  -8.802  16.042  0.00  0.00    -0.302 N 
ATOM     16  C   UNL     1      -9.674 -10.626  17.350  0.00  0.00    +0.060 C 
ATOM     19  C   UNL     1     -10.049  -9.277  17.977  0.00  0.00    +0.038 C 
ATOM     20  C   UNL     1      -9.783 -10.554  15.821  0.00  0.00    +0.038 C 
ATOM     21  C   UNL     1     -11.430  -8.820  17.509  0.00  0.00    +0.109 C 
ATOM     22  C   UNL     1     -11.169 -10.073  15.395  0.00  0.00    +0.109 C 
ATOM     27  C   UNL     1     -11.893  -7.710  15.267  0.00  0.00    +0.212 C 
ATOM     28  C   UNL     1     -12.264  -6.453  16.010  0.00  0.00    +0.109 C 
ENDBRANCH   7  16
BRANCH  25  10
ATOM     10  N   UNL     1      -3.346 -12.627  14.151  0.00  0.00    -0.211 N 
ATOM     33  H   UNL     1      -2.409 -12.232  13.989  0.00  0.00    +0.174 HD
BRANCH  10   1
ATOM      1  S   UNL     1      -4.256 -12.924  12.755  0.00  0.00    +0.079 S 
ATOM      5  O   UNL     1      -3.810 -14.159  12.136  0.00  0.00    -0.149 OA
ATOM      6  O   UNL     1      -5.664 -12.716  13.036  0.00  0.00    -0.149 OA
BRANCH   1  29
ATOM      2  S   UNL     1      -4.474 -11.541  10.189  0.00  0.00    -0.077 S 
ATOM     29  C   UNL     1      -3.719 -11.593  11.722  0.00  0.00    +0.146 A 
ATOM     30  C   UNL     1      -2.814 -10.581  11.899  0.00  0.00    +0.036 A 
ATOM     31  C   UNL     1      -2.730  -9.739  10.753  0.00  0.00    +0.010 A 
ATOM     32  C   UNL     1      -3.580 -10.147   9.749  0.00  0.00    +0.047 A 
ENDBRANCH   1  29
ENDBRANCH  10   1
ENDBRANCH  25  10
TORSDOF 4
ENDMDL
MODEL 7
REMARK VINA RESULT:      -6.5     24.014     27.356
REMARK  Name = 7051449
REMARK  5 active torsions:
REMARK  status: ('A' for Active; 'I' for Inactive)
REMARK    1  A    between atoms: S_1  and  N_10
REMARK    2  A    between atoms: S_1  and  C_29
REMARK    3  A    between atoms: N_7  and  C_16
REMARK    4  A    between atoms: N_10  and  C_25
REMARK    5  A    between atoms: C_27  and  C_28
REMARK                            x       y       z     vdW  Elec       q    Type
REMARK                         _______ _______ _______ _____ _____    ______ ____
ROOT
ATOM      3  O   UNL     1      14.050   7.713   3.291  0.00  0.00    -0.266 OA
ATOM      7  N   UNL     1      12.159   5.079  -0.542  0.00  0.00    -0.298 NA
ATOM      8  N   UNL     1      13.132   5.738   2.423  0.00  0.00    -0.310 N 
ATOM     11  C   UNL     1      14.268   4.346   0.599  0.00  0.00    +0.024 C 
ATOM     12  C   UNL     1      12.103   3.635   1.496  0.00  0.00    +0.050 C 
ATOM     13  C   UNL     1      13.537   3.176   1.243  0.00  0.00    +0.017 C 
ATOM     14  C   UNL     1      13.576   4.738  -0.724  0.00  0.00    +0.090 C 
ATOM     15  C   UNL     1      11.434   4.005   0.154  0.00  0.00    +0.094 C 
ATOM     17  C   UNL     1      14.327   5.506   1.602  0.00  0.00    +0.130 C 
ATOM     18  C   UNL     1      12.076   4.817   2.447  0.00  0.00    +0.026 A 
ATOM     23  C   UNL     1      11.040   4.989   3.288  0.00  0.00    +0.024 A 
ATOM     24  C   UNL     1      13.146   6.877   3.255  0.00  0.00    +0.274 A 
ATOM     25  C   UNL     1      11.966   7.024   4.144  0.00  0.00    +0.112 A 
ATOM     26  C   UNL     1      10.980   6.128   4.165  0.00  0.00    +0.031 A 
ENDROOT
BRANCH   7  16
ATOM      4  O   UNL     1       9.375   3.030  -5.611  0.00  0.00    -0.276 OA
ATOM      9  N   UNL     1      10.657   4.590  -4.461  0.00  0.00    -0.302 N 
ATOM     16  C   UNL     1      11.528   5.395  -1.820  0.00  0.00    +0.060 C 
ATOM     19  C   UNL     1      12.526   5.184  -2.966  0.00  0.00    +0.038 C 
ATOM     20  C   UNL     1      10.285   4.519  -2.025  0.00  0.00    +0.038 C 
ATOM     21  C   UNL     1      11.861   5.419  -4.322  0.00  0.00    +0.109 C 
ATOM     22  C   UNL     1       9.664   4.767  -3.399  0.00  0.00    +0.109 C 
ATOM     27  C   UNL     1      10.397   3.716  -5.517  0.00  0.00    +0.212 C 
ATOM     28  C   UNL     1      11.448   3.624  -6.593  0.00  0.00    +0.109 C 
ENDBRANCH   7  16
BRANCH  25  10
ATOM     10  N   UNL     1      11.868   8.126   5.014  0.00  0.00    -0.211 N 
ATOM     33  H   UNL     1      12.094   9.028   4.573  0.00  0.00    +0.174 HD
BRANCH  10   1
ATOM      1  S   UNL     1      12.461   7.921   6.585  0.00  0.00    +0.079 S 
ATOM      5  O   UNL     1      13.528   6.938   6.580  0.00  0.00    -0.149 OA
ATOM      6  O   UNL     1      12.665   9.217   7.204  0.00  0.00    -0.149 OA
BRANCH   1  29
ATOM      2  S   UNL     1       9.645   8.130   7.345  0.00  0.00    -0.077 S 
ATOM     29  C   UNL     1      11.062   7.175   7.371  0.00  0.00    +0.146 A 
ATOM     30  C   UNL     1      10.878   5.974   8.002  0.00  0.00    +0.036 A 
ATOM     31  C   UNL     1       9.544   5.827   8.481  0.00  0.00    +0.010 A 
ATOM     32  C   UNL     1       8.767   6.926   8.190  0.00  0.00    +0.047 A 
ENDBRANCH   1  29
ENDBRANCH  10   1
ENDBRANCH  25  10
TORSDOF 4
ENDMDL
MODEL 8
REMARK VINA RESULT:      -6.4      2.637      4.715
REMARK  Name = 7051449
REMARK  5 active torsions:
REMARK  status: ('A' for Active; 'I' for Inactive)
REMARK    1  A    between atoms: S_1  and  N_10
REMARK    2  A    between atoms: S_1  and  C_29
REMARK    3  A    between atoms: N_7  and  C_16
REMARK    4  A    between atoms: N_10  and  C_25
REMARK    5  A    between atoms: C_27  and  C_28
REMARK                            x       y       z     vdW  Elec       q    Type
REMARK                         _______ _______ _______ _____ _____    ______ ____
ROOT
ATOM      3  O   UNL     1      -3.881 -14.315  14.463  0.00  0.00    -0.266 OA
ATOM      7  N   UNL     1      -7.066 -11.671  17.303  0.00  0.00    -0.298 NA
ATOM      8  N   UNL     1      -4.302 -12.618  16.024  0.00  0.00    -0.310 N 
ATOM     11  C   UNL     1      -5.266 -13.063  18.355  0.00  0.00    +0.024 C 
ATOM     12  C   UNL     1      -4.766 -10.766  17.667  0.00  0.00    +0.050 C 
ATOM     13  C   UNL     1      -4.499 -11.808  18.750  0.00  0.00    +0.017 C 
ATOM     14  C   UNL     1      -6.774 -12.751  18.254  0.00  0.00    +0.090 C 
ATOM     15  C   UNL     1      -6.280 -10.464  17.602  0.00  0.00    +0.094 C 
ATOM     17  C   UNL     1      -4.686 -13.605  17.041  0.00  0.00    +0.130 C 
ATOM     18  C   UNL     1      -4.262 -11.249  16.319  0.00  0.00    +0.026 A 
ATOM     23  C   UNL     1      -3.803 -10.369  15.411  0.00  0.00    +0.024 A 
ATOM     24  C   UNL     1      -3.884 -13.124  14.776  0.00  0.00    +0.274 A 
ATOM     25  C   UNL     1      -3.409 -12.103  13.808  0.00  0.00    +0.112 A 
ATOM     26  C   UNL     1      -3.362 -10.806  14.113  0.00  0.00    +0.031 A 
ENDROOT
BRANCH   7  16
ATOM      4  O   UNL     1     -12.049  -9.802  20.356  0.00  0.00    -0.276 OA
ATOM      9  N   UNL     1     -11.013 -10.992  18.651  0.00  0.00    -0.302 N 
ATOM     16  C   UNL     1      -8.496 -11.371  17.273  0.00  0.00    +0.060 C 
ATOM     19  C   UNL     1      -9.293 -12.557  17.831  0.00  0.00    +0.038 C 
ATOM     20  C   UNL     1      -8.785 -10.102  18.085  0.00  0.00    +0.038 C 
ATOM     21  C   UNL     1     -10.785 -12.232  17.898  0.00  0.00    +0.109 C 
ATOM     22  C   UNL     1     -10.286  -9.825  18.147  0.00  0.00    +0.109 C 
ATOM     27  C   UNL     1     -11.874 -10.857  19.740  0.00  0.00    +0.212 C 
ATOM     28  C   UNL     1     -12.620 -12.094  20.169  0.00  0.00    +0.109 C 
ENDBRANCH   7  16
BRANCH  25  10
ATOM     10  N   UNL     1      -2.972 -12.490  12.528  0.00  0.00    -0.211 N 
ATOM     33  H   UNL     1      -2.100 -12.034  12.228  0.00  0.00    +0.174 HD
BRANCH  10   1
ATOM      1  S   UNL     1      -4.154 -12.649  11.327  0.00  0.00    +0.079 S 
ATOM      5  O   UNL     1      -3.762 -13.685  10.390  0.00  0.00    -0.149 OA
ATOM      6  O   UNL     1      -5.471 -12.677  11.937  0.00  0.00    -0.149 OA
BRANCH   1  29
ATOM      2  S   UNL     1      -5.138 -10.835   9.257  0.00  0.00    -0.077 S 
ATOM     29  C   UNL     1      -3.990 -11.096  10.496  0.00  0.00    +0.146 A 
ATOM     30  C   UNL     1      -3.123 -10.047  10.643  0.00  0.00    +0.036 A 
ATOM     31  C   UNL     1      -3.400  -8.999   9.718  0.00  0.00    +0.010 A 
ATOM     32  C   UNL     1      -4.471  -9.297   8.905  0.00  0.00    +0.047 A 
ENDBRANCH   1  29
ENDBRANCH  10   1
ENDBRANCH  25  10
TORSDOF 4
ENDMDL
MODEL 9
REMARK VINA RESULT:      -6.3     24.303     27.862
REMARK  Name = 7051449
REMARK  5 active torsions:
REMARK  status: ('A' for Active; 'I' for Inactive)
REMARK    1  A    between atoms: S_1  and  N_10
REMARK    2  A    between atoms: S_1  and  C_29
REMARK    3  A    between atoms: N_7  and  C_16
REMARK    4  A    between atoms: N_10  and  C_25
REMARK    5  A    between atoms: C_27  and  C_28
REMARK                            x       y       z     vdW  Elec       q    Type
REMARK                         _______ _______ _______ _____ _____    ______ ____
ROOT
ATOM      3  O   UNL     1      12.436   7.594   3.110  0.00  0.00    -0.266 OA
ATOM      7  N   UNL     1      13.003   4.572  -0.858  0.00  0.00    -0.298 NA
ATOM      8  N   UNL     1      12.882   5.482   2.196  0.00  0.00    -0.310 N 
ATOM     11  C   UNL     1      14.912   4.996   0.712  0.00  0.00    +0.024 C 
ATOM     12  C   UNL     1      13.316   3.206   1.210  0.00  0.00    +0.050 C 
ATOM     13  C   UNL     1      14.794   3.583   1.268  0.00  0.00    +0.017 C 
ATOM     14  C   UNL     1      14.391   5.037  -0.741  0.00  0.00    +0.090 C 
ATOM     15  C   UNL     1      12.830   3.241  -0.257  0.00  0.00    +0.094 C 
ATOM     17  C   UNL     1      14.155   5.957   1.638  0.00  0.00    +0.130 C 
ATOM     18  C   UNL     1      12.486   4.145   2.067  0.00  0.00    +0.026 A 
ATOM     23  C   UNL     1      11.373   3.701   2.678  0.00  0.00    +0.024 A 
ATOM     24  C   UNL     1      12.133   6.412   2.948  0.00  0.00    +0.274 A 
ATOM     25  C   UNL     1      10.904   5.869   3.579  0.00  0.00    +0.112 A 
ATOM     26  C   UNL     1      10.554   4.588   3.459  0.00  0.00    +0.031 A 
ENDROOT
BRANCH   7  16
ATOM      4  O   UNL     1      14.003   2.747  -6.630  0.00  0.00    -0.276 OA
ATOM      9  N   UNL     1      13.136   4.233  -5.068  0.00  0.00    -0.302 N 
ATOM     16  C   UNL     1      12.565   4.578  -2.252  0.00  0.00    +0.060 C 
ATOM     19  C   UNL     1      13.353   5.627  -3.046  0.00  0.00    +0.038 C 
ATOM     20  C   UNL     1      12.752   3.187  -2.869  0.00  0.00    +0.038 C 
ATOM     21  C   UNL     1      12.978   5.588  -4.527  0.00  0.00    +0.109 C 
ATOM     22  C   UNL     1      12.389   3.196  -4.353  0.00  0.00    +0.109 C 
ATOM     27  C   UNL     1      13.887   3.895  -6.195  0.00  0.00    +0.212 C 
ATOM     28  C   UNL     1      14.590   5.026  -6.901  0.00  0.00    +0.109 C 
ENDBRANCH   7  16
BRANCH  25  10
ATOM     10  N   UNL     1      10.074   6.705   4.348  0.00  0.00    -0.211 N 
ATOM     33  H   UNL     1       9.933   7.641   3.942  0.00  0.00    +0.174 HD
BRANCH  10   1
ATOM      1  S   UNL     1      10.287   6.669   6.026  0.00  0.00    +0.079 S 
ATOM      5  O   UNL     1       9.148   6.021   6.649  0.00  0.00    -0.149 OA
ATOM      6  O   UNL     1      11.636   6.235   6.339  0.00  0.00    -0.149 OA
BRANCH   1  29
ATOM      2  S   UNL     1       9.223   8.759   7.771  0.00  0.00    -0.077 S 
ATOM     29  C   UNL     1      10.186   8.394   6.408  0.00  0.00    +0.146 A 
ATOM     30  C   UNL     1      10.728   9.510   5.830  0.00  0.00    +0.036 A 
ATOM     31  C   UNL     1      10.347  10.699   6.516  0.00  0.00    +0.010 A 
ATOM     32  C   UNL     1       9.529  10.434   7.592  0.00  0.00    +0.047 A 
ENDBRANCH   1  29
ENDBRANCH  10   1
ENDBRANCH  25  10
TORSDOF 4
ENDMDL
MODEL 10
REMARK VINA RESULT:      -6.3     21.728     23.597
REMARK  Name = 7051449
REMARK  5 active torsions:
REMARK  status: ('A' for Active; 'I' for Inactive)
REMARK    1  A    between atoms: S_1  and  N_10
REMARK    2  A    between atoms: S_1  and  C_29
REMARK    3  A    between atoms: N_7  and  C_16
REMARK    4  A    between atoms: N_10  and  C_25
REMARK    5  A    between atoms: C_27  and  C_28
REMARK                            x       y       z     vdW  Elec       q    Type
REMARK                         _______ _______ _______ _____ _____    ______ ____
ROOT
ATOM      3  O   UNL     1      -3.851  10.524   1.443  0.00  0.00    -0.266 OA
ATOM      7  N   UNL     1      -2.642  11.274   6.257  0.00  0.00    -0.298 NA
ATOM      8  N   UNL     1      -2.708   9.885   3.386  0.00  0.00    -0.310 N 
ATOM     11  C   UNL     1      -3.893   9.217   5.556  0.00  0.00    +0.024 C 
ATOM     12  C   UNL     1      -1.445   9.229   5.465  0.00  0.00    +0.050 C 
ATOM     13  C   UNL     1      -2.656   8.360   5.794  0.00  0.00    +0.017 C 
ATOM     14  C   UNL     1      -3.851  10.467   6.461  0.00  0.00    +0.090 C 
ATOM     15  C   UNL     1      -1.424  10.461   6.397  0.00  0.00    +0.094 C 
ATOM     17  C   UNL     1      -3.971   9.570   4.065  0.00  0.00    +0.130 C 
ATOM     18  C   UNL     1      -1.473   9.663   4.010  0.00  0.00    +0.026 A 
ATOM     23  C   UNL     1      -0.325   9.852   3.336  0.00  0.00    +0.024 A 
ATOM     24  C   UNL     1      -2.799  10.326   2.049  0.00  0.00    +0.274 A 
ATOM     25  C   UNL     1      -1.498  10.538   1.365  0.00  0.00    +0.112 A 
ATOM     26  C   UNL     1      -0.334  10.304   1.970  0.00  0.00    +0.031 A 
ENDROOT
BRANCH   7  16
ATOM      4  O   UNL     1      -1.277  13.459  11.825  0.00  0.00    -0.276 OA
ATOM      9  N   UNL     1      -2.500  13.493   9.850  0.00  0.00    -0.302 N 
ATOM     16  C   UNL     1      -2.616  12.418   7.165  0.00  0.00    +0.060 C 
ATOM     19  C   UNL     1      -3.830  12.373   8.101  0.00  0.00    +0.038 C 
ATOM     20  C   UNL     1      -1.314  12.417   7.976  0.00  0.00    +0.038 C 
ATOM     21  C   UNL     1      -3.776  13.508   9.124  0.00  0.00    +0.109 C 
ATOM     22  C   UNL     1      -1.309  13.551   9.001  0.00  0.00    +0.109 C 
ATOM     27  C   UNL     1      -2.362  13.470  11.238  0.00  0.00    +0.212 C 
ATOM     28  C   UNL     1      -3.636  13.457  12.043  0.00  0.00    +0.109 C 
ENDBRANCH   7  16
BRANCH  25  10
ATOM     10  N   UNL     1      -1.465  10.983   0.031  0.00  0.00    -0.211 N 
ATOM     33  H   UNL     1      -2.108  11.762  -0.166  0.00  0.00    +0.174 HD
BRANCH  10   1
ATOM      1  S   UNL     1      -1.372   9.799  -1.173  0.00  0.00    +0.079 S 
ATOM      5  O   UNL     1      -0.230  10.061  -2.029  0.00  0.00    -0.149 OA
ATOM      6  O   UNL     1      -1.557   8.485  -0.584  0.00  0.00    -0.149 OA
BRANCH   1  29
ATOM      2  S   UNL     1      -2.536  11.026  -3.558  0.00  0.00    -0.077 S 
ATOM     29  C   UNL     1      -2.827  10.166  -2.110  0.00  0.00    +0.146 A 
ATOM     30  C   UNL     1      -4.156   9.900  -1.911  0.00  0.00    +0.036 A 
ATOM     31  C   UNL     1      -4.961  10.412  -2.969  0.00  0.00    +0.010 A 
ATOM     32  C   UNL     1      -4.208  11.047  -3.931  0.00  0.00    +0.047 A 
ENDBRANCH   1  29
ENDBRANCH  10   1
ENDBRANCH  25  10
TORSDOF 4
ENDMDL
