MODEL 1
REMARK VINA RESULT:      -8.1      0.000      0.000
REMARK  Name = 11886263
REMARK  7 active torsions:
REMARK  status: ('A' for Active; 'I' for Inactive)
REMARK    1  A    between atoms: O_6  and  C_23
REMARK    2  A    between atoms: O_6  and  C_26
REMARK    3  A    between atoms: N_8  and  C_19
REMARK    4  A    between atoms: N_9  and  C_20
REMARK    5  A    between atoms: N_13  and  C_25
REMARK    6  A    between atoms: N_14  and  C_35
REMARK    7  A    between atoms: C_31  and  C_37
REMARK                            x       y       z     vdW  Elec       q    Type
REMARK                         _______ _______ _______ _____ _____    ______ ____
ROOT
ATOM      4  O   UNL     1      15.764  13.667  25.078  0.00  0.00    -0.370 OA
ATOM      5  O   UNL     1      14.806  13.398  22.095  0.00  0.00    -0.370 OA
ATOM     17  C   UNL     1      14.186  13.143  23.370  0.00  0.00    +0.176 C 
ATOM     18  C   UNL     1      15.259  12.584  24.285  0.00  0.00    +0.172 C 
ATOM     19  C   UNL     1      13.776  14.454  24.015  0.00  0.00    +0.171 C 
ATOM     20  C   UNL     1      16.328  12.080  23.342  0.00  0.00    +0.131 C 
ATOM     21  C   UNL     1      15.027  14.862  24.786  0.00  0.00    +0.190 C 
ATOM     22  C   UNL     1      16.188  13.023  22.161  0.00  0.00    +0.185 C 
ENDROOT
BRANCH  20   9
ATOM      7  O   UNL     1      17.897  10.504  21.536  0.00  0.00    -0.252 OA
ATOM      9  N   UNL     1      16.081  10.714  22.952  0.00  0.00    -0.292 N 
ATOM     13  N   UNL     1      16.417   8.714  21.872  0.00  0.00    -0.269 N 
ATOM     24  C   UNL     1      16.901  10.011  22.059  0.00  0.00    +0.304 C 
ATOM     40  H   UNL     1      15.315  10.215  23.394  0.00  0.00    +0.151 HD
ATOM     41  H   UNL     1      15.574   8.463  22.382  0.00  0.00    +0.156 HD
BRANCH  13  25
ATOM     25  C   UNL     1      16.957   7.696  21.051  0.00  0.00    +0.035 A 
ATOM     27  C   UNL     1      18.248   7.223  21.284  0.00  0.00    +0.035 A 
ATOM     28  C   UNL     1      16.197   7.166  20.008  0.00  0.00    +0.023 A 
ATOM     31  C   UNL     1      18.780   6.219  20.474  0.00  0.00    +0.057 A 
ATOM     32  C   UNL     1      16.728   6.161  19.199  0.00  0.00    +0.002 A 
ATOM     36  C   UNL     1      18.020   5.689  19.432  0.00  0.00    +0.012 A 
BRANCH  31  37
ATOM      1  F   UNL     1      21.135   6.480  20.152  0.00  0.00    -0.166 F 
ATOM      2  F   UNL     1      20.375   4.452  20.247  0.00  0.00    -0.166 F 
ATOM      3  F   UNL     1      20.468   5.660  22.052  0.00  0.00    -0.166 F 
ATOM     37  C   UNL     1      20.160   5.713  20.724  0.00  0.00    +0.417 C 
ENDBRANCH  31  37
ENDBRANCH  13  25
ENDBRANCH  20   9
BRANCH  19   8
ATOM      8  N   UNL     1      12.562  14.326  24.824  0.00  0.00    -0.187 N 
ATOM     10  N   UNL     1      12.564  14.630  26.129  0.00  0.00    -0.041 NA
ATOM     11  N   UNL     1      10.535  13.951  25.498  0.00  0.00    -0.071 NA
ATOM     12  N   UNL     1      11.321  14.400  26.537  0.00  0.00    -0.020 NA
ATOM     23  C   UNL     1      11.323  13.914  24.449  0.00  0.00    +0.342 A 
BRANCH  23   6
ATOM      6  O   UNL     1      10.991  13.541  23.227  0.00  0.00    -0.423 OA
BRANCH   6  26
ATOM     26  C   UNL     1      11.133  12.235  22.780  0.00  0.00    +0.132 A 
ATOM     29  C   UNL     1      10.833  11.171  23.630  0.00  0.00    +0.048 A 
ATOM     30  C   UNL     1      11.575  11.986  21.480  0.00  0.00    +0.048 A 
ATOM     33  C   UNL     1      10.974   9.858  23.181  0.00  0.00    +0.031 A 
ATOM     34  C   UNL     1      11.718  10.673  21.032  0.00  0.00    +0.031 A 
ATOM     35  C   UNL     1      11.417   9.609  21.882  0.00  0.00    +0.067 A 
BRANCH  35  14
ATOM     14  N   UNL     1      11.558   8.307  21.437  0.00  0.00    -0.220 N 
ATOM     15  N   UNL     1      12.570   7.940  20.637  0.00  0.00    -0.154 NA
ATOM     16  N   UNL     1      11.197   6.175  21.122  0.00  0.00    -0.222 NA
ATOM     38  C   UNL     1      10.747   7.252  21.720  0.00  0.00    +0.225 A 
ATOM     39  C   UNL     1      12.306   6.641  20.475  0.00  0.00    +0.245 A 
ENDBRANCH  35  14
ENDBRANCH   6  26
ENDBRANCH  23   6
ENDBRANCH  19   8
TORSDOF 7
ENDMDL
MODEL 2
REMARK VINA RESULT:      -7.9      4.744      7.406
REMARK  Name = 11886263
REMARK  7 active torsions:
REMARK  status: ('A' for Active; 'I' for Inactive)
REMARK    1  A    between atoms: O_6  and  C_23
REMARK    2  A    between atoms: O_6  and  C_26
REMARK    3  A    between atoms: N_8  and  C_19
REMARK    4  A    between atoms: N_9  and  C_20
REMARK    5  A    between atoms: N_13  and  C_25
REMARK    6  A    between atoms: N_14  and  C_35
REMARK    7  A    between atoms: C_31  and  C_37
REMARK                            x       y       z     vdW  Elec       q    Type
REMARK                         _______ _______ _______ _____ _____    ______ ____
ROOT
ATOM      4  O   UNL     1      14.593   7.414  21.712  0.00  0.00    -0.370 OA
ATOM      5  O   UNL     1      16.315   9.673  20.363  0.00  0.00    -0.370 OA
ATOM     17  C   UNL     1      15.479   8.617  19.854  0.00  0.00    +0.176 C 
ATOM     18  C   UNL     1      15.670   7.418  20.763  0.00  0.00    +0.172 C 
ATOM     19  C   UNL     1      14.018   8.992  20.015  0.00  0.00    +0.171 C 
ATOM     20  C   UNL     1      16.984   7.685  21.463  0.00  0.00    +0.131 C 
ATOM     21  C   UNL     1      13.685   8.483  21.414  0.00  0.00    +0.190 C 
ATOM     22  C   UNL     1      17.017   9.201  21.521  0.00  0.00    +0.185 C 
ENDROOT
BRANCH  20   9
ATOM      7  O   UNL     1      19.593   7.050  22.462  0.00  0.00    -0.252 OA
ATOM      9  N   UNL     1      18.096   7.168  20.703  0.00  0.00    -0.292 N 
ATOM     13  N   UNL     1      20.221   6.395  20.297  0.00  0.00    -0.269 N 
ATOM     24  C   UNL     1      19.344   6.882  21.270  0.00  0.00    +0.304 C 
ATOM     40  H   UNL     1      17.949   6.938  19.725  0.00  0.00    +0.151 HD
ATOM     41  H   UNL     1      19.856   6.317  19.352  0.00  0.00    +0.156 HD
BRANCH  13  25
ATOM     25  C   UNL     1      21.567   5.994  20.464  0.00  0.00    +0.035 A 
ATOM     27  C   UNL     1      21.882   4.643  20.602  0.00  0.00    +0.035 A 
ATOM     28  C   UNL     1      22.581   6.953  20.491  0.00  0.00    +0.023 A 
ATOM     31  C   UNL     1      23.210   4.249  20.767  0.00  0.00    +0.057 A 
ATOM     32  C   UNL     1      23.909   6.559  20.655  0.00  0.00    +0.002 A 
ATOM     36  C   UNL     1      24.223   5.207  20.793  0.00  0.00    +0.012 A 
BRANCH  31  37
ATOM      1  F   UNL     1      23.922   2.456  22.181  0.00  0.00    -0.166 F 
ATOM      2  F   UNL     1      24.575   2.397  20.115  0.00  0.00    -0.166 F 
ATOM      3  F   UNL     1      22.498   1.986  20.606  0.00  0.00    -0.166 F 
ATOM     37  C   UNL     1      23.546   2.804  20.915  0.00  0.00    +0.417 C 
ENDBRANCH  31  37
ENDBRANCH  13  25
ENDBRANCH  20   9
BRANCH  19   8
ATOM      8  N   UNL     1      13.178   8.454  18.943  0.00  0.00    -0.187 N 
ATOM     10  N   UNL     1      12.781   7.174  18.949  0.00  0.00    -0.041 NA
ATOM     11  N   UNL     1      11.984   8.219  17.147  0.00  0.00    -0.071 NA
ATOM     12  N   UNL     1      12.050   7.036  17.849  0.00  0.00    -0.020 NA
ATOM     23  C   UNL     1      12.688   9.083  17.842  0.00  0.00    +0.342 A 
BRANCH  23   6
ATOM      6  O   UNL     1      12.901  10.350  17.542  0.00  0.00    -0.423 OA
BRANCH   6  26
ATOM     26  C   UNL     1      13.994  10.769  16.797  0.00  0.00    +0.132 A 
ATOM     29  C   UNL     1      14.191  10.272  15.509  0.00  0.00    +0.048 A 
ATOM     30  C   UNL     1      14.896  11.686  17.336  0.00  0.00    +0.048 A 
ATOM     33  C   UNL     1      15.289  10.692  14.759  0.00  0.00    +0.031 A 
ATOM     34  C   UNL     1      15.995  12.106  16.586  0.00  0.00    +0.031 A 
ATOM     35  C   UNL     1      16.192  11.609  15.298  0.00  0.00    +0.067 A 
BRANCH  35  14
ATOM     14  N   UNL     1      17.281  12.026  14.555  0.00  0.00    -0.220 N 
ATOM     15  N   UNL     1      18.518  12.059  15.073  0.00  0.00    -0.154 NA
ATOM     16  N   UNL     1      18.499  12.758  12.895  0.00  0.00    -0.222 NA
ATOM     38  C   UNL     1      17.279  12.444  13.260  0.00  0.00    +0.225 A 
ATOM     39  C   UNL     1      19.218  12.509  14.029  0.00  0.00    +0.245 A 
ENDBRANCH  35  14
ENDBRANCH   6  26
ENDBRANCH  23   6
ENDBRANCH  19   8
TORSDOF 7
ENDMDL
MODEL 3
REMARK VINA RESULT:      -7.8      3.509      6.762
REMARK  Name = 11886263
REMARK  7 active torsions:
REMARK  status: ('A' for Active; 'I' for Inactive)
REMARK    1  A    between atoms: O_6  and  C_23
REMARK    2  A    between atoms: O_6  and  C_26
REMARK    3  A    between atoms: N_8  and  C_19
REMARK    4  A    between atoms: N_9  and  C_20
REMARK    5  A    between atoms: N_13  and  C_25
REMARK    6  A    between atoms: N_14  and  C_35
REMARK    7  A    between atoms: C_31  and  C_37
REMARK                            x       y       z     vdW  Elec       q    Type
REMARK                         _______ _______ _______ _____ _____    ______ ____
ROOT
ATOM      4  O   UNL     1      15.824   6.628  21.561  0.00  0.00    -0.370 OA
ATOM      5  O   UNL     1      17.873   8.897  20.822  0.00  0.00    -0.370 OA
ATOM     17  C   UNL     1      16.994   8.055  20.052  0.00  0.00    +0.176 C 
ATOM     18  C   UNL     1      16.984   6.693  20.718  0.00  0.00    +0.172 C 
ATOM     19  C   UNL     1      15.567   8.553  20.172  0.00  0.00    +0.171 C 
ATOM     20  C   UNL     1      18.243   6.676  21.555  0.00  0.00    +0.131 C 
ATOM     21  C   UNL     1      15.054   7.829  21.412  0.00  0.00    +0.190 C 
ATOM     22  C   UNL     1      18.412   8.141  21.914  0.00  0.00    +0.185 C 
ENDROOT
BRANCH  20   9
ATOM      7  O   UNL     1      20.708   5.663  22.606  0.00  0.00    -0.252 OA
ATOM      9  N   UNL     1      19.369   6.191  20.796  0.00  0.00    -0.292 N 
ATOM     13  N   UNL     1      21.456   5.311  20.409  0.00  0.00    -0.269 N 
ATOM     24  C   UNL     1      20.544   5.710  21.389  0.00  0.00    +0.304 C 
ATOM     40  H   UNL     1      19.284   6.135  19.785  0.00  0.00    +0.151 HD
ATOM     41  H   UNL     1      21.163   5.418  19.441  0.00  0.00    +0.156 HD
BRANCH  13  25
ATOM     25  C   UNL     1      22.750   4.772  20.596  0.00  0.00    +0.035 A 
ATOM     27  C   UNL     1      22.903   3.472  21.077  0.00  0.00    +0.035 A 
ATOM     28  C   UNL     1      23.875   5.542  20.299  0.00  0.00    +0.023 A 
ATOM     31  C   UNL     1      24.181   2.942  21.262  0.00  0.00    +0.057 A 
ATOM     32  C   UNL     1      25.152   5.012  20.482  0.00  0.00    +0.002 A 
ATOM     36  C   UNL     1      25.304   3.713  20.964  0.00  0.00    +0.012 A 
BRANCH  31  37
ATOM      1  F   UNL     1      23.985   0.590  20.874  0.00  0.00    -0.166 F 
ATOM      2  F   UNL     1      23.599   1.289  22.890  0.00  0.00    -0.166 F 
ATOM      3  F   UNL     1      25.633   1.268  22.122  0.00  0.00    -0.166 F 
ATOM     37  C   UNL     1      24.344   1.552  21.776  0.00  0.00    +0.417 C 
ENDBRANCH  31  37
ENDBRANCH  13  25
ENDBRANCH  20   9
BRANCH  19   8
ATOM      8  N   UNL     1      14.787   8.323  18.953  0.00  0.00    -0.187 N 
ATOM     10  N   UNL     1      14.756   7.118  18.367  0.00  0.00    -0.041 NA
ATOM     11  N   UNL     1      13.505   8.566  17.220  0.00  0.00    -0.071 NA
ATOM     12  N   UNL     1      13.969   7.272  17.308  0.00  0.00    -0.020 NA
ATOM     23  C   UNL     1      14.023   9.198  18.248  0.00  0.00    +0.342 A 
BRANCH  23   6
ATOM      6  O   UNL     1      13.847  10.468  18.563  0.00  0.00    -0.423 OA
BRANCH   6  26
ATOM     26  C   UNL     1      13.225  10.868  19.737  0.00  0.00    +0.132 A 
ATOM     29  C   UNL     1      13.570  12.081  20.331  0.00  0.00    +0.048 A 
ATOM     30  C   UNL     1      12.254  10.056  20.323  0.00  0.00    +0.048 A 
ATOM     33  C   UNL     1      12.945  12.484  21.510  0.00  0.00    +0.031 A 
ATOM     34  C   UNL     1      11.629  10.458  21.504  0.00  0.00    +0.031 A 
ATOM     35  C   UNL     1      11.974  11.672  22.097  0.00  0.00    +0.067 A 
BRANCH  35  14
ATOM     14  N   UNL     1      11.354  12.071  23.268  0.00  0.00    -0.220 N 
ATOM     15  N   UNL     1      10.864  13.310  23.421  0.00  0.00    -0.154 NA
ATOM     16  N   UNL     1      10.529  12.035  25.291  0.00  0.00    -0.222 NA
ATOM     38  C   UNL     1      11.151  11.320  24.384  0.00  0.00    +0.225 A 
ATOM     39  C   UNL     1      10.376  13.238  24.661  0.00  0.00    +0.245 A 
ENDBRANCH  35  14
ENDBRANCH   6  26
ENDBRANCH  23   6
ENDBRANCH  19   8
TORSDOF 7
ENDMDL
MODEL 4
REMARK VINA RESULT:      -7.7     17.359     19.968
REMARK  Name = 11886263
REMARK  7 active torsions:
REMARK  status: ('A' for Active; 'I' for Inactive)
REMARK    1  A    between atoms: O_6  and  C_23
REMARK    2  A    between atoms: O_6  and  C_26
REMARK    3  A    between atoms: N_8  and  C_19
REMARK    4  A    between atoms: N_9  and  C_20
REMARK    5  A    between atoms: N_13  and  C_25
REMARK    6  A    between atoms: N_14  and  C_35
REMARK    7  A    between atoms: C_31  and  C_37
REMARK                            x       y       z     vdW  Elec       q    Type
REMARK                         _______ _______ _______ _____ _____    ______ ____
ROOT
ATOM      4  O   UNL     1       8.313   6.788   5.030  0.00  0.00    -0.370 OA
ATOM      5  O   UNL     1      10.596   5.769   6.938  0.00  0.00    -0.370 OA
ATOM     17  C   UNL     1      10.466   6.893   6.048  0.00  0.00    +0.176 C 
ATOM     18  C   UNL     1       9.686   6.418   4.837  0.00  0.00    +0.172 C 
ATOM     19  C   UNL     1       9.586   7.954   6.681  0.00  0.00    +0.171 C 
ATOM     20  C   UNL     1       9.832   4.913   4.866  0.00  0.00    +0.131 C 
ATOM     21  C   UNL     1       8.184   7.541   6.244  0.00  0.00    +0.190 C 
ATOM     22  C   UNL     1       9.954   4.628   6.352  0.00  0.00    +0.185 C 
ENDROOT
BRANCH  20   9
ATOM      7  O   UNL     1      10.306   5.134   2.050  0.00  0.00    -0.252 OA
ATOM      9  N   UNL     1      11.012   4.487   4.155  0.00  0.00    -0.292 N 
ATOM     13  N   UNL     1      12.406   4.133   2.363  0.00  0.00    -0.269 N 
ATOM     24  C   UNL     1      11.166   4.632   2.770  0.00  0.00    +0.304 C 
ATOM     40  H   UNL     1      11.796   4.125   4.689  0.00  0.00    +0.151 HD
ATOM     41  H   UNL     1      13.004   3.748   3.089  0.00  0.00    +0.156 HD
BRANCH  13  25
ATOM     25  C   UNL     1      12.939   4.094   1.053  0.00  0.00    +0.035 A 
ATOM     27  C   UNL     1      12.300   3.351   0.061  0.00  0.00    +0.035 A 
ATOM     28  C   UNL     1      14.105   4.799   0.755  0.00  0.00    +0.023 A 
ATOM     31  C   UNL     1      12.827   3.313  -1.230  0.00  0.00    +0.057 A 
ATOM     32  C   UNL     1      14.632   4.762  -0.537  0.00  0.00    +0.002 A 
ATOM     36  C   UNL     1      13.993   4.019  -1.528  0.00  0.00    +0.012 A 
BRANCH  31  37
ATOM      1  F   UNL     1      12.105   1.179  -2.032  0.00  0.00    -0.166 F 
ATOM      2  F   UNL     1      12.731   2.627  -3.519  0.00  0.00    -0.166 F 
ATOM      3  F   UNL     1      10.844   2.895  -2.474  0.00  0.00    -0.166 F 
ATOM     37  C   UNL     1      12.143   2.519  -2.291  0.00  0.00    +0.417 C 
ENDBRANCH  31  37
ENDBRANCH  13  25
ENDBRANCH  20   9
BRANCH  19   8
ATOM      8  N   UNL     1       9.979   9.312   6.298  0.00  0.00    -0.187 N 
ATOM     10  N   UNL     1       9.203  10.061   5.503  0.00  0.00    -0.041 NA
ATOM     11  N   UNL     1      11.041  11.189   6.070  0.00  0.00    -0.071 NA
ATOM     12  N   UNL     1       9.857  11.209   5.368  0.00  0.00    -0.020 NA
ATOM     23  C   UNL     1      11.096  10.007   6.639  0.00  0.00    +0.342 A 
BRANCH  23   6
ATOM      6  O   UNL     1      12.063   9.548   7.412  0.00  0.00    -0.423 OA
BRANCH   6  26
ATOM     26  C   UNL     1      13.346   9.309   6.941  0.00  0.00    +0.132 A 
ATOM     29  C   UNL     1      13.762   8.003   6.682  0.00  0.00    +0.048 A 
ATOM     30  C   UNL     1      14.221  10.375   6.727  0.00  0.00    +0.048 A 
ATOM     33  C   UNL     1      15.051   7.762   6.208  0.00  0.00    +0.031 A 
ATOM     34  C   UNL     1      15.511  10.134   6.255  0.00  0.00    +0.031 A 
ATOM     35  C   UNL     1      15.926   8.827   5.995  0.00  0.00    +0.067 A 
BRANCH  35  14
ATOM     14  N   UNL     1      17.205   8.589   5.526  0.00  0.00    -0.220 N 
ATOM     15  N   UNL     1      18.289   8.810   6.286  0.00  0.00    -0.154 NA
ATOM     16  N   UNL     1      18.859   8.021   4.215  0.00  0.00    -0.222 NA
ATOM     38  C   UNL     1      17.553   8.122   4.297  0.00  0.00    +0.225 A 
ATOM     39  C   UNL     1      19.263   8.451   5.447  0.00  0.00    +0.245 A 
ENDBRANCH  35  14
ENDBRANCH   6  26
ENDBRANCH  23   6
ENDBRANCH  19   8
TORSDOF 7
ENDMDL
MODEL 5
REMARK VINA RESULT:      -7.7     24.785     27.755
REMARK  Name = 11886263
REMARK  7 active torsions:
REMARK  status: ('A' for Active; 'I' for Inactive)
REMARK    1  A    between atoms: O_6  and  C_23
REMARK    2  A    between atoms: O_6  and  C_26
REMARK    3  A    between atoms: N_8  and  C_19
REMARK    4  A    between atoms: N_9  and  C_20
REMARK    5  A    between atoms: N_13  and  C_25
REMARK    6  A    between atoms: N_14  and  C_35
REMARK    7  A    between atoms: C_31  and  C_37
REMARK                            x       y       z     vdW  Elec       q    Type
REMARK                         _______ _______ _______ _____ _____    ______ ____
ROOT
ATOM      4  O   UNL     1       8.788   6.324  -5.205  0.00  0.00    -0.370 OA
ATOM      5  O   UNL     1       7.353   7.173  -2.539  0.00  0.00    -0.370 OA
ATOM     17  C   UNL     1       7.852   5.923  -3.050  0.00  0.00    +0.176 C 
ATOM     18  C   UNL     1       7.584   5.910  -4.543  0.00  0.00    +0.172 C 
ATOM     19  C   UNL     1       9.364   5.884  -2.930  0.00  0.00    +0.171 C 
ATOM     20  C   UNL     1       6.498   6.944  -4.736  0.00  0.00    +0.131 C 
ATOM     21  C   UNL     1       9.828   6.519  -4.237  0.00  0.00    +0.190 C 
ATOM     22  C   UNL     1       6.785   7.929  -3.618  0.00  0.00    +0.185 C 
ENDROOT
BRANCH  20   9
ATOM      7  O   UNL     1       5.233   5.111  -6.538  0.00  0.00    -0.252 OA
ATOM      9  N   UNL     1       5.187   6.359  -4.592  0.00  0.00    -0.292 N 
ATOM     13  N   UNL     1       3.363   5.066  -5.120  0.00  0.00    -0.269 N 
ATOM     24  C   UNL     1       4.640   5.467  -5.522  0.00  0.00    +0.304 C 
ATOM     40  H   UNL     1       4.662   6.551  -3.744  0.00  0.00    +0.151 HD
ATOM     41  H   UNL     1       3.015   5.457  -4.248  0.00  0.00    +0.156 HD
BRANCH  13  25
ATOM     25  C   UNL     1       2.483   4.178  -5.781  0.00  0.00    +0.035 A 
ATOM     27  C   UNL     1       2.177   2.943  -5.209  0.00  0.00    +0.035 A 
ATOM     28  C   UNL     1       1.922   4.537  -7.007  0.00  0.00    +0.023 A 
ATOM     31  C   UNL     1       1.310   2.067  -5.863  0.00  0.00    +0.057 A 
ATOM     32  C   UNL     1       1.053   3.662  -7.660  0.00  0.00    +0.002 A 
ATOM     36  C   UNL     1       0.748   2.428  -7.088  0.00  0.00    +0.012 A 
BRANCH  31  37
ATOM      1  F   UNL     1       2.079  -0.032  -5.014  0.00  0.00    -0.166 F 
ATOM      2  F   UNL     1       0.158  -0.023  -6.021  0.00  0.00    -0.166 F 
ATOM      3  F   UNL     1       0.351   0.868  -4.047  0.00  0.00    -0.166 F 
ATOM     37  C   UNL     1       0.982   0.747  -5.251  0.00  0.00    +0.417 C 
ENDBRANCH  31  37
ENDBRANCH  13  25
ENDBRANCH  20   9
BRANCH  19   8
ATOM      8  N   UNL     1       9.873   4.533  -2.682  0.00  0.00    -0.187 N 
ATOM     10  N   UNL     1       9.370   3.472  -3.329  0.00  0.00    -0.041 NA
ATOM     11  N   UNL     1      10.983   2.828  -1.930  0.00  0.00    -0.071 NA
ATOM     12  N   UNL     1      10.054   2.432  -2.866  0.00  0.00    -0.020 NA
ATOM     23  C   UNL     1      10.855   4.131  -1.833  0.00  0.00    +0.342 A 
BRANCH  23   6
ATOM      6  O   UNL     1      11.549   4.936  -1.049  0.00  0.00    -0.423 OA
BRANCH   6  26
ATOM     26  C   UNL     1      11.313   5.036   0.314  0.00  0.00    +0.132 A 
ATOM     29  C   UNL     1      10.525   6.074   0.811  0.00  0.00    +0.048 A 
ATOM     30  C   UNL     1      11.864   4.099   1.189  0.00  0.00    +0.048 A 
ATOM     33  C   UNL     1      10.286   6.175   2.182  0.00  0.00    +0.031 A 
ATOM     34  C   UNL     1      11.627   4.201   2.560  0.00  0.00    +0.031 A 
ATOM     35  C   UNL     1      10.838   5.239   3.056  0.00  0.00    +0.067 A 
BRANCH  35  14
ATOM     14  N   UNL     1      10.603   5.339   4.416  0.00  0.00    -0.220 N 
ATOM     15  N   UNL     1      11.133   6.326   5.153  0.00  0.00    -0.154 NA
ATOM     16  N   UNL     1       9.852   4.920   6.425  0.00  0.00    -0.222 NA
ATOM     38  C   UNL     1       9.844   4.507   5.179  0.00  0.00    +0.225 A 
ATOM     39  C   UNL     1      10.649   6.027   6.361  0.00  0.00    +0.245 A 
ENDBRANCH  35  14
ENDBRANCH   6  26
ENDBRANCH  23   6
ENDBRANCH  19   8
TORSDOF 7
ENDMDL
MODEL 6
REMARK VINA RESULT:      -7.6     20.762     23.795
REMARK  Name = 11886263
REMARK  7 active torsions:
REMARK  status: ('A' for Active; 'I' for Inactive)
REMARK    1  A    between atoms: O_6  and  C_23
REMARK    2  A    between atoms: O_6  and  C_26
REMARK    3  A    between atoms: N_8  and  C_19
REMARK    4  A    between atoms: N_9  and  C_20
REMARK    5  A    between atoms: N_13  and  C_25
REMARK    6  A    between atoms: N_14  and  C_35
REMARK    7  A    between atoms: C_31  and  C_37
REMARK                            x       y       z     vdW  Elec       q    Type
REMARK                         _______ _______ _______ _____ _____    ______ ____
ROOT
ATOM      4  O   UNL     1      11.985   5.726  -0.891  0.00  0.00    -0.370 OA
ATOM      5  O   UNL     1      13.055   3.188   0.628  0.00  0.00    -0.370 OA
ATOM     17  C   UNL     1      11.848   3.481  -0.101  0.00  0.00    +0.176 C 
ATOM     18  C   UNL     1      11.488   4.924   0.191  0.00  0.00    +0.172 C 
ATOM     19  C   UNL     1      12.126   3.448  -1.592  0.00  0.00    +0.171 C 
ATOM     20  C   UNL     1      12.233   5.245   1.467  0.00  0.00    +0.131 C 
ATOM     21  C   UNL     1      12.566   4.877  -1.891  0.00  0.00    +0.190 C 
ATOM     22  C   UNL     1      13.458   4.355   1.359  0.00  0.00    +0.185 C 
ENDROOT
BRANCH  20   9
ATOM      7  O   UNL     1      11.522   7.003   3.614  0.00  0.00    -0.252 OA
ATOM      9  N   UNL     1      11.447   4.912   2.630  0.00  0.00    -0.292 N 
ATOM     13  N   UNL     1      10.370   5.230   4.634  0.00  0.00    -0.269 N 
ATOM     24  C   UNL     1      11.143   5.834   3.639  0.00  0.00    +0.304 C 
ATOM     40  H   UNL     1      11.040   3.983   2.689  0.00  0.00    +0.151 HD
ATOM     41  H   UNL     1      10.142   4.248   4.502  0.00  0.00    +0.156 HD
BRANCH  13  25
ATOM     25  C   UNL     1       9.861   5.819   5.815  0.00  0.00    +0.035 A 
ATOM     27  C   UNL     1       9.897   5.115   7.018  0.00  0.00    +0.035 A 
ATOM     28  C   UNL     1       9.321   7.105   5.775  0.00  0.00    +0.023 A 
ATOM     31  C   UNL     1       9.393   5.696   8.182  0.00  0.00    +0.057 A 
ATOM     32  C   UNL     1       8.819   7.687   6.940  0.00  0.00    +0.002 A 
ATOM     36  C   UNL     1       8.855   6.982   8.142  0.00  0.00    +0.012 A 
BRANCH  31  37
ATOM      1  F   UNL     1       8.318   5.120  10.239  0.00  0.00    -0.166 F 
ATOM      2  F   UNL     1      10.480   5.288  10.273  0.00  0.00    -0.166 F 
ATOM      3  F   UNL     1       9.540   3.595   9.285  0.00  0.00    -0.166 F 
ATOM     37  C   UNL     1       9.432   4.943   9.469  0.00  0.00    +0.417 C 
ENDBRANCH  31  37
ENDBRANCH  13  25
ENDBRANCH  20   9
BRANCH  19   8
ATOM      8  N   UNL     1      10.975   2.978  -2.368  0.00  0.00    -0.187 N 
ATOM     10  N   UNL     1      10.635   1.683  -2.388  0.00  0.00    -0.041 NA
ATOM     11  N   UNL     1       9.233   2.868  -3.654  0.00  0.00    -0.071 NA
ATOM     12  N   UNL     1       9.567   1.620  -3.176  0.00  0.00    -0.020 NA
ATOM     23  C   UNL     1      10.115   3.693  -3.141  0.00  0.00    +0.342 A 
BRANCH  23   6
ATOM      6  O   UNL     1      10.180   4.997  -3.331  0.00  0.00    -0.423 OA
BRANCH   6  26
ATOM     26  C   UNL     1       9.070   5.823  -3.230  0.00  0.00    +0.132 A 
ATOM     29  C   UNL     1       8.084   5.790  -4.216  0.00  0.00    +0.048 A 
ATOM     30  C   UNL     1       8.939   6.687  -2.143  0.00  0.00    +0.048 A 
ATOM     33  C   UNL     1       6.967   6.619  -4.116  0.00  0.00    +0.031 A 
ATOM     34  C   UNL     1       7.822   7.518  -2.043  0.00  0.00    +0.031 A 
ATOM     35  C   UNL     1       6.836   7.483  -3.029  0.00  0.00    +0.067 A 
BRANCH  35  14
ATOM     14  N   UNL     1       5.729   8.306  -2.929  0.00  0.00    -0.220 N 
ATOM     15  N   UNL     1       4.947   8.570  -3.986  0.00  0.00    -0.154 NA
ATOM     16  N   UNL     1       4.202   9.633  -2.102  0.00  0.00    -0.222 NA
ATOM     38  C   UNL     1       5.280   8.943  -1.813  0.00  0.00    +0.225 A 
ATOM     39  C   UNL     1       4.038   9.377  -3.434  0.00  0.00    +0.245 A 
ENDBRANCH  35  14
ENDBRANCH   6  26
ENDBRANCH  23   6
ENDBRANCH  19   8
TORSDOF 7
ENDMDL
MODEL 7
REMARK VINA RESULT:      -7.5     28.347     31.051
REMARK  Name = 11886263
REMARK  7 active torsions:
REMARK  status: ('A' for Active; 'I' for Inactive)
REMARK    1  A    between atoms: O_6  and  C_23
REMARK    2  A    between atoms: O_6  and  C_26
REMARK    3  A    between atoms: N_8  and  C_19
REMARK    4  A    between atoms: N_9  and  C_20
REMARK    5  A    between atoms: N_13  and  C_25
REMARK    6  A    between atoms: N_14  and  C_35
REMARK    7  A    between atoms: C_31  and  C_37
REMARK                            x       y       z     vdW  Elec       q    Type
REMARK                         _______ _______ _______ _____ _____    ______ ____
ROOT
ATOM      4  O   UNL     1     -10.835  -8.918  12.043  0.00  0.00    -0.370 OA
ATOM      5  O   UNL     1     -11.006 -11.308  14.080  0.00  0.00    -0.370 OA
ATOM     17  C   UNL     1     -10.584  -9.935  14.185  0.00  0.00    +0.176 C 
ATOM     18  C   UNL     1      -9.883  -9.582  12.887  0.00  0.00    +0.172 C 
ATOM     19  C   UNL     1     -11.796  -9.025  14.226  0.00  0.00    +0.171 C 
ATOM     20  C   UNL     1      -9.501 -10.920  12.293  0.00  0.00    +0.131 C 
ATOM     21  C   UNL     1     -12.071  -8.751  12.752  0.00  0.00    +0.190 C 
ATOM     22  C   UNL     1     -10.603 -11.828  12.806  0.00  0.00    +0.185 C 
ENDROOT
BRANCH  20   9
ATOM      7  O   UNL     1      -6.964  -9.765  11.630  0.00  0.00    -0.252 OA
ATOM      9  N   UNL     1      -8.207 -11.351  12.764  0.00  0.00    -0.292 N 
ATOM     13  N   UNL     1      -5.922 -11.360  13.001  0.00  0.00    -0.269 N 
ATOM     24  C   UNL     1      -7.009 -10.729  12.391  0.00  0.00    +0.304 C 
ATOM     40  H   UNL     1      -8.166 -12.099  13.451  0.00  0.00    +0.151 HD
ATOM     41  H   UNL     1      -6.133 -12.150  13.605  0.00  0.00    +0.156 HD
BRANCH  13  25
ATOM     25  C   UNL     1      -4.550 -11.036  12.880  0.00  0.00    +0.035 A 
ATOM     27  C   UNL     1      -3.775 -10.844  14.024  0.00  0.00    +0.035 A 
ATOM     28  C   UNL     1      -3.974 -10.906  11.617  0.00  0.00    +0.023 A 
ATOM     31  C   UNL     1      -2.423 -10.524  13.904  0.00  0.00    +0.057 A 
ATOM     32  C   UNL     1      -2.621 -10.587  11.496  0.00  0.00    +0.002 A 
ATOM     36  C   UNL     1      -1.846 -10.396  12.640  0.00  0.00    +0.012 A 
BRANCH  31  37
ATOM      1  F   UNL     1      -0.754  -9.245  15.044  0.00  0.00    -0.166 F 
ATOM      2  F   UNL     1      -0.785 -11.380  15.422  0.00  0.00    -0.166 F 
ATOM      3  F   UNL     1      -2.348 -10.111  16.244  0.00  0.00    -0.166 F 
ATOM     37  C   UNL     1      -1.593 -10.320  15.126  0.00  0.00    +0.417 C 
ENDBRANCH  31  37
ENDBRANCH  13  25
ENDBRANCH  20   9
BRANCH  19   8
ATOM      8  N   UNL     1     -11.575  -7.832  15.048  0.00  0.00    -0.187 N 
ATOM     10  N   UNL     1     -11.620  -6.604  14.513  0.00  0.00    -0.041 NA
ATOM     11  N   UNL     1     -11.179  -6.478  16.695  0.00  0.00    -0.071 NA
ATOM     12  N   UNL     1     -11.378  -5.779  15.526  0.00  0.00    -0.020 NA
ATOM     23  C   UNL     1     -11.307  -7.745  16.377  0.00  0.00    +0.342 A 
BRANCH  23   6
ATOM      6  O   UNL     1     -11.195  -8.779  17.191  0.00  0.00    -0.423 OA
BRANCH   6  26
ATOM     26  C   UNL     1      -9.967  -9.310  17.559  0.00  0.00    +0.132 A 
ATOM     29  C   UNL     1      -8.793  -8.808  16.998  0.00  0.00    +0.048 A 
ATOM     30  C   UNL     1      -9.906 -10.347  18.491  0.00  0.00    +0.048 A 
ATOM     33  C   UNL     1      -7.559  -9.341  17.368  0.00  0.00    +0.031 A 
ATOM     34  C   UNL     1      -8.672 -10.881  18.861  0.00  0.00    +0.031 A 
ATOM     35  C   UNL     1      -7.498 -10.378  18.299  0.00  0.00    +0.067 A 
BRANCH  35  14
ATOM     14  N   UNL     1      -6.274 -10.908  18.666  0.00  0.00    -0.220 N 
ATOM     15  N   UNL     1      -5.284 -11.081  17.778  0.00  0.00    -0.154 NA
ATOM     16  N   UNL     1      -4.663 -11.759  19.873  0.00  0.00    -0.222 NA
ATOM     38  C   UNL     1      -5.897 -11.314  19.909  0.00  0.00    +0.225 A 
ATOM     39  C   UNL     1      -4.332 -11.598  18.557  0.00  0.00    +0.245 A 
ENDBRANCH  35  14
ENDBRANCH   6  26
ENDBRANCH  23   6
ENDBRANCH  19   8
TORSDOF 7
ENDMDL
MODEL 8
REMARK VINA RESULT:      -7.4     28.505     32.801
REMARK  Name = 11886263
REMARK  7 active torsions:
REMARK  status: ('A' for Active; 'I' for Inactive)
REMARK    1  A    between atoms: O_6  and  C_23
REMARK    2  A    between atoms: O_6  and  C_26
REMARK    3  A    between atoms: N_8  and  C_19
REMARK    4  A    between atoms: N_9  and  C_20
REMARK    5  A    between atoms: N_13  and  C_25
REMARK    6  A    between atoms: N_14  and  C_35
REMARK    7  A    between atoms: C_31  and  C_37
REMARK                            x       y       z     vdW  Elec       q    Type
REMARK                         _______ _______ _______ _____ _____    ______ ____
ROOT
ATOM      4  O   UNL     1     -12.026 -11.592  16.081  0.00  0.00    -0.370 OA
ATOM      5  O   UNL     1      -9.503 -10.390  14.638  0.00  0.00    -0.370 OA
ATOM     17  C   UNL     1     -10.006 -10.329  15.986  0.00  0.00    +0.176 C 
ATOM     18  C   UNL     1     -11.519 -10.262  15.897  0.00  0.00    +0.172 C 
ATOM     19  C   UNL     1      -9.720 -11.635  16.702  0.00  0.00    +0.171 C 
ATOM     20  C   UNL     1     -11.789  -9.789  14.487  0.00  0.00    +0.131 C 
ATOM     21  C   UNL     1     -10.940 -12.486  16.364  0.00  0.00    +0.190 C 
ATOM     22  C   UNL     1     -10.607 -10.355  13.723  0.00  0.00    +0.185 C 
ENDROOT
BRANCH  20   9
ATOM      7  O   UNL     1     -13.024  -8.199  12.448  0.00  0.00    -0.252 OA
ATOM      9  N   UNL     1     -11.816  -8.349  14.415  0.00  0.00    -0.292 N 
ATOM     13  N   UNL     1     -12.308  -6.268  13.574  0.00  0.00    -0.269 N 
ATOM     24  C   UNL     1     -12.444  -7.644  13.380  0.00  0.00    +0.304 C 
ATOM     40  H   UNL     1     -11.417  -7.818  15.183  0.00  0.00    +0.151 HD
ATOM     41  H   UNL     1     -11.795  -5.972  14.400  0.00  0.00    +0.156 HD
BRANCH  13  25
ATOM     25  C   UNL     1     -12.798  -5.222  12.757  0.00  0.00    +0.035 A 
ATOM     27  C   UNL     1     -12.195  -4.955  11.528  0.00  0.00    +0.035 A 
ATOM     28  C   UNL     1     -13.886  -4.458  13.181  0.00  0.00    +0.023 A 
ATOM     31  C   UNL     1     -12.678  -3.923  10.724  0.00  0.00    +0.057 A 
ATOM     32  C   UNL     1     -14.371  -3.428  12.376  0.00  0.00    +0.002 A 
ATOM     36  C   UNL     1     -13.766  -3.160  11.148  0.00  0.00    +0.012 A 
BRANCH  31  37
ATOM      1  F   UNL     1     -10.829  -3.001   9.520  0.00  0.00    -0.166 F 
ATOM      2  F   UNL     1     -12.783  -2.839   8.594  0.00  0.00    -0.166 F 
ATOM      3  F   UNL     1     -11.786  -4.769   8.689  0.00  0.00    -0.166 F 
ATOM     37  C   UNL     1     -12.033  -3.637   9.410  0.00  0.00    +0.417 C 
ENDBRANCH  31  37
ENDBRANCH  13  25
ENDBRANCH  20   9
BRANCH  19   8
ATOM      8  N   UNL     1      -9.473 -11.448  18.134  0.00  0.00    -0.187 N 
ATOM     10  N   UNL     1     -10.269 -10.670  18.880  0.00  0.00    -0.041 NA
ATOM     11  N   UNL     1      -8.644 -11.538  20.136  0.00  0.00    -0.071 NA
ATOM     12  N   UNL     1      -9.758 -10.730  20.104  0.00  0.00    -0.020 NA
ATOM     23  C   UNL     1      -8.486 -11.973  18.908  0.00  0.00    +0.342 A 
BRANCH  23   6
ATOM      6  O   UNL     1      -7.537 -12.781  18.472  0.00  0.00    -0.423 OA
BRANCH   6  26
ATOM     26  C   UNL     1      -6.414 -12.320  17.800  0.00  0.00    +0.132 A 
ATOM     29  C   UNL     1      -6.203 -12.677  16.468  0.00  0.00    +0.048 A 
ATOM     30  C   UNL     1      -5.496 -11.499  18.456  0.00  0.00    +0.048 A 
ATOM     33  C   UNL     1      -5.075 -12.214  15.792  0.00  0.00    +0.031 A 
ATOM     34  C   UNL     1      -4.367 -11.037  17.780  0.00  0.00    +0.031 A 
ATOM     35  C   UNL     1      -4.156 -11.394  16.448  0.00  0.00    +0.067 A 
BRANCH  35  14
ATOM     14  N   UNL     1      -3.037 -10.935  15.778  0.00  0.00    -0.220 N 
ATOM     15  N   UNL     1      -1.871 -10.729  16.408  0.00  0.00    -0.154 NA
ATOM     16  N   UNL     1      -1.722 -10.231  14.180  0.00  0.00    -0.222 NA
ATOM     38  C   UNL     1      -2.940 -10.636  14.454  0.00  0.00    +0.225 A 
ATOM     39  C   UNL     1      -1.109 -10.303  15.398  0.00  0.00    +0.245 A 
ENDBRANCH  35  14
ENDBRANCH   6  26
ENDBRANCH  23   6
ENDBRANCH  19   8
TORSDOF 7
ENDMDL
MODEL 9
REMARK VINA RESULT:      -7.4      4.667      8.451
REMARK  Name = 11886263
REMARK  7 active torsions:
REMARK  status: ('A' for Active; 'I' for Inactive)
REMARK    1  A    between atoms: O_6  and  C_23
REMARK    2  A    between atoms: O_6  and  C_26
REMARK    3  A    between atoms: N_8  and  C_19
REMARK    4  A    between atoms: N_9  and  C_20
REMARK    5  A    between atoms: N_13  and  C_25
REMARK    6  A    between atoms: N_14  and  C_35
REMARK    7  A    between atoms: C_31  and  C_37
REMARK                            x       y       z     vdW  Elec       q    Type
REMARK                         _______ _______ _______ _____ _____    ______ ____
ROOT
ATOM      4  O   UNL     1      11.579  10.991  22.578  0.00  0.00    -0.370 OA
ATOM      5  O   UNL     1      14.589  11.505  21.825  0.00  0.00    -0.370 OA
ATOM     17  C   UNL     1      13.789  10.319  21.987  0.00  0.00    +0.176 C 
ATOM     18  C   UNL     1      12.834  10.577  23.137  0.00  0.00    +0.172 C 
ATOM     19  C   UNL     1      12.892  10.132  20.778  0.00  0.00    +0.171 C 
ATOM     20  C   UNL     1      13.470  11.717  23.901  0.00  0.00    +0.131 C 
ATOM     21  C   UNL     1      11.648  10.933  21.147  0.00  0.00    +0.190 C 
ATOM     22  C   UNL     1      14.197  12.475  22.806  0.00  0.00    +0.185 C 
ENDROOT
BRANCH  20   9
ATOM      7  O   UNL     1      13.599  12.517  26.649  0.00  0.00    -0.252 OA
ATOM      9  N   UNL     1      14.390  11.229  24.899  0.00  0.00    -0.292 N 
ATOM     13  N   UNL     1      15.387  11.028  26.959  0.00  0.00    -0.269 N 
ATOM     24  C   UNL     1      14.388  11.674  26.227  0.00  0.00    +0.304 C 
ATOM     40  H   UNL     1      15.029  10.481  24.644  0.00  0.00    +0.151 HD
ATOM     41  H   UNL     1      15.957  10.354  26.456  0.00  0.00    +0.156 HD
BRANCH  13  25
ATOM     25  C   UNL     1      15.708  11.197  28.326  0.00  0.00    +0.035 A 
ATOM     27  C   UNL     1      15.317  10.237  29.260  0.00  0.00    +0.035 A 
ATOM     28  C   UNL     1      16.417  12.325  28.740  0.00  0.00    +0.023 A 
ATOM     31  C   UNL     1      15.634  10.406  30.608  0.00  0.00    +0.057 A 
ATOM     32  C   UNL     1      16.735  12.493  30.088  0.00  0.00    +0.002 A 
ATOM     36  C   UNL     1      16.343  11.533  31.021  0.00  0.00    +0.012 A 
BRANCH  31  37
ATOM      1  F   UNL     1      15.506   9.722  32.896  0.00  0.00    -0.166 F 
ATOM      2  F   UNL     1      15.806   8.162  31.419  0.00  0.00    -0.166 F 
ATOM      3  F   UNL     1      13.872   9.142  31.583  0.00  0.00    -0.166 F 
ATOM     37  C   UNL     1      15.216   9.380  31.605  0.00  0.00    +0.417 C 
ENDBRANCH  31  37
ENDBRANCH  13  25
ENDBRANCH  20   9
BRANCH  19   8
ATOM      8  N   UNL     1      12.652   8.720  20.469  0.00  0.00    -0.187 N 
ATOM     10  N   UNL     1      11.557   8.089  20.916  0.00  0.00    -0.041 NA
ATOM     11  N   UNL     1      12.821   6.690  19.725  0.00  0.00    -0.071 NA
ATOM     12  N   UNL     1      11.665   6.848  20.456  0.00  0.00    -0.020 NA
ATOM     23  C   UNL     1      13.416   7.860  19.745  0.00  0.00    +0.342 A 
BRANCH  23   6
ATOM      6  O   UNL     1      14.562   8.173  19.170  0.00  0.00    -0.423 OA
BRANCH   6  26
ATOM     26  C   UNL     1      15.790   7.809  19.704  0.00  0.00    +0.132 A 
ATOM     29  C   UNL     1      16.467   8.683  20.555  0.00  0.00    +0.048 A 
ATOM     30  C   UNL     1      16.348   6.569  19.391  0.00  0.00    +0.048 A 
ATOM     33  C   UNL     1      17.701   8.318  21.092  0.00  0.00    +0.031 A 
ATOM     34  C   UNL     1      17.582   6.204  19.928  0.00  0.00    +0.031 A 
ATOM     35  C   UNL     1      18.259   7.079  20.778  0.00  0.00    +0.067 A 
BRANCH  35  14
ATOM     14  N   UNL     1      19.483   6.716  21.311  0.00  0.00    -0.220 N 
ATOM     15  N   UNL     1      19.605   6.296  22.579  0.00  0.00    -0.154 NA
ATOM     16  N   UNL     1      21.622   6.314  21.500  0.00  0.00    -0.222 NA
ATOM     38  C   UNL     1      20.687   6.725  20.677  0.00  0.00    +0.225 A 
ATOM     39  C   UNL     1      20.918   6.066  22.644  0.00  0.00    +0.245 A 
ENDBRANCH  35  14
ENDBRANCH   6  26
ENDBRANCH  23   6
ENDBRANCH  19   8
TORSDOF 7
ENDMDL
MODEL 10
REMARK VINA RESULT:      -7.4     29.218     31.794
REMARK  Name = 11886263
REMARK  7 active torsions:
REMARK  status: ('A' for Active; 'I' for Inactive)
REMARK    1  A    between atoms: O_6  and  C_23
REMARK    2  A    between atoms: O_6  and  C_26
REMARK    3  A    between atoms: N_8  and  C_19
REMARK    4  A    between atoms: N_9  and  C_20
REMARK    5  A    between atoms: N_13  and  C_25
REMARK    6  A    between atoms: N_14  and  C_35
REMARK    7  A    between atoms: C_31  and  C_37
REMARK                            x       y       z     vdW  Elec       q    Type
REMARK                         _______ _______ _______ _____ _____    ______ ____
ROOT
ATOM      4  O   UNL     1      -6.222 -11.747  10.576  0.00  0.00    -0.370 OA
ATOM      5  O   UNL     1      -4.380  -9.383  11.529  0.00  0.00    -0.370 OA
ATOM     17  C   UNL     1      -4.526 -10.759  11.929  0.00  0.00    +0.176 C 
ATOM     18  C   UNL     1      -6.002 -11.097  11.837  0.00  0.00    +0.172 C 
ATOM     19  C   UNL     1      -3.859 -11.665  10.911  0.00  0.00    +0.171 C 
ATOM     20  C   UNL     1      -6.695  -9.754  11.862  0.00  0.00    +0.131 C 
ATOM     21  C   UNL     1      -4.970 -11.918   9.898  0.00  0.00    +0.190 C 
ATOM     22  C   UNL     1      -5.670  -8.847  11.205  0.00  0.00    +0.185 C 
ENDROOT
BRANCH  20   9
ATOM      7  O   UNL     1      -9.151 -10.106  13.295  0.00  0.00    -0.252 OA
ATOM      9  N   UNL     1      -6.973  -9.334  13.214  0.00  0.00    -0.292 N 
ATOM     13  N   UNL     1      -8.182  -9.035  15.144  0.00  0.00    -0.269 N 
ATOM     24  C   UNL     1      -8.206  -9.545  13.844  0.00  0.00    +0.304 C 
ATOM     40  H   UNL     1      -6.220  -8.924  13.758  0.00  0.00    +0.151 HD
ATOM     41  H   UNL     1      -7.316  -8.597  15.447  0.00  0.00    +0.156 HD
BRANCH  13  25
ATOM     25  C   UNL     1      -9.223  -9.049  16.102  0.00  0.00    +0.035 A 
ATOM     27  C   UNL     1      -9.209  -9.986  17.136  0.00  0.00    +0.035 A 
ATOM     28  C   UNL     1     -10.265  -8.126  16.012  0.00  0.00    +0.023 A 
ATOM     31  C   UNL     1     -10.237  -9.999  18.079  0.00  0.00    +0.057 A 
ATOM     32  C   UNL     1     -11.293  -8.139  16.956  0.00  0.00    +0.002 A 
ATOM     36  C   UNL     1     -11.278  -9.076  17.988  0.00  0.00    +0.012 A 
BRANCH  31  37
ATOM      1  F   UNL     1      -9.915 -10.464  20.402  0.00  0.00    -0.166 F 
ATOM      2  F   UNL     1      -9.315 -12.005  19.000  0.00  0.00    -0.166 F 
ATOM      3  F   UNL     1     -11.426 -11.620  19.349  0.00  0.00    -0.166 F 
ATOM     37  C   UNL     1     -10.221 -11.000  19.184  0.00  0.00    +0.417 C 
ENDBRANCH  31  37
ENDBRANCH  13  25
ENDBRANCH  20   9
BRANCH  19   8
ATOM      8  N   UNL     1      -3.289 -12.869  11.520  0.00  0.00    -0.187 N 
ATOM     10  N   UNL     1      -3.403 -14.066  10.928  0.00  0.00    -0.041 NA
ATOM     11  N   UNL     1      -2.281 -14.258  12.846  0.00  0.00    -0.071 NA
ATOM     12  N   UNL     1      -2.783 -14.912  11.743  0.00  0.00    -0.020 NA
ATOM     23  C   UNL     1      -2.604 -12.996  12.687  0.00  0.00    +0.342 A 
BRANCH  23   6
ATOM      6  O   UNL     1      -2.326 -12.001  13.509  0.00  0.00    -0.423 OA
BRANCH   6  26
ATOM     26  C   UNL     1      -3.002 -11.807  14.704  0.00  0.00    +0.132 A 
ATOM     29  C   UNL     1      -2.628 -10.770  15.558  0.00  0.00    +0.048 A 
ATOM     30  C   UNL     1      -4.057 -12.650  15.054  0.00  0.00    +0.048 A 
ATOM     33  C   UNL     1      -3.307 -10.574  16.760  0.00  0.00    +0.031 A 
ATOM     34  C   UNL     1      -4.737 -12.456  16.257  0.00  0.00    +0.031 A 
ATOM     35  C   UNL     1      -4.362 -11.417  17.110  0.00  0.00    +0.067 A 
BRANCH  35  14
ATOM     14  N   UNL     1      -5.036 -11.225  18.302  0.00  0.00    -0.220 N 
ATOM     15  N   UNL     1      -6.038 -10.340  18.411  0.00  0.00    -0.154 NA
ATOM     16  N   UNL     1      -5.645 -11.417  20.391  0.00  0.00    -0.222 NA
ATOM     38  C   UNL     1      -4.808 -11.859  19.483  0.00  0.00    +0.225 A 
ATOM     39  C   UNL     1      -6.373 -10.494  19.694  0.00  0.00    +0.245 A 
ENDBRANCH  35  14
ENDBRANCH   6  26
ENDBRANCH  23   6
ENDBRANCH  19   8
TORSDOF 7
ENDMDL
