MODEL 1
REMARK VINA RESULT:      -7.2      0.000      0.000
REMARK  Name = 51137236
REMARK  3 active torsions:
REMARK  status: ('A' for Active; 'I' for Inactive)
REMARK    1  A    between atoms: N_3  and  C_6
REMARK    2  A    between atoms: C_11  and  C_14
REMARK    3  A    between atoms: C_15  and  C_16
REMARK                            x       y       z     vdW  Elec       q    Type
REMARK                         _______ _______ _______ _____ _____    ______ ____
ROOT
ATOM      2  O   UNL     1      13.523   7.921  20.361  0.00  0.00    -0.420 OA
ATOM      4  N   UNL     1      12.224   7.443  18.604  0.00  0.00    -0.112 NA
ATOM      5  N   UNL     1      13.465   6.875  18.384  0.00  0.00    -0.107 NA
ATOM     14  C   UNL     1      12.304   8.043  19.769  0.00  0.00    +0.222 A 
ATOM     15  C   UNL     1      14.191   7.180  19.435  0.00  0.00    +0.248 A 
ENDROOT
BRANCH  15  16
ATOM      1 CL   UNL     1      19.834   5.845  20.744  0.00  0.00    -0.084 Cl
ATOM     16  C   UNL     1      15.553   6.858  19.750  0.00  0.00    +0.039 A 
ATOM     17  C   UNL     1      16.327   6.137  18.842  0.00  0.00    +0.014 A 
ATOM     18  C   UNL     1      16.101   7.265  20.966  0.00  0.00    +0.014 A 
ATOM     19  C   UNL     1      17.652   5.824  19.149  0.00  0.00    +0.021 A 
ATOM     20  C   UNL     1      17.425   6.953  21.274  0.00  0.00    +0.021 A 
ATOM     21  C   UNL     1      18.201   6.232  20.365  0.00  0.00    +0.041 A 
ENDBRANCH  15  16
BRANCH  14  11
ATOM      3  N   UNL     1      10.966  10.378  22.257  0.00  0.00    -0.299 NA
ATOM     10  C   UNL     1      11.779  10.168  21.056  0.00  0.00    +0.097 C 
ATOM     11  C   UNL     1      11.254   8.827  20.522  0.00  0.00    +0.092 C 
ATOM     12  C   UNL     1      10.924   9.072  22.916  0.00  0.00    +0.085 C 
ATOM     13  C   UNL     1      10.676   8.115  21.756  0.00  0.00    +0.029 C 
BRANCH   3   6
ATOM      6  C   UNL     1      11.579  11.383  23.132  0.00  0.00    +0.057 C 
ATOM      7  C   UNL     1      10.795  12.707  23.028  0.00  0.00    +0.019 C 
ATOM      8  C   UNL     1      11.008  11.245  24.559  0.00  0.00    +0.019 C 
ATOM      9  C   UNL     1      10.867  12.781  24.569  0.00  0.00    +0.003 C 
ENDBRANCH   3   6
ENDBRANCH  14  11
TORSDOF 3
ENDMDL
MODEL 2
REMARK VINA RESULT:      -6.9      2.315      3.799
REMARK  Name = 51137236
REMARK  3 active torsions:
REMARK  status: ('A' for Active; 'I' for Inactive)
REMARK    1  A    between atoms: N_3  and  C_6
REMARK    2  A    between atoms: C_11  and  C_14
REMARK    3  A    between atoms: C_15  and  C_16
REMARK                            x       y       z     vdW  Elec       q    Type
REMARK                         _______ _______ _______ _____ _____    ______ ____
ROOT
ATOM      2  O   UNL     1      16.748   7.464  20.176  0.00  0.00    -0.420 OA
ATOM      4  N   UNL     1      15.627   6.395  18.563  0.00  0.00    -0.112 NA
ATOM      5  N   UNL     1      16.776   5.676  18.832  0.00  0.00    -0.107 NA
ATOM     14  C   UNL     1      15.653   7.430  19.370  0.00  0.00    +0.222 A 
ATOM     15  C   UNL     1      17.400   6.337  19.780  0.00  0.00    +0.248 A 
ENDROOT
BRANCH  15  16
ATOM      1 CL   UNL     1      22.530   5.183  22.553  0.00  0.00    -0.084 Cl
ATOM     16  C   UNL     1      18.638   6.058  20.448  0.00  0.00    +0.039 A 
ATOM     17  C   UNL     1      19.503   5.089  19.941  0.00  0.00    +0.014 A 
ATOM     18  C   UNL     1      18.976   6.756  21.608  0.00  0.00    +0.014 A 
ATOM     19  C   UNL     1      20.707   4.819  20.590  0.00  0.00    +0.021 A 
ATOM     20  C   UNL     1      20.179   6.486  22.259  0.00  0.00    +0.021 A 
ATOM     21  C   UNL     1      21.045   5.517  21.750  0.00  0.00    +0.041 A 
ENDBRANCH  15  16
BRANCH  14  11
ATOM      3  N   UNL     1      12.392   9.008  19.929  0.00  0.00    -0.299 NA
ATOM     10  C   UNL     1      13.496   8.205  20.463  0.00  0.00    +0.097 C 
ATOM     11  C   UNL     1      14.657   8.556  19.522  0.00  0.00    +0.092 C 
ATOM     12  C   UNL     1      12.485   8.856  18.476  0.00  0.00    +0.085 C 
ATOM     13  C   UNL     1      13.979   9.002  18.215  0.00  0.00    +0.029 C 
BRANCH   3   6
ATOM      6  C   UNL     1      11.101   8.514  20.422  0.00  0.00    +0.057 C 
ATOM      7  C   UNL     1      11.302   7.158  21.129  0.00  0.00    +0.019 C 
ATOM      8  C   UNL     1      10.816   9.112  21.815  0.00  0.00    +0.019 C 
ATOM      9  C   UNL     1      10.389   7.695  22.251  0.00  0.00    +0.003 C 
ENDBRANCH   3   6
ENDBRANCH  14  11
TORSDOF 3
ENDMDL
MODEL 3
REMARK VINA RESULT:      -6.6     26.375     27.703
REMARK  Name = 51137236
REMARK  3 active torsions:
REMARK  status: ('A' for Active; 'I' for Inactive)
REMARK    1  A    between atoms: N_3  and  C_6
REMARK    2  A    between atoms: C_11  and  C_14
REMARK    3  A    between atoms: C_15  and  C_16
REMARK                            x       y       z     vdW  Elec       q    Type
REMARK                         _______ _______ _______ _____ _____    ______ ____
ROOT
ATOM      2  O   UNL     1      -3.398 -11.145  14.796  0.00  0.00    -0.420 OA
ATOM      4  N   UNL     1      -1.218 -10.837  15.189  0.00  0.00    -0.112 NA
ATOM      5  N   UNL     1      -1.891 -10.710  16.390  0.00  0.00    -0.107 NA
ATOM     14  C   UNL     1      -2.138 -11.090  14.287  0.00  0.00    +0.222 A 
ATOM     15  C   UNL     1      -3.160 -10.898  16.113  0.00  0.00    +0.248 A 
ENDROOT
BRANCH  15  16
ATOM      1 CL   UNL     1      -7.934 -10.835  19.655  0.00  0.00    -0.084 Cl
ATOM     16  C   UNL     1      -4.312 -10.882  16.968  0.00  0.00    +0.039 A 
ATOM     17  C   UNL     1      -4.286 -11.563  18.185  0.00  0.00    +0.014 A 
ATOM     18  C   UNL     1      -5.458 -10.188  16.581  0.00  0.00    +0.014 A 
ATOM     19  C   UNL     1      -5.406 -11.548  19.017  0.00  0.00    +0.021 A 
ATOM     20  C   UNL     1      -6.578 -10.172  17.412  0.00  0.00    +0.021 A 
ATOM     21  C   UNL     1      -6.552 -10.852  18.630  0.00  0.00    +0.041 A 
ENDBRANCH  15  16
BRANCH  14  11
ATOM      3  N   UNL     1      -3.084 -11.042  10.746  0.00  0.00    -0.299 NA
ATOM     10  C   UNL     1      -2.743 -10.288  11.955  0.00  0.00    +0.097 C 
ATOM     11  C   UNL     1      -1.990 -11.324  12.801  0.00  0.00    +0.092 C 
ATOM     12  C   UNL     1      -3.537 -12.347  11.232  0.00  0.00    +0.085 C 
ATOM     13  C   UNL     1      -2.508 -12.684  12.305  0.00  0.00    +0.029 C 
BRANCH   3   6
ATOM      6  C   UNL     1      -4.148 -10.370   9.993  0.00  0.00    +0.057 C 
ATOM      7  C   UNL     1      -5.095  -9.645  10.972  0.00  0.00    +0.019 C 
ATOM      8  C   UNL     1      -3.665  -8.975   9.546  0.00  0.00    +0.019 C 
ATOM      9  C   UNL     1      -5.032  -8.435  10.015  0.00  0.00    +0.003 C 
ENDBRANCH   3   6
ENDBRANCH  14  11
TORSDOF 3
ENDMDL
MODEL 4
REMARK VINA RESULT:      -6.6     16.218     18.973
REMARK  Name = 51137236
REMARK  3 active torsions:
REMARK  status: ('A' for Active; 'I' for Inactive)
REMARK    1  A    between atoms: N_3  and  C_6
REMARK    2  A    between atoms: C_11  and  C_14
REMARK    3  A    between atoms: C_15  and  C_16
REMARK                            x       y       z     vdW  Elec       q    Type
REMARK                         _______ _______ _______ _____ _____    ______ ____
ROOT
ATOM      2  O   UNL     1      10.440   4.589   4.376  0.00  0.00    -0.420 OA
ATOM      4  N   UNL     1      11.150   6.416   3.301  0.00  0.00    -0.112 NA
ATOM      5  N   UNL     1      10.835   6.779   4.597  0.00  0.00    -0.107 NA
ATOM     14  C   UNL     1      10.903   5.130   3.217  0.00  0.00    +0.222 A 
ATOM     15  C   UNL     1      10.425   5.681   5.188  0.00  0.00    +0.248 A 
ENDROOT
BRANCH  15  16
ATOM      1 CL   UNL     1       8.553   4.764  10.755  0.00  0.00    -0.084 Cl
ATOM     16  C   UNL     1       9.973   5.460   6.531  0.00  0.00    +0.039 A 
ATOM     17  C   UNL     1       9.463   6.521   7.279  0.00  0.00    +0.014 A 
ATOM     18  C   UNL     1      10.045   4.184   7.089  0.00  0.00    +0.014 A 
ATOM     19  C   UNL     1       9.023   6.306   8.585  0.00  0.00    +0.021 A 
ATOM     20  C   UNL     1       9.606   3.968   8.395  0.00  0.00    +0.021 A 
ATOM     21  C   UNL     1       9.095   5.029   9.144  0.00  0.00    +0.041 A 
ENDBRANCH  15  16
BRANCH  14  11
ATOM      3  N   UNL     1      12.564   3.534   0.366  0.00  0.00    -0.299 NA
ATOM     10  C   UNL     1      12.517   3.762   1.813  0.00  0.00    +0.097 C 
ATOM     11  C   UNL     1      11.062   4.194   2.041  0.00  0.00    +0.092 C 
ATOM     12  C   UNL     1      11.830   4.659  -0.216  0.00  0.00    +0.085 C 
ATOM     13  C   UNL     1      10.609   4.771   0.689  0.00  0.00    +0.029 C 
BRANCH   3   6
ATOM      6  C   UNL     1      13.950   3.514  -0.115  0.00  0.00    +0.057 C 
ATOM      7  C   UNL     1      14.359   4.928  -0.574  0.00  0.00    +0.019 C 
ATOM      8  C   UNL     1      14.914   3.704   1.075  0.00  0.00    +0.019 C 
ATOM      9  C   UNL     1      15.681   4.712   0.193  0.00  0.00    +0.003 C 
ENDBRANCH   3   6
ENDBRANCH  14  11
TORSDOF 3
ENDMDL
MODEL 5
REMARK VINA RESULT:      -6.3     16.326     18.863
REMARK  Name = 51137236
REMARK  3 active torsions:
REMARK  status: ('A' for Active; 'I' for Inactive)
REMARK    1  A    between atoms: N_3  and  C_6
REMARK    2  A    between atoms: C_11  and  C_14
REMARK    3  A    between atoms: C_15  and  C_16
REMARK                            x       y       z     vdW  Elec       q    Type
REMARK                         _______ _______ _______ _____ _____    ______ ____
ROOT
ATOM      2  O   UNL     1       9.657   6.392   3.760  0.00  0.00    -0.420 OA
ATOM      4  N   UNL     1       8.396   8.066   2.979  0.00  0.00    -0.112 NA
ATOM      5  N   UNL     1       8.178   7.967   4.341  0.00  0.00    -0.107 NA
ATOM     14  C   UNL     1       9.265   7.128   2.685  0.00  0.00    +0.222 A 
ATOM     15  C   UNL     1       8.934   6.977   4.754  0.00  0.00    +0.248 A 
ENDROOT
BRANCH  15  16
ATOM      1 CL   UNL     1       9.677   4.700  10.195  0.00  0.00    -0.084 Cl
ATOM     16  C   UNL     1       9.113   6.427   6.067  0.00  0.00    +0.039 A 
ATOM     17  C   UNL     1       8.724   7.159   7.188  0.00  0.00    +0.014 A 
ATOM     18  C   UNL     1       9.678   5.161   6.222  0.00  0.00    +0.014 A 
ATOM     19  C   UNL     1       8.897   6.625   8.465  0.00  0.00    +0.021 A 
ATOM     20  C   UNL     1       9.852   4.626   7.498  0.00  0.00    +0.021 A 
ATOM     21  C   UNL     1       9.462   5.358   8.620  0.00  0.00    +0.041 A 
ENDBRANCH  15  16
BRANCH  14  11
ATOM      3  N   UNL     1      11.383   5.294   0.321  0.00  0.00    -0.299 NA
ATOM     10  C   UNL     1      10.247   5.280   1.247  0.00  0.00    +0.097 C 
ATOM     11  C   UNL     1       9.874   6.765   1.350  0.00  0.00    +0.092 C 
ATOM     12  C   UNL     1      12.204   6.428   0.751  0.00  0.00    +0.085 C 
ATOM     13  C   UNL     1      11.170   7.518   1.004  0.00  0.00    +0.029 C 
BRANCH   3   6
ATOM      6  C   UNL     1      12.141   4.041   0.405  0.00  0.00    +0.057 C 
ATOM      7  C   UNL     1      13.650   4.354   0.477  0.00  0.00    +0.019 C 
ATOM      8  C   UNL     1      12.240   3.593   1.878  0.00  0.00    +0.019 C 
ATOM      9  C   UNL     1      13.734   3.310   1.611  0.00  0.00    +0.003 C 
ENDBRANCH   3   6
ENDBRANCH  14  11
TORSDOF 3
ENDMDL
MODEL 6
REMARK VINA RESULT:      -6.3      3.228      4.940
REMARK  Name = 51137236
REMARK  3 active torsions:
REMARK  status: ('A' for Active; 'I' for Inactive)
REMARK    1  A    between atoms: N_3  and  C_6
REMARK    2  A    between atoms: C_11  and  C_14
REMARK    3  A    between atoms: C_15  and  C_16
REMARK                            x       y       z     vdW  Elec       q    Type
REMARK                         _______ _______ _______ _____ _____    ______ ____
ROOT
ATOM      2  O   UNL     1      17.133   6.473  20.698  0.00  0.00    -0.420 OA
ATOM      4  N   UNL     1      16.452   5.831  18.666  0.00  0.00    -0.112 NA
ATOM      5  N   UNL     1      17.799   5.540  18.777  0.00  0.00    -0.107 NA
ATOM     14  C   UNL     1      16.107   6.375  19.810  0.00  0.00    +0.222 A 
ATOM     15  C   UNL     1      18.154   5.931  19.979  0.00  0.00    +0.248 A 
ENDROOT
BRANCH  15  16
ATOM      1 CL   UNL     1      23.431   5.704  22.706  0.00  0.00    -0.084 Cl
ATOM     16  C   UNL     1      19.427   5.877  20.637  0.00  0.00    +0.039 A 
ATOM     17  C   UNL     1      19.756   6.831  21.599  0.00  0.00    +0.014 A 
ATOM     18  C   UNL     1      20.336   4.869  20.314  0.00  0.00    +0.014 A 
ATOM     19  C   UNL     1      20.994   6.778  22.240  0.00  0.00    +0.021 A 
ATOM     20  C   UNL     1      21.574   4.815  20.953  0.00  0.00    +0.021 A 
ATOM     21  C   UNL     1      21.904   5.770  21.917  0.00  0.00    +0.041 A 
ENDBRANCH  15  16
BRANCH  14  11
ATOM      3  N   UNL     1      13.070   8.425  19.728  0.00  0.00    -0.299 NA
ATOM     10  C   UNL     1      13.887   7.384  19.100  0.00  0.00    +0.097 C 
ATOM     11  C   UNL     1      14.760   6.890  20.263  0.00  0.00    +0.092 C 
ATOM     12  C   UNL     1      14.001   9.177  20.571  0.00  0.00    +0.085 C 
ATOM     13  C   UNL     1      14.817   8.077  21.239  0.00  0.00    +0.029 C 
BRANCH   3   6
ATOM      6  C   UNL     1      12.466   9.297  18.714  0.00  0.00    +0.057 C 
ATOM      7  C   UNL     1      13.463   9.514  17.558  0.00  0.00    +0.019 C 
ATOM      8  C   UNL     1      11.629   8.450  17.734  0.00  0.00    +0.019 C 
ATOM      9  C   UNL     1      12.284   9.260  16.595  0.00  0.00    +0.003 C 
ENDBRANCH   3   6
ENDBRANCH  14  11
TORSDOF 3
ENDMDL
MODEL 7
REMARK VINA RESULT:      -6.2      3.968      7.056
REMARK  Name = 51137236
REMARK  3 active torsions:
REMARK  status: ('A' for Active; 'I' for Inactive)
REMARK    1  A    between atoms: N_3  and  C_6
REMARK    2  A    between atoms: C_11  and  C_14
REMARK    3  A    between atoms: C_15  and  C_16
REMARK                            x       y       z     vdW  Elec       q    Type
REMARK                         _______ _______ _______ _____ _____    ______ ____
ROOT
ATOM      2  O   UNL     1      11.848   9.443  20.121  0.00  0.00    -0.420 OA
ATOM      4  N   UNL     1      11.271   7.309  20.463  0.00  0.00    -0.112 NA
ATOM      5  N   UNL     1      10.946   8.028  21.599  0.00  0.00    -0.107 NA
ATOM     14  C   UNL     1      11.795   8.176  19.628  0.00  0.00    +0.222 A 
ATOM     15  C   UNL     1      11.301   9.268  21.354  0.00  0.00    +0.248 A 
ENDROOT
BRANCH  15  16
ATOM      1 CL   UNL     1      10.891  14.136  24.740  0.00  0.00    -0.084 Cl
ATOM     16  C   UNL     1      11.202  10.443  22.171  0.00  0.00    +0.039 A 
ATOM     17  C   UNL     1      11.294  11.706  21.589  0.00  0.00    +0.014 A 
ATOM     18  C   UNL     1      11.014  10.321  23.547  0.00  0.00    +0.014 A 
ATOM     19  C   UNL     1      11.197  12.849  22.382  0.00  0.00    +0.021 A 
ATOM     20  C   UNL     1      10.918  11.463  24.343  0.00  0.00    +0.021 A 
ATOM     21  C   UNL     1      11.009  12.727  23.760  0.00  0.00    +0.041 A 
ENDBRANCH  15  16
BRANCH  14  11
ATOM      3  N   UNL     1      13.617   8.968  16.548  0.00  0.00    -0.299 NA
ATOM     10  C   UNL     1      13.663   8.684  17.985  0.00  0.00    +0.097 C 
ATOM     11  C   UNL     1      12.330   7.963  18.231  0.00  0.00    +0.092 C 
ATOM     12  C   UNL     1      12.252   9.436  16.301  0.00  0.00    +0.085 C 
ATOM     13  C   UNL     1      11.407   8.454  17.102  0.00  0.00    +0.029 C 
BRANCH   3   6
ATOM      6  C   UNL     1      14.594  10.002  16.189  0.00  0.00    +0.057 C 
ATOM      7  C   UNL     1      13.918  11.067  15.302  0.00  0.00    +0.019 C 
ATOM      8  C   UNL     1      14.649  11.071  17.300  0.00  0.00    +0.019 C 
ATOM      9  C   UNL     1      14.617  12.129  16.177  0.00  0.00    +0.003 C 
ENDBRANCH   3   6
ENDBRANCH  14  11
TORSDOF 3
ENDMDL
MODEL 8
REMARK VINA RESULT:      -6.2     27.954     30.053
REMARK  Name = 51137236
REMARK  3 active torsions:
REMARK  status: ('A' for Active; 'I' for Inactive)
REMARK    1  A    between atoms: N_3  and  C_6
REMARK    2  A    between atoms: C_11  and  C_14
REMARK    3  A    between atoms: C_15  and  C_16
REMARK                            x       y       z     vdW  Elec       q    Type
REMARK                         _______ _______ _______ _____ _____    ______ ____
ROOT
ATOM      2  O   UNL     1     -15.874   4.059  24.996  0.00  0.00    -0.420 OA
ATOM      4  N   UNL     1     -16.702   2.146  24.185  0.00  0.00    -0.112 NA
ATOM      5  N   UNL     1     -16.171   2.863  23.129  0.00  0.00    -0.107 NA
ATOM     14  C   UNL     1     -16.507   2.883  25.254  0.00  0.00    +0.222 A 
ATOM     15  C   UNL     1     -15.699   3.972  23.649  0.00  0.00    +0.248 A 
ENDROOT
BRANCH  15  16
ATOM      1 CL   UNL     1     -12.966   8.581  21.074  0.00  0.00    -0.084 Cl
ATOM     16  C   UNL     1     -15.040   5.084  23.028  0.00  0.00    +0.039 A 
ATOM     17  C   UNL     1     -15.536   6.376  23.204  0.00  0.00    +0.014 A 
ATOM     18  C   UNL     1     -13.903   4.874  22.248  0.00  0.00    +0.014 A 
ATOM     19  C   UNL     1     -14.894   7.458  22.600  0.00  0.00    +0.021 A 
ATOM     20  C   UNL     1     -13.261   5.954  21.644  0.00  0.00    +0.021 A 
ATOM     21  C   UNL     1     -13.757   7.247  21.820  0.00  0.00    +0.041 A 
ENDBRANCH  15  16
BRANCH  14  11
ATOM      3  N   UNL     1     -15.978   2.381  28.846  0.00  0.00    -0.299 NA
ATOM     10  C   UNL     1     -15.934   3.286  27.695  0.00  0.00    +0.097 C 
ATOM     11  C   UNL     1     -16.879   2.607  26.693  0.00  0.00    +0.092 C 
ATOM     12  C   UNL     1     -15.906   1.037  28.270  0.00  0.00    +0.085 C 
ATOM     13  C   UNL     1     -16.867   1.122  27.091  0.00  0.00    +0.029 C 
BRANCH   3   6
ATOM      6  C   UNL     1     -14.843   2.623  29.744  0.00  0.00    +0.057 C 
ATOM      7  C   UNL     1     -15.309   2.507  31.209  0.00  0.00    +0.019 C 
ATOM      8  C   UNL     1     -14.067   1.308  29.965  0.00  0.00    +0.019 C 
ATOM      9  C   UNL     1     -14.039   1.667  31.466  0.00  0.00    +0.003 C 
ENDBRANCH   3   6
ENDBRANCH  14  11
TORSDOF 3
ENDMDL
MODEL 9
REMARK VINA RESULT:      -6.1     26.950     29.349
REMARK  Name = 51137236
REMARK  3 active torsions:
REMARK  status: ('A' for Active; 'I' for Inactive)
REMARK    1  A    between atoms: N_3  and  C_6
REMARK    2  A    between atoms: C_11  and  C_14
REMARK    3  A    between atoms: C_15  and  C_16
REMARK                            x       y       z     vdW  Elec       q    Type
REMARK                         _______ _______ _______ _____ _____    ______ ____
ROOT
ATOM      2  O   UNL     1      -7.903  -9.997  18.164  0.00  0.00    -0.420 OA
ATOM      4  N   UNL     1      -8.226 -11.476  19.810  0.00  0.00    -0.112 NA
ATOM      5  N   UNL     1      -9.449 -10.915  19.494  0.00  0.00    -0.107 NA
ATOM     14  C   UNL     1      -7.353 -10.910  19.010  0.00  0.00    +0.222 A 
ATOM     15  C   UNL     1      -9.213 -10.057  18.529  0.00  0.00    +0.248 A 
ENDROOT
BRANCH  15  16
ATOM      1 CL   UNL     1     -12.909  -6.469  15.563  0.00  0.00    -0.084 Cl
ATOM     16  C   UNL     1     -10.105  -9.191  17.814  0.00  0.00    +0.039 A 
ATOM     17  C   UNL     1     -11.467  -9.486  17.757  0.00  0.00    +0.014 A 
ATOM     18  C   UNL     1      -9.610  -8.055  17.173  0.00  0.00    +0.014 A 
ATOM     19  C   UNL     1     -12.335  -8.644  17.062  0.00  0.00    +0.021 A 
ATOM     20  C   UNL     1     -10.477  -7.213  16.477  0.00  0.00    +0.021 A 
ATOM     21  C   UNL     1     -11.840  -7.507  16.421  0.00  0.00    +0.041 A 
ENDBRANCH  15  16
BRANCH  14  11
ATOM      3  N   UNL     1      -4.080 -11.144  17.378  0.00  0.00    -0.299 NA
ATOM     10  C   UNL     1      -5.216 -10.310  17.776  0.00  0.00    +0.097 C 
ATOM     11  C   UNL     1      -5.862 -11.131  18.902  0.00  0.00    +0.092 C 
ATOM     12  C   UNL     1      -4.610 -12.509  17.341  0.00  0.00    +0.085 C 
ATOM     13  C   UNL     1      -5.442 -12.583  18.615  0.00  0.00    +0.029 C 
BRANCH   3   6
ATOM      6  C   UNL     1      -3.577 -10.746  16.058  0.00  0.00    +0.057 C 
ATOM      7  C   UNL     1      -2.040 -10.632  16.103  0.00  0.00    +0.019 C 
ATOM      8  C   UNL     1      -3.384 -11.999  15.178  0.00  0.00    +0.019 C 
ATOM      9  C   UNL     1      -2.021 -11.404  14.766  0.00  0.00    +0.003 C 
ENDBRANCH   3   6
ENDBRANCH  14  11
TORSDOF 3
ENDMDL
MODEL 10
REMARK VINA RESULT:      -6.1     27.706     29.906
REMARK  Name = 51137236
REMARK  3 active torsions:
REMARK  status: ('A' for Active; 'I' for Inactive)
REMARK    1  A    between atoms: N_3  and  C_6
REMARK    2  A    between atoms: C_11  and  C_14
REMARK    3  A    between atoms: C_15  and  C_16
REMARK                            x       y       z     vdW  Elec       q    Type
REMARK                         _______ _______ _______ _____ _____    ______ ____
ROOT
ATOM      2  O   UNL     1     -14.016   5.449  32.875  0.00  0.00    -0.420 OA
ATOM      4  N   UNL     1     -14.240   5.648  35.092  0.00  0.00    -0.112 NA
ATOM      5  N   UNL     1     -14.327   4.306  34.772  0.00  0.00    -0.107 NA
ATOM     14  C   UNL     1     -14.059   6.277  33.954  0.00  0.00    +0.222 A 
ATOM     15  C   UNL     1     -14.192   4.236  33.469  0.00  0.00    +0.248 A 
ENDROOT
BRANCH  15  16
ATOM      1 CL   UNL     1     -14.220  -0.465  29.831  0.00  0.00    -0.084 Cl
ATOM     16  C   UNL     1     -14.199   3.102  32.591  0.00  0.00    +0.039 A 
ATOM     17  C   UNL     1     -14.773   1.902  33.008  0.00  0.00    +0.014 A 
ATOM     18  C   UNL     1     -13.630   3.200  31.321  0.00  0.00    +0.014 A 
ATOM     19  C   UNL     1     -14.781   0.798  32.154  0.00  0.00    +0.021 A 
ATOM     20  C   UNL     1     -13.636   2.097  30.467  0.00  0.00    +0.021 A 
ATOM     21  C   UNL     1     -14.212   0.896  30.883  0.00  0.00    +0.041 A 
ENDBRANCH  15  16
BRANCH  14  11
ATOM      3  N   UNL     1     -12.705   9.299  32.383  0.00  0.00    -0.299 NA
ATOM     10  C   UNL     1     -13.473   8.059  32.242  0.00  0.00    +0.097 C 
ATOM     11  C   UNL     1     -13.894   7.755  33.687  0.00  0.00    +0.092 C 
ATOM     12  C   UNL     1     -11.869   9.092  33.567  0.00  0.00    +0.085 C 
ATOM     13  C   UNL     1     -12.837   8.456  34.557  0.00  0.00    +0.029 C 
BRANCH   3   6
ATOM      6  C   UNL     1     -11.875   9.536  31.196  0.00  0.00    +0.057 C 
ATOM      7  C   UNL     1     -12.698  10.291  30.132  0.00  0.00    +0.019 C 
ATOM      8  C   UNL     1     -11.064  10.836  31.382  0.00  0.00    +0.019 C 
ATOM      9  C   UNL     1     -11.467  11.203  29.939  0.00  0.00    +0.003 C 
ENDBRANCH   3   6
ENDBRANCH  14  11
TORSDOF 3
ENDMDL
