MODEL 1
REMARK VINA RESULT:      -6.2      0.000      0.000
REMARK  Name = 71693208
REMARK  18 active torsions:
REMARK  status: ('A' for Active; 'I' for Inactive)
REMARK    1  A    between atoms: O_2  and  C_32
REMARK    2  A    between atoms: O_4  and  C_35
REMARK    3  A    between atoms: O_4  and  C_36
REMARK    4  A    between atoms: N_6  and  C_16
REMARK    5  A    between atoms: C_9  and  C_13
REMARK    6  A    between atoms: C_10  and  C_16
REMARK    7  A    between atoms: C_12  and  C_17
REMARK    8  A    between atoms: C_13  and  C_18
REMARK    9  A    between atoms: C_13  and  C_19
REMARK   10  A    between atoms: C_14  and  C_20
REMARK   11  A    between atoms: C_17  and  C_21
REMARK   12  A    between atoms: C_22  and  C_24
REMARK   13  A    between atoms: C_23  and  C_24
REMARK   14  A    between atoms: C_23  and  C_27
REMARK   15  A    between atoms: C_23  and  C_28
REMARK   16  A    between atoms: C_23  and  C_29
REMARK   17  A    between atoms: C_27  and  C_32
REMARK   18  A    between atoms: C_33  and  C_35
REMARK                            x       y       z     vdW  Elec       q    Type
REMARK                         _______ _______ _______ _____ _____    ______ ____
ROOT
ATOM      9  C   UNL     1       8.620   8.567   5.133  0.00  0.00    +0.000 C 
ATOM     10  C   UNL     1       8.398   7.738   6.422  0.00  0.00    +0.032 C 
ATOM     11  C   UNL     1       8.358   7.705   3.889  0.00  0.00    +0.012 C 
ATOM     12  C   UNL     1       9.273   6.467   3.835  0.00  0.00    +0.022 C 
ATOM     14  C   UNL     1       9.317   5.741   5.166  0.00  0.00    -0.073 C 
ATOM     15  C   UNL     1       8.909   6.321   6.309  0.00  0.00    -0.022 C 
ATOM     20  C   UNL     1       9.798   4.317   5.145  0.00  0.00    +0.039 C 
ENDROOT
BRANCH   9  13
ATOM     13  C   UNL     1       7.727   9.812   5.097  0.00  0.00    -0.013 C 
ATOM     18  C   UNL     1       8.579  11.073   4.983  0.00  0.00    +0.007 C 
ATOM     19  C   UNL     1       6.736   9.723   3.942  0.00  0.00    +0.007 C 
ENDBRANCH   9  13
BRANCH  10  16
ATOM     16  C   UNL     1       9.043   8.418   7.635  0.00  0.00    +0.112 C 
BRANCH  16   6
ATOM      1  O   UNL     1      10.664  10.795   7.660  0.00  0.00    -0.276 OA
ATOM      6  N   UNL     1      10.462   8.489   7.483  0.00  0.00    -0.315 N 
ATOM     22  C   UNL     1      11.172   9.687   7.508  0.00  0.00    +0.214 C 
ATOM     37  H   UNL     1      10.970   7.617   7.359  0.00  0.00    +0.149 HD
BRANCH  22  24
ATOM     24  C   UNL     1      12.672   9.511   7.330  0.00  0.00    +0.102 C 
BRANCH  24  23
ATOM     23  C   UNL     1      13.148   9.438   5.857  0.00  0.00    -0.017 C 
ATOM     28  C   UNL     1      14.496  10.183   5.755  0.00  0.00    +0.012 C 
ATOM     29  C   UNL     1      12.148  10.164   4.931  0.00  0.00    +0.012 C 
BRANCH  23  27
ATOM     27  C   UNL     1      13.302   7.986   5.346  0.00  0.00    +0.127 C 
BRANCH  27  32
ATOM      3  O   UNL     1      14.666   6.812   6.966  0.00  0.00    -0.251 OA
ATOM     32  C   UNL     1      13.580   6.959   6.421  0.00  0.00    +0.305 C 
BRANCH  32   2
ATOM      2  O   UNL     1      12.494   6.204   6.721  0.00  0.00    -0.481 OA
ATOM     39  H   UNL     1      12.694   5.244   6.682  0.00  0.00    +0.295 HD
ENDBRANCH  32   2
ENDBRANCH  27  32
ENDBRANCH  23  27
ENDBRANCH  24  23
ENDBRANCH  22  24
ENDBRANCH  16   6
ENDBRANCH  10  16
BRANCH  12  17
ATOM     17  C   UNL     1      10.685   6.842   3.370  0.00  0.00    +0.082 C 
BRANCH  17  21
ATOM      7  N   UNL     1      10.389   5.620   1.206  0.00  0.00    -0.342 N 
ATOM      8  N   UNL     1      12.333   5.310   2.239  0.00  0.00    -0.232 NA
ATOM     21  C   UNL     1      11.169   5.918   2.288  0.00  0.00    +0.109 A 
ATOM     25  C   UNL     1      11.096   4.762   0.404  0.00  0.00    +0.067 A 
ATOM     26  C   UNL     1      12.305   4.584   1.070  0.00  0.00    +0.089 A 
ATOM     30  C   UNL     1      10.791   4.145  -0.810  0.00  0.00    +0.042 A 
ATOM     31  C   UNL     1      13.281   3.744   0.505  0.00  0.00    +0.030 A 
ATOM     33  C   UNL     1      11.773   3.312  -1.357  0.00  0.00    +0.061 A 
ATOM     34  C   UNL     1      12.997   3.114  -0.713  0.00  0.00    +0.017 A 
ATOM     38  H   UNL     1       9.455   5.966   1.028  0.00  0.00    +0.167 HD
BRANCH  33  35
ATOM      5  O   UNL     1      12.352   2.489  -3.518  0.00  0.00    -0.245 OA
ATOM     35  C   UNL     1      11.513   2.640  -2.622  0.00  0.00    +0.339 C 
BRANCH  35   4
ATOM      4  O   UNL     1      10.221   2.196  -2.697  0.00  0.00    -0.464 OA
ATOM     36  C   UNL     1       9.520   2.453  -3.919  0.00  0.00    +0.280 C 
ENDBRANCH  35   4
ENDBRANCH  33  35
ENDBRANCH  17  21
ENDBRANCH  12  17
TORSDOF 12
ENDMDL
MODEL 2
REMARK VINA RESULT:      -6.0     27.370     29.877
REMARK  Name = 71693208
REMARK  18 active torsions:
REMARK  status: ('A' for Active; 'I' for Inactive)
REMARK    1  A    between atoms: O_2  and  C_32
REMARK    2  A    between atoms: O_4  and  C_35
REMARK    3  A    between atoms: O_4  and  C_36
REMARK    4  A    between atoms: N_6  and  C_16
REMARK    5  A    between atoms: C_9  and  C_13
REMARK    6  A    between atoms: C_10  and  C_16
REMARK    7  A    between atoms: C_12  and  C_17
REMARK    8  A    between atoms: C_13  and  C_18
REMARK    9  A    between atoms: C_13  and  C_19
REMARK   10  A    between atoms: C_14  and  C_20
REMARK   11  A    between atoms: C_17  and  C_21
REMARK   12  A    between atoms: C_22  and  C_24
REMARK   13  A    between atoms: C_23  and  C_24
REMARK   14  A    between atoms: C_23  and  C_27
REMARK   15  A    between atoms: C_23  and  C_28
REMARK   16  A    between atoms: C_23  and  C_29
REMARK   17  A    between atoms: C_27  and  C_32
REMARK   18  A    between atoms: C_33  and  C_35
REMARK                            x       y       z     vdW  Elec       q    Type
REMARK                         _______ _______ _______ _____ _____    ______ ____
ROOT
ATOM      9  C   UNL     1     -11.890  -9.977  19.057  0.00  0.00    +0.000 C 
ATOM     10  C   UNL     1     -10.707 -10.945  18.809  0.00  0.00    +0.032 C 
ATOM     11  C   UNL     1     -12.687  -9.762  17.762  0.00  0.00    +0.012 C 
ATOM     12  C   UNL     1     -11.816  -9.187  16.629  0.00  0.00    +0.022 C 
ATOM     14  C   UNL     1     -10.500  -9.930  16.499  0.00  0.00    -0.073 C 
ATOM     15  C   UNL     1     -10.028 -10.721  17.479  0.00  0.00    -0.022 C 
ATOM     20  C   UNL     1      -9.762  -9.776  15.199  0.00  0.00    +0.039 C 
ENDROOT
BRANCH   9  13
ATOM     13  C   UNL     1     -12.822 -10.488  20.161  0.00  0.00    -0.013 C 
ATOM     18  C   UNL     1     -13.950  -9.491  20.408  0.00  0.00    +0.007 C 
ATOM     19  C   UNL     1     -13.381 -11.858  19.792  0.00  0.00    +0.007 C 
ENDBRANCH   9  13
BRANCH  10  16
ATOM     16  C   UNL     1      -9.670 -10.851  19.935  0.00  0.00    +0.112 C 
BRANCH  16   6
ATOM      1  O   UNL     1      -7.088 -12.083  20.243  0.00  0.00    -0.276 OA
ATOM      6  N   UNL     1      -8.423 -10.363  19.437  0.00  0.00    -0.315 N 
ATOM     22  C   UNL     1      -7.213 -11.025  19.632  0.00  0.00    +0.214 C 
ATOM     37  H   UNL     1      -8.431  -9.494  18.910  0.00  0.00    +0.149 HD
BRANCH  22  24
ATOM     24  C   UNL     1      -6.022 -10.315  19.006  0.00  0.00    +0.102 C 
BRANCH  24  23
ATOM     23  C   UNL     1      -5.552 -10.905  17.652  0.00  0.00    -0.017 C 
ATOM     28  C   UNL     1      -5.629  -9.785  16.593  0.00  0.00    +0.012 C 
ATOM     29  C   UNL     1      -6.502 -12.035  17.199  0.00  0.00    +0.012 C 
BRANCH  23  27
ATOM     27  C   UNL     1      -4.118 -11.482  17.713  0.00  0.00    +0.127 C 
BRANCH  27  32
ATOM      3  O   UNL     1      -3.393 -12.108  19.937  0.00  0.00    -0.251 OA
ATOM     32  C   UNL     1      -3.866 -12.439  18.857  0.00  0.00    +0.305 C 
BRANCH  32   2
ATOM      2  O   UNL     1      -4.212 -13.717  18.562  0.00  0.00    -0.481 OA
ATOM     39  H   UNL     1      -4.356 -13.844  17.600  0.00  0.00    +0.295 HD
ENDBRANCH  32   2
ENDBRANCH  27  32
ENDBRANCH  23  27
ENDBRANCH  24  23
ENDBRANCH  22  24
ENDBRANCH  16   6
ENDBRANCH  10  16
BRANCH  12  17
ATOM     17  C   UNL     1     -11.580  -7.685  16.821  0.00  0.00    +0.082 C 
BRANCH  17  21
ATOM      7  N   UNL     1     -11.538  -6.148  14.847  0.00  0.00    -0.342 N 
ATOM      8  N   UNL     1     -13.552  -6.783  15.541  0.00  0.00    -0.232 NA
ATOM     21  C   UNL     1     -12.258  -6.883  15.747  0.00  0.00    +0.109 A 
ATOM     25  C   UNL     1     -12.426  -5.533  14.002  0.00  0.00    +0.067 A 
ATOM     26  C   UNL     1     -13.676  -5.945  14.456  0.00  0.00    +0.089 A 
ATOM     30  C   UNL     1     -12.249  -4.678  12.914  0.00  0.00    +0.042 A 
ATOM     31  C   UNL     1     -14.829  -5.486  13.795  0.00  0.00    +0.030 A 
ATOM     33  C   UNL     1     -13.407  -4.232  12.269  0.00  0.00    +0.061 A 
ATOM     34  C   UNL     1     -14.675  -4.627  12.700  0.00  0.00    +0.017 A 
ATOM     38  H   UNL     1     -10.530  -6.068  14.810  0.00  0.00    +0.167 HD
BRANCH  33  35
ATOM      5  O   UNL     1     -14.229  -2.713  10.625  0.00  0.00    -0.245 OA
ATOM     35  C   UNL     1     -13.285  -3.337  11.127  0.00  0.00    +0.339 C 
BRANCH  35   4
ATOM      4  O   UNL     1     -11.995  -3.271  10.677  0.00  0.00    -0.464 OA
ATOM     36  C   UNL     1     -11.668  -4.075   9.538  0.00  0.00    +0.280 C 
ENDBRANCH  35   4
ENDBRANCH  33  35
ENDBRANCH  17  21
ENDBRANCH  12  17
TORSDOF 12
ENDMDL
MODEL 3
REMARK VINA RESULT:      -5.9      1.722      2.359
REMARK  Name = 71693208
REMARK  18 active torsions:
REMARK  status: ('A' for Active; 'I' for Inactive)
REMARK    1  A    between atoms: O_2  and  C_32
REMARK    2  A    between atoms: O_4  and  C_35
REMARK    3  A    between atoms: O_4  and  C_36
REMARK    4  A    between atoms: N_6  and  C_16
REMARK    5  A    between atoms: C_9  and  C_13
REMARK    6  A    between atoms: C_10  and  C_16
REMARK    7  A    between atoms: C_12  and  C_17
REMARK    8  A    between atoms: C_13  and  C_18
REMARK    9  A    between atoms: C_13  and  C_19
REMARK   10  A    between atoms: C_14  and  C_20
REMARK   11  A    between atoms: C_17  and  C_21
REMARK   12  A    between atoms: C_22  and  C_24
REMARK   13  A    between atoms: C_23  and  C_24
REMARK   14  A    between atoms: C_23  and  C_27
REMARK   15  A    between atoms: C_23  and  C_28
REMARK   16  A    between atoms: C_23  and  C_29
REMARK   17  A    between atoms: C_27  and  C_32
REMARK   18  A    between atoms: C_33  and  C_35
REMARK                            x       y       z     vdW  Elec       q    Type
REMARK                         _______ _______ _______ _____ _____    ______ ____
ROOT
ATOM      9  C   UNL     1       9.097   8.395   5.816  0.00  0.00    +0.000 C 
ATOM     10  C   UNL     1       8.708   8.466   7.313  0.00  0.00    +0.032 C 
ATOM     11  C   UNL     1       8.777   7.006   5.244  0.00  0.00    +0.012 C 
ATOM     12  C   UNL     1       9.518   5.883   5.994  0.00  0.00    +0.022 C 
ATOM     14  C   UNL     1       9.403   6.039   7.497  0.00  0.00    -0.073 C 
ATOM     15  C   UNL     1       9.027   7.197   8.068  0.00  0.00    -0.022 C 
ATOM     20  C   UNL     1       9.688   4.819   8.328  0.00  0.00    +0.039 C 
ENDROOT
BRANCH   9  13
ATOM     13  C   UNL     1       8.383   9.472   4.991  0.00  0.00    -0.013 C 
ATOM     18  C   UNL     1       9.401  10.404   4.340  0.00  0.00    +0.007 C 
ATOM     19  C   UNL     1       7.487   8.828   3.938  0.00  0.00    +0.007 C 
ENDBRANCH   9  13
BRANCH  10  16
ATOM     16  C   UNL     1       9.384   9.656   8.005  0.00  0.00    +0.112 C 
BRANCH  16   6
ATOM      1  O   UNL     1      11.213  11.618   6.963  0.00  0.00    -0.276 OA
ATOM      6  N   UNL     1      10.807   9.546   7.929  0.00  0.00    -0.315 N 
ATOM     22  C   UNL     1      11.621  10.548   7.408  0.00  0.00    +0.214 C 
ATOM     37  H   UNL     1      11.236   8.695   8.282  0.00  0.00    +0.149 HD
BRANCH  22  24
ATOM     24  C   UNL     1      13.103  10.205   7.437  0.00  0.00    +0.102 C 
BRANCH  24  23
ATOM     23  C   UNL     1      13.692   9.751   6.077  0.00  0.00    -0.017 C 
ATOM     28  C   UNL     1      14.157  11.010   5.316  0.00  0.00    +0.012 C 
ATOM     29  C   UNL     1      12.603   9.068   5.221  0.00  0.00    +0.012 C 
BRANCH  23  27
ATOM     27  C   UNL     1      14.868   8.758   6.233  0.00  0.00    +0.127 C 
BRANCH  27  32
ATOM      3  O   UNL     1      13.993   6.695   7.149  0.00  0.00    -0.251 OA
ATOM     32  C   UNL     1      14.477   7.297   6.199  0.00  0.00    +0.305 C 
BRANCH  32   2
ATOM      2  O   UNL     1      14.725   6.713   5.001  0.00  0.00    -0.481 OA
ATOM     39  H   UNL     1      14.920   5.756   5.094  0.00  0.00    +0.295 HD
ENDBRANCH  32   2
ENDBRANCH  27  32
ENDBRANCH  23  27
ENDBRANCH  24  23
ENDBRANCH  22  24
ENDBRANCH  16   6
ENDBRANCH  10  16
BRANCH  12  17
ATOM     17  C   UNL     1      10.986   5.804   5.561  0.00  0.00    +0.082 C 
BRANCH  17  21
ATOM      7  N   UNL     1      12.218   5.804   3.384  0.00  0.00    -0.342 N 
ATOM      8  N   UNL     1      10.231   4.806   3.376  0.00  0.00    -0.232 NA
ATOM     21  C   UNL     1      11.112   5.454   4.106  0.00  0.00    +0.109 A 
ATOM     25  C   UNL     1      12.041   5.352   2.101  0.00  0.00    +0.067 A 
ATOM     26  C   UNL     1      10.794   4.733   2.122  0.00  0.00    +0.089 A 
ATOM     30  C   UNL     1      12.839   5.429   0.960  0.00  0.00    +0.042 A 
ATOM     31  C   UNL     1      10.299   4.150   0.942  0.00  0.00    +0.030 A 
ATOM     33  C   UNL     1      12.331   4.844  -0.205  0.00  0.00    +0.061 A 
ATOM     34  C   UNL     1      11.084   4.215  -0.216  0.00  0.00    +0.017 A 
ATOM     38  H   UNL     1      13.024   6.309   3.729  0.00  0.00    +0.167 HD
BRANCH  33  35
ATOM      5  O   UNL     1      12.913   5.679  -2.360  0.00  0.00    -0.245 OA
ATOM     35  C   UNL     1      13.119   4.892  -1.428  0.00  0.00    +0.339 C 
BRANCH  35   4
ATOM      4  O   UNL     1      14.118   3.958  -1.419  0.00  0.00    -0.464 OA
ATOM     36  C   UNL     1      15.462   4.449  -1.465  0.00  0.00    +0.280 C 
ENDBRANCH  35   4
ENDBRANCH  33  35
ENDBRANCH  17  21
ENDBRANCH  12  17
TORSDOF 12
ENDMDL
MODEL 4
REMARK VINA RESULT:      -5.8     15.847     20.159
REMARK  Name = 71693208
REMARK  18 active torsions:
REMARK  status: ('A' for Active; 'I' for Inactive)
REMARK    1  A    between atoms: O_2  and  C_32
REMARK    2  A    between atoms: O_4  and  C_35
REMARK    3  A    between atoms: O_4  and  C_36
REMARK    4  A    between atoms: N_6  and  C_16
REMARK    5  A    between atoms: C_9  and  C_13
REMARK    6  A    between atoms: C_10  and  C_16
REMARK    7  A    between atoms: C_12  and  C_17
REMARK    8  A    between atoms: C_13  and  C_18
REMARK    9  A    between atoms: C_13  and  C_19
REMARK   10  A    between atoms: C_14  and  C_20
REMARK   11  A    between atoms: C_17  and  C_21
REMARK   12  A    between atoms: C_22  and  C_24
REMARK   13  A    between atoms: C_23  and  C_24
REMARK   14  A    between atoms: C_23  and  C_27
REMARK   15  A    between atoms: C_23  and  C_28
REMARK   16  A    between atoms: C_23  and  C_29
REMARK   17  A    between atoms: C_27  and  C_32
REMARK   18  A    between atoms: C_33  and  C_35
REMARK                            x       y       z     vdW  Elec       q    Type
REMARK                         _______ _______ _______ _____ _____    ______ ____
ROOT
ATOM      9  C   UNL     1      18.088  10.059  21.981  0.00  0.00    +0.000 C 
ATOM     10  C   UNL     1      16.810   9.730  21.171  0.00  0.00    +0.032 C 
ATOM     11  C   UNL     1      19.325   9.455  21.299  0.00  0.00    +0.012 C 
ATOM     12  C   UNL     1      19.221   7.925  21.153  0.00  0.00    +0.022 C 
ATOM     14  C   UNL     1      17.872   7.502  20.606  0.00  0.00    -0.073 C 
ATOM     15  C   UNL     1      16.809   8.327  20.610  0.00  0.00    -0.022 C 
ATOM     20  C   UNL     1      17.784   6.124  20.012  0.00  0.00    +0.039 C 
ENDROOT
BRANCH   9  13
ATOM     13  C   UNL     1      18.278  11.569  22.155  0.00  0.00    -0.013 C 
ATOM     18  C   UNL     1      18.943  11.871  23.494  0.00  0.00    +0.007 C 
ATOM     19  C   UNL     1      19.099  12.138  21.002  0.00  0.00    +0.007 C 
ENDBRANCH   9  13
BRANCH  10  16
ATOM     16  C   UNL     1      15.549   9.942  22.018  0.00  0.00    +0.112 C 
BRANCH  16   6
ATOM      1  O   UNL     1      13.728  11.438  20.366  0.00  0.00    -0.276 OA
ATOM      6  N   UNL     1      14.394   9.439  21.343  0.00  0.00    -0.315 N 
ATOM     22  C   UNL     1      13.563  10.236  20.559  0.00  0.00    +0.214 C 
ATOM     37  H   UNL     1      14.182   8.450  21.439  0.00  0.00    +0.149 HD
BRANCH  22  24
ATOM     24  C   UNL     1      12.399   9.477  19.939  0.00  0.00    +0.102 C 
BRANCH  24  23
ATOM     23  C   UNL     1      12.755   8.674  18.662  0.00  0.00    -0.017 C 
ATOM     28  C   UNL     1      13.815   9.474  17.876  0.00  0.00    +0.012 C 
ATOM     29  C   UNL     1      11.515   8.531  17.753  0.00  0.00    +0.012 C 
BRANCH  23  27
ATOM     27  C   UNL     1      13.284   7.253  18.973  0.00  0.00    +0.127 C 
BRANCH  27  32
ATOM      3  O   UNL     1      11.508   6.296  20.311  0.00  0.00    -0.251 OA
ATOM     32  C   UNL     1      12.687   6.608  20.204  0.00  0.00    +0.305 C 
BRANCH  32   2
ATOM      2  O   UNL     1      13.596   6.413  21.191  0.00  0.00    -0.481 OA
ATOM     39  H   UNL     1      13.312   6.823  22.036  0.00  0.00    +0.295 HD
ENDBRANCH  32   2
ENDBRANCH  27  32
ENDBRANCH  23  27
ENDBRANCH  24  23
ENDBRANCH  22  24
ENDBRANCH  16   6
ENDBRANCH  10  16
BRANCH  12  17
ATOM     17  C   UNL     1      19.518   7.221  22.482  0.00  0.00    +0.082 C 
BRANCH  17  21
ATOM      7  N   UNL     1      21.347   6.124  21.174  0.00  0.00    -0.342 N 
ATOM      8  N   UNL     1      21.084   5.410  23.263  0.00  0.00    -0.232 NA
ATOM     21  C   UNL     1      20.646   6.239  22.342  0.00  0.00    +0.109 A 
ATOM     25  C   UNL     1      22.302   5.156  21.353  0.00  0.00    +0.067 A 
ATOM     26  C   UNL     1      22.118   4.727  22.664  0.00  0.00    +0.089 A 
ATOM     30  C   UNL     1      23.281   4.635  20.507  0.00  0.00    +0.042 A 
ATOM     31  C   UNL     1      22.951   3.719  23.178  0.00  0.00    +0.030 A 
ATOM     33  C   UNL     1      24.102   3.633  21.035  0.00  0.00    +0.061 A 
ATOM     34  C   UNL     1      23.941   3.181  22.347  0.00  0.00    +0.017 A 
ATOM     38  H   UNL     1      21.190   6.653  20.327  0.00  0.00    +0.167 HD
BRANCH  33  35
ATOM      5  O   UNL     1      25.044   2.884  18.977  0.00  0.00    -0.245 OA
ATOM     35  C   UNL     1      25.141   3.050  20.199  0.00  0.00    +0.339 C 
BRANCH  35   4
ATOM      4  O   UNL     1      26.243   2.708  20.934  0.00  0.00    -0.464 OA
ATOM     36  C   UNL     1      27.508   3.185  20.461  0.00  0.00    +0.280 C 
ENDBRANCH  35   4
ENDBRANCH  33  35
ENDBRANCH  17  21
ENDBRANCH  12  17
TORSDOF 12
ENDMDL
MODEL 5
REMARK VINA RESULT:      -5.8     23.339     25.830
REMARK  Name = 71693208
REMARK  18 active torsions:
REMARK  status: ('A' for Active; 'I' for Inactive)
REMARK    1  A    between atoms: O_2  and  C_32
REMARK    2  A    between atoms: O_4  and  C_35
REMARK    3  A    between atoms: O_4  and  C_36
REMARK    4  A    between atoms: N_6  and  C_16
REMARK    5  A    between atoms: C_9  and  C_13
REMARK    6  A    between atoms: C_10  and  C_16
REMARK    7  A    between atoms: C_12  and  C_17
REMARK    8  A    between atoms: C_13  and  C_18
REMARK    9  A    between atoms: C_13  and  C_19
REMARK   10  A    between atoms: C_14  and  C_20
REMARK   11  A    between atoms: C_17  and  C_21
REMARK   12  A    between atoms: C_22  and  C_24
REMARK   13  A    between atoms: C_23  and  C_24
REMARK   14  A    between atoms: C_23  and  C_27
REMARK   15  A    between atoms: C_23  and  C_28
REMARK   16  A    between atoms: C_23  and  C_29
REMARK   17  A    between atoms: C_27  and  C_32
REMARK   18  A    between atoms: C_33  and  C_35
REMARK                            x       y       z     vdW  Elec       q    Type
REMARK                         _______ _______ _______ _____ _____    ______ ____
ROOT
ATOM      9  C   UNL     1      -3.181 -12.292  13.759  0.00  0.00    +0.000 C 
ATOM     10  C   UNL     1      -1.853 -11.597  14.148  0.00  0.00    +0.032 C 
ATOM     11  C   UNL     1      -3.261 -12.482  12.237  0.00  0.00    +0.012 C 
ATOM     12  C   UNL     1      -3.169 -11.145  11.477  0.00  0.00    +0.022 C 
ATOM     14  C   UNL     1      -2.035 -10.281  11.993  0.00  0.00    -0.073 C 
ATOM     15  C   UNL     1      -1.451 -10.507  13.184  0.00  0.00    -0.022 C 
ATOM     20  C   UNL     1      -1.559  -9.178  11.090  0.00  0.00    +0.039 C 
ENDROOT
BRANCH   9  13
ATOM     13  C   UNL     1      -3.342 -13.645  14.459  0.00  0.00    -0.013 C 
ATOM     18  C   UNL     1      -4.694 -14.263  14.119  0.00  0.00    +0.007 C 
ATOM     19  C   UNL     1      -2.204 -14.583  14.070  0.00  0.00    +0.007 C 
ENDBRANCH   9  13
BRANCH  10  16
ATOM     16  C   UNL     1      -1.925 -11.022  15.568  0.00  0.00    +0.112 C 
BRANCH  16   6
ATOM      1  O   UNL     1      -3.772 -11.434  17.736  0.00  0.00    -0.276 OA
ATOM      6  N   UNL     1      -3.163 -10.342  15.779  0.00  0.00    -0.315 N 
ATOM     22  C   UNL     1      -4.001 -10.603  16.860  0.00  0.00    +0.214 C 
ATOM     37  H   UNL     1      -3.433  -9.629  15.106  0.00  0.00    +0.149 HD
BRANCH  22  24
ATOM     24  C   UNL     1      -5.261  -9.751  16.875  0.00  0.00    +0.102 C 
BRANCH  24  23
ATOM     23  C   UNL     1      -6.587 -10.550  16.802  0.00  0.00    -0.017 C 
ATOM     28  C   UNL     1      -6.568 -11.386  15.505  0.00  0.00    +0.012 C 
ATOM     29  C   UNL     1      -7.792  -9.588  16.714  0.00  0.00    +0.012 C 
BRANCH  23  27
ATOM     27  C   UNL     1      -6.802 -11.472  18.026  0.00  0.00    +0.127 C 
BRANCH  27  32
ATOM      3  O   UNL     1      -6.071 -10.285  20.006  0.00  0.00    -0.251 OA
ATOM     32  C   UNL     1      -6.989 -10.749  19.342  0.00  0.00    +0.305 C 
BRANCH  32   2
ATOM      2  O   UNL     1      -8.289 -10.673  19.721  0.00  0.00    -0.481 OA
ATOM     39  H   UNL     1      -8.480  -9.843  20.208  0.00  0.00    +0.295 HD
ENDBRANCH  32   2
ENDBRANCH  27  32
ENDBRANCH  23  27
ENDBRANCH  24  23
ENDBRANCH  22  24
ENDBRANCH  16   6
ENDBRANCH  10  16
BRANCH  12  17
ATOM     17  C   UNL     1      -4.501 -10.388  11.526  0.00  0.00    +0.082 C 
BRANCH  17  21
ATOM      7  N   UNL     1      -6.107  -9.308   9.940  0.00  0.00    -0.342 N 
ATOM      8  N   UNL     1      -4.600 -10.664   9.025  0.00  0.00    -0.232 NA
ATOM     21  C   UNL     1      -5.044 -10.143  10.148  0.00  0.00    +0.109 A 
ATOM     25  C   UNL     1      -6.367  -9.289   8.594  0.00  0.00    +0.067 A 
ATOM     26  C   UNL     1      -5.414 -10.142   8.045  0.00  0.00    +0.089 A 
ATOM     30  C   UNL     1      -7.325  -8.619   7.832  0.00  0.00    +0.042 A 
ATOM     31  C   UNL     1      -5.400 -10.350   6.655  0.00  0.00    +0.030 A 
ATOM     33  C   UNL     1      -7.297  -8.838   6.451  0.00  0.00    +0.061 A 
ATOM     34  C   UNL     1      -6.353  -9.688   5.871  0.00  0.00    +0.017 A 
ATOM     38  H   UNL     1      -6.614  -8.798  10.651  0.00  0.00    +0.167 HD
BRANCH  33  35
ATOM      5  O   UNL     1      -8.319  -8.274   4.373  0.00  0.00    -0.245 OA
ATOM     35  C   UNL     1      -8.272  -8.166   5.604  0.00  0.00    +0.339 C 
BRANCH  35   4
ATOM      4  O   UNL     1      -9.133  -7.399   6.341  0.00  0.00    -0.464 OA
ATOM     36  C   UNL     1     -10.307  -6.925   5.674  0.00  0.00    +0.280 C 
ENDBRANCH  35   4
ENDBRANCH  33  35
ENDBRANCH  17  21
ENDBRANCH  12  17
TORSDOF 12
ENDMDL
MODEL 6
REMARK VINA RESULT:      -5.8      1.571      2.199
REMARK  Name = 71693208
REMARK  18 active torsions:
REMARK  status: ('A' for Active; 'I' for Inactive)
REMARK    1  A    between atoms: O_2  and  C_32
REMARK    2  A    between atoms: O_4  and  C_35
REMARK    3  A    between atoms: O_4  and  C_36
REMARK    4  A    between atoms: N_6  and  C_16
REMARK    5  A    between atoms: C_9  and  C_13
REMARK    6  A    between atoms: C_10  and  C_16
REMARK    7  A    between atoms: C_12  and  C_17
REMARK    8  A    between atoms: C_13  and  C_18
REMARK    9  A    between atoms: C_13  and  C_19
REMARK   10  A    between atoms: C_14  and  C_20
REMARK   11  A    between atoms: C_17  and  C_21
REMARK   12  A    between atoms: C_22  and  C_24
REMARK   13  A    between atoms: C_23  and  C_24
REMARK   14  A    between atoms: C_23  and  C_27
REMARK   15  A    between atoms: C_23  and  C_28
REMARK   16  A    between atoms: C_23  and  C_29
REMARK   17  A    between atoms: C_27  and  C_32
REMARK   18  A    between atoms: C_33  and  C_35
REMARK                            x       y       z     vdW  Elec       q    Type
REMARK                         _______ _______ _______ _____ _____    ______ ____
ROOT
ATOM      9  C   UNL     1       9.075   8.269   5.665  0.00  0.00    +0.000 C 
ATOM     10  C   UNL     1       8.834   8.402   7.189  0.00  0.00    +0.032 C 
ATOM     11  C   UNL     1       8.596   6.898   5.164  0.00  0.00    +0.012 C 
ATOM     12  C   UNL     1       9.314   5.735   5.875  0.00  0.00    +0.022 C 
ATOM     14  C   UNL     1       9.353   5.932   7.378  0.00  0.00    -0.073 C 
ATOM     15  C   UNL     1       9.123   7.128   7.947  0.00  0.00    -0.022 C 
ATOM     20  C   UNL     1       9.618   4.711   8.213  0.00  0.00    +0.039 C 
ENDROOT
BRANCH   9  13
ATOM     13  C   UNL     1       8.374   9.381   4.879  0.00  0.00    -0.013 C 
ATOM     18  C   UNL     1       9.397  10.225   4.124  0.00  0.00    +0.007 C 
ATOM     19  C   UNL     1       7.347   8.789   3.919  0.00  0.00    +0.007 C 
ENDBRANCH   9  13
BRANCH  10  16
ATOM     16  C   UNL     1       9.663   9.548   7.782  0.00  0.00    +0.112 C 
BRANCH  16   6
ATOM      1  O   UNL     1      11.697  11.039   6.397  0.00  0.00    -0.276 OA
ATOM      6  N   UNL     1      11.059   9.247   7.728  0.00  0.00    -0.315 N 
ATOM     22  C   UNL     1      11.979  10.025   7.031  0.00  0.00    +0.214 C 
ATOM     37  H   UNL     1      11.386   8.428   8.232  0.00  0.00    +0.149 HD
BRANCH  22  24
ATOM     24  C   UNL     1      13.407   9.509   7.123  0.00  0.00    +0.102 C 
BRANCH  24  23
ATOM     23  C   UNL     1      13.718   8.292   6.215  0.00  0.00    -0.017 C 
ATOM     28  C   UNL     1      13.438   7.010   7.026  0.00  0.00    +0.012 C 
ATOM     29  C   UNL     1      15.213   8.277   5.828  0.00  0.00    +0.012 C 
BRANCH  23  27
ATOM     27  C   UNL     1      12.887   8.288   4.910  0.00  0.00    +0.127 C 
BRANCH  27  32
ATOM      3  O   UNL     1      14.104   8.602   2.840  0.00  0.00    -0.251 OA
ATOM     32  C   UNL     1      13.641   7.838   3.677  0.00  0.00    +0.305 C 
BRANCH  32   2
ATOM      2  O   UNL     1      13.746   6.489   3.588  0.00  0.00    -0.481 OA
ATOM     39  H   UNL     1      13.217   6.034   4.277  0.00  0.00    +0.295 HD
ENDBRANCH  32   2
ENDBRANCH  27  32
ENDBRANCH  23  27
ENDBRANCH  24  23
ENDBRANCH  22  24
ENDBRANCH  16   6
ENDBRANCH  10  16
BRANCH  12  17
ATOM     17  C   UNL     1      10.725   5.530   5.313  0.00  0.00    +0.082 C 
BRANCH  17  21
ATOM      7  N   UNL     1      11.377   4.337   3.213  0.00  0.00    -0.342 N 
ATOM      8  N   UNL     1      10.070   6.116   2.953  0.00  0.00    -0.232 NA
ATOM     21  C   UNL     1      10.702   5.357   3.821  0.00  0.00    +0.109 A 
ATOM     25  C   UNL     1      11.168   4.443   1.861  0.00  0.00    +0.067 A 
ATOM     26  C   UNL     1      10.349   5.560   1.725  0.00  0.00    +0.089 A 
ATOM     30  C   UNL     1      11.611   3.680   0.780  0.00  0.00    +0.042 A 
ATOM     31  C   UNL     1       9.937   5.955   0.441  0.00  0.00    +0.030 A 
ATOM     33  C   UNL     1      11.191   4.088  -0.491  0.00  0.00    +0.061 A 
ATOM     34  C   UNL     1      10.369   5.204  -0.660  0.00  0.00    +0.017 A 
ATOM     38  H   UNL     1      11.936   3.630   3.673  0.00  0.00    +0.167 HD
BRANCH  33  35
ATOM      5  O   UNL     1      12.794   3.249  -2.044  0.00  0.00    -0.245 OA
ATOM     35  C   UNL     1      11.621   3.332  -1.658  0.00  0.00    +0.339 C 
BRANCH  35   4
ATOM      4  O   UNL     1      10.565   2.722  -2.278  0.00  0.00    -0.464 OA
ATOM     36  C   UNL     1      10.483   2.862  -3.701  0.00  0.00    +0.280 C 
ENDBRANCH  35   4
ENDBRANCH  33  35
ENDBRANCH  17  21
ENDBRANCH  12  17
TORSDOF 12
ENDMDL
MODEL 7
REMARK VINA RESULT:      -5.7     26.373     30.348
REMARK  Name = 71693208
REMARK  18 active torsions:
REMARK  status: ('A' for Active; 'I' for Inactive)
REMARK    1  A    between atoms: O_2  and  C_32
REMARK    2  A    between atoms: O_4  and  C_35
REMARK    3  A    between atoms: O_4  and  C_36
REMARK    4  A    between atoms: N_6  and  C_16
REMARK    5  A    between atoms: C_9  and  C_13
REMARK    6  A    between atoms: C_10  and  C_16
REMARK    7  A    between atoms: C_12  and  C_17
REMARK    8  A    between atoms: C_13  and  C_18
REMARK    9  A    between atoms: C_13  and  C_19
REMARK   10  A    between atoms: C_14  and  C_20
REMARK   11  A    between atoms: C_17  and  C_21
REMARK   12  A    between atoms: C_22  and  C_24
REMARK   13  A    between atoms: C_23  and  C_24
REMARK   14  A    between atoms: C_23  and  C_27
REMARK   15  A    between atoms: C_23  and  C_28
REMARK   16  A    between atoms: C_23  and  C_29
REMARK   17  A    between atoms: C_27  and  C_32
REMARK   18  A    between atoms: C_33  and  C_35
REMARK                            x       y       z     vdW  Elec       q    Type
REMARK                         _______ _______ _______ _____ _____    ______ ____
ROOT
ATOM      9  C   UNL     1     -12.615  10.403  20.836  0.00  0.00    +0.000 C 
ATOM     10  C   UNL     1     -11.373  10.468  19.913  0.00  0.00    +0.032 C 
ATOM     11  C   UNL     1     -12.609   9.101  21.652  0.00  0.00    +0.012 C 
ATOM     12  C   UNL     1     -12.604   7.850  20.753  0.00  0.00    +0.022 C 
ATOM     14  C   UNL     1     -11.577   7.959  19.643  0.00  0.00    -0.073 C 
ATOM     15  C   UNL     1     -11.028   9.135  19.291  0.00  0.00    -0.022 C 
ATOM     20  C   UNL     1     -11.163   6.677  18.977  0.00  0.00    +0.039 C 
ENDROOT
BRANCH   9  13
ATOM     13  C   UNL     1     -12.683  11.606  21.782  0.00  0.00    -0.013 C 
ATOM     18  C   UNL     1     -14.093  12.190  21.799  0.00  0.00    +0.007 C 
ATOM     19  C   UNL     1     -12.247  11.205  23.187  0.00  0.00    +0.007 C 
ENDBRANCH   9  13
BRANCH  10  16
ATOM     16  C   UNL     1     -11.560  11.514  18.808  0.00  0.00    +0.112 C 
BRANCH  16   6
ATOM      1  O   UNL     1     -12.895  11.934  16.294  0.00  0.00    -0.276 OA
ATOM      6  N   UNL     1     -11.179  10.984  17.537  0.00  0.00    -0.315 N 
ATOM     22  C   UNL     1     -11.885  11.239  16.363  0.00  0.00    +0.214 C 
ATOM     37  H   UNL     1     -10.348  10.402  17.496  0.00  0.00    +0.149 HD
BRANCH  22  24
ATOM     24  C   UNL     1     -11.287  10.570  15.135  0.00  0.00    +0.102 C 
BRANCH  24  23
ATOM     23  C   UNL     1     -11.782   9.125  14.876  0.00  0.00    -0.017 C 
ATOM     28  C   UNL     1     -12.580   9.126  13.554  0.00  0.00    +0.012 C 
ATOM     29  C   UNL     1     -12.744   8.676  15.996  0.00  0.00    +0.012 C 
BRANCH  23  27
ATOM     27  C   UNL     1     -10.627   8.098  14.799  0.00  0.00    +0.127 C 
BRANCH  27  32
ATOM      3  O   UNL     1      -9.848   7.689  12.543  0.00  0.00    -0.251 OA
ATOM     32  C   UNL     1     -10.536   7.339  13.494  0.00  0.00    +0.305 C 
BRANCH  32   2
ATOM      2  O   UNL     1     -11.309   6.225  13.477  0.00  0.00    -0.481 OA
ATOM     39  H   UNL     1     -12.262   6.438  13.572  0.00  0.00    +0.295 HD
ENDBRANCH  32   2
ENDBRANCH  27  32
ENDBRANCH  23  27
ENDBRANCH  24  23
ENDBRANCH  22  24
ENDBRANCH  16   6
ENDBRANCH  10  16
BRANCH  12  17
ATOM     17  C   UNL     1     -14.000   7.574  20.183  0.00  0.00    +0.082 C 
BRANCH  17  21
ATOM      7  N   UNL     1     -14.178   6.010  22.127  0.00  0.00    -0.342 N 
ATOM      8  N   UNL     1     -15.930   6.063  20.760  0.00  0.00    -0.232 NA
ATOM     21  C   UNL     1     -14.733   6.550  21.001  0.00  0.00    +0.109 A 
ATOM     25  C   UNL     1     -15.078   5.115  22.649  0.00  0.00    +0.067 A 
ATOM     26  C   UNL     1     -16.162   5.167  21.778  0.00  0.00    +0.089 A 
ATOM     30  C   UNL     1     -15.036   4.290  23.774  0.00  0.00    +0.042 A 
ATOM     31  C   UNL     1     -17.281   4.354  22.029  0.00  0.00    +0.030 A 
ATOM     33  C   UNL     1     -16.158   3.489  24.008  0.00  0.00    +0.061 A 
ATOM     34  C   UNL     1     -17.262   3.518  23.153  0.00  0.00    +0.017 A 
ATOM     38  H   UNL     1     -13.267   6.226  22.509  0.00  0.00    +0.167 HD
BRANCH  33  35
ATOM      5  O   UNL     1     -16.430   1.397  25.120  0.00  0.00    -0.245 OA
ATOM     35  C   UNL     1     -16.173   2.607  25.166  0.00  0.00    +0.339 C 
BRANCH  35   4
ATOM      4  O   UNL     1     -15.868   3.283  26.316  0.00  0.00    -0.464 OA
ATOM     36  C   UNL     1     -16.956   3.908  27.005  0.00  0.00    +0.280 C 
ENDBRANCH  35   4
ENDBRANCH  33  35
ENDBRANCH  17  21
ENDBRANCH  12  17
TORSDOF 12
ENDMDL
MODEL 8
REMARK VINA RESULT:      -5.7     23.420     25.910
REMARK  Name = 71693208
REMARK  18 active torsions:
REMARK  status: ('A' for Active; 'I' for Inactive)
REMARK    1  A    between atoms: O_2  and  C_32
REMARK    2  A    between atoms: O_4  and  C_35
REMARK    3  A    between atoms: O_4  and  C_36
REMARK    4  A    between atoms: N_6  and  C_16
REMARK    5  A    between atoms: C_9  and  C_13
REMARK    6  A    between atoms: C_10  and  C_16
REMARK    7  A    between atoms: C_12  and  C_17
REMARK    8  A    between atoms: C_13  and  C_18
REMARK    9  A    between atoms: C_13  and  C_19
REMARK   10  A    between atoms: C_14  and  C_20
REMARK   11  A    between atoms: C_17  and  C_21
REMARK   12  A    between atoms: C_22  and  C_24
REMARK   13  A    between atoms: C_23  and  C_24
REMARK   14  A    between atoms: C_23  and  C_27
REMARK   15  A    between atoms: C_23  and  C_28
REMARK   16  A    between atoms: C_23  and  C_29
REMARK   17  A    between atoms: C_27  and  C_32
REMARK   18  A    between atoms: C_33  and  C_35
REMARK                            x       y       z     vdW  Elec       q    Type
REMARK                         _______ _______ _______ _____ _____    ______ ____
ROOT
ATOM      9  C   UNL     1      -3.487 -12.275  13.541  0.00  0.00    +0.000 C 
ATOM     10  C   UNL     1      -2.129 -11.534  13.620  0.00  0.00    +0.032 C 
ATOM     11  C   UNL     1      -3.889 -12.504  12.077  0.00  0.00    +0.012 C 
ATOM     12  C   UNL     1      -4.007 -11.184  11.291  0.00  0.00    +0.022 C 
ATOM     14  C   UNL     1      -2.817 -10.277  11.533  0.00  0.00    -0.073 C 
ATOM     15  C   UNL     1      -1.981 -10.457  12.571  0.00  0.00    -0.022 C 
ATOM     20  C   UNL     1      -2.584  -9.184  10.527  0.00  0.00    +0.039 C 
ENDROOT
BRANCH   9  13
ATOM     13  C   UNL     1      -3.448 -13.614  14.284  0.00  0.00    -0.013 C 
ATOM     18  C   UNL     1      -4.714 -14.416  14.001  0.00  0.00    +0.007 C 
ATOM     19  C   UNL     1      -2.206 -14.406  13.888  0.00  0.00    +0.007 C 
ENDBRANCH   9  13
BRANCH  10  16
ATOM     16  C   UNL     1      -1.910 -10.927  15.010  0.00  0.00    +0.112 C 
BRANCH  16   6
ATOM      1  O   UNL     1      -3.385 -11.538  17.404  0.00  0.00    -0.276 OA
ATOM      6  N   UNL     1      -3.096 -10.279  15.475  0.00  0.00    -0.315 N 
ATOM     22  C   UNL     1      -3.749 -10.639  16.650  0.00  0.00    +0.214 C 
ATOM     37  H   UNL     1      -3.467  -9.515  14.918  0.00  0.00    +0.149 HD
BRANCH  22  24
ATOM     24  C   UNL     1      -4.987  -9.804  16.940  0.00  0.00    +0.102 C 
BRANCH  24  23
ATOM     23  C   UNL     1      -6.314 -10.603  16.990  0.00  0.00    -0.017 C 
ATOM     28  C   UNL     1      -6.391 -11.475  15.719  0.00  0.00    +0.012 C 
ATOM     29  C   UNL     1      -7.522  -9.643  16.967  0.00  0.00    +0.012 C 
BRANCH  23  27
ATOM     27  C   UNL     1      -6.434 -11.491  18.252  0.00  0.00    +0.127 C 
BRANCH  27  32
ATOM      3  O   UNL     1      -8.304 -11.103  19.740  0.00  0.00    -0.251 OA
ATOM     32  C   UNL     1      -7.152 -10.846  19.417  0.00  0.00    +0.305 C 
BRANCH  32   2
ATOM      2  O   UNL     1      -6.385  -9.939  20.071  0.00  0.00    -0.481 OA
ATOM     39  H   UNL     1      -6.077 -10.278  20.939  0.00  0.00    +0.295 HD
ENDBRANCH  32   2
ENDBRANCH  27  32
ENDBRANCH  23  27
ENDBRANCH  24  23
ENDBRANCH  22  24
ENDBRANCH  16   6
ENDBRANCH  10  16
BRANCH  12  17
ATOM     17  C   UNL     1      -5.321 -10.464  11.616  0.00  0.00    +0.082 C 
BRANCH  17  21
ATOM      7  N   UNL     1      -5.783 -10.484   9.157  0.00  0.00    -0.342 N 
ATOM      8  N   UNL     1      -6.710  -8.822  10.306  0.00  0.00    -0.232 NA
ATOM     21  C   UNL     1      -5.954  -9.895  10.378  0.00  0.00    +0.109 A 
ATOM     25  C   UNL     1      -6.474  -9.742   8.234  0.00  0.00    +0.067 A 
ATOM     26  C   UNL     1      -7.044  -8.711   8.975  0.00  0.00    +0.089 A 
ATOM     30  C   UNL     1      -6.645  -9.880   6.856  0.00  0.00    +0.042 A 
ATOM     31  C   UNL     1      -7.835  -7.752   8.319  0.00  0.00    +0.030 A 
ATOM     33  C   UNL     1      -7.435  -8.917   6.220  0.00  0.00    +0.061 A 
ATOM     34  C   UNL     1      -8.020  -7.871   6.936  0.00  0.00    +0.017 A 
ATOM     38  H   UNL     1      -5.241 -11.316   8.964  0.00  0.00    +0.167 HD
BRANCH  33  35
ATOM      5  O   UNL     1      -7.451  -8.082   3.986  0.00  0.00    -0.245 OA
ATOM     35  C   UNL     1      -7.649  -9.009   4.783  0.00  0.00    +0.339 C 
BRANCH  35   4
ATOM      4  O   UNL     1      -8.097 -10.249   4.420  0.00  0.00    -0.464 OA
ATOM     36  C   UNL     1      -7.433 -10.880   3.320  0.00  0.00    +0.280 C 
ENDBRANCH  35   4
ENDBRANCH  33  35
ENDBRANCH  17  21
ENDBRANCH  12  17
TORSDOF 12
ENDMDL
MODEL 9
REMARK VINA RESULT:      -5.6     23.355     25.773
REMARK  Name = 71693208
REMARK  18 active torsions:
REMARK  status: ('A' for Active; 'I' for Inactive)
REMARK    1  A    between atoms: O_2  and  C_32
REMARK    2  A    between atoms: O_4  and  C_35
REMARK    3  A    between atoms: O_4  and  C_36
REMARK    4  A    between atoms: N_6  and  C_16
REMARK    5  A    between atoms: C_9  and  C_13
REMARK    6  A    between atoms: C_10  and  C_16
REMARK    7  A    between atoms: C_12  and  C_17
REMARK    8  A    between atoms: C_13  and  C_18
REMARK    9  A    between atoms: C_13  and  C_19
REMARK   10  A    between atoms: C_14  and  C_20
REMARK   11  A    between atoms: C_17  and  C_21
REMARK   12  A    between atoms: C_22  and  C_24
REMARK   13  A    between atoms: C_23  and  C_24
REMARK   14  A    between atoms: C_23  and  C_27
REMARK   15  A    between atoms: C_23  and  C_28
REMARK   16  A    between atoms: C_23  and  C_29
REMARK   17  A    between atoms: C_27  and  C_32
REMARK   18  A    between atoms: C_33  and  C_35
REMARK                            x       y       z     vdW  Elec       q    Type
REMARK                         _______ _______ _______ _____ _____    ______ ____
ROOT
ATOM      9  C   UNL     1      -3.162 -12.316  13.632  0.00  0.00    +0.000 C 
ATOM     10  C   UNL     1      -1.974 -11.488  14.181  0.00  0.00    +0.032 C 
ATOM     11  C   UNL     1      -2.990 -12.567  12.126  0.00  0.00    +0.012 C 
ATOM     12  C   UNL     1      -2.898 -11.255  11.324  0.00  0.00    +0.022 C 
ATOM     14  C   UNL     1      -1.936 -10.272  11.961  0.00  0.00    -0.073 C 
ATOM     15  C   UNL     1      -1.524 -10.400  13.235  0.00  0.00    -0.022 C 
ATOM     20  C   UNL     1      -1.424  -9.163  11.085  0.00  0.00    +0.039 C 
ENDROOT
BRANCH   9  13
ATOM     13  C   UNL     1      -3.310 -13.653  14.366  0.00  0.00    -0.013 C 
ATOM     18  C   UNL     1      -4.636 -14.315  14.003  0.00  0.00    +0.007 C 
ATOM     19  C   UNL     1      -2.138 -14.572  14.039  0.00  0.00    +0.007 C 
ENDBRANCH   9  13
BRANCH  10  16
ATOM     16  C   UNL     1      -2.312 -10.872  15.544  0.00  0.00    +0.112 C 
BRANCH  16   6
ATOM      1  O   UNL     1      -4.176 -10.764  17.733  0.00  0.00    -0.276 OA
ATOM      6  N   UNL     1      -3.618 -10.292  15.529  0.00  0.00    -0.315 N 
ATOM     22  C   UNL     1      -4.459 -10.282  16.639  0.00  0.00    +0.214 C 
ATOM     37  H   UNL     1      -3.935  -9.861  14.666  0.00  0.00    +0.149 HD
BRANCH  22  24
ATOM     24  C   UNL     1      -5.796  -9.604  16.384  0.00  0.00    +0.102 C 
BRANCH  24  23
ATOM     23  C   UNL     1      -7.037 -10.452  16.762  0.00  0.00    -0.017 C 
ATOM     28  C   UNL     1      -6.726 -11.926  16.426  0.00  0.00    +0.012 C 
ATOM     29  C   UNL     1      -8.256 -10.032  15.912  0.00  0.00    +0.012 C 
BRANCH  23  27
ATOM     27  C   UNL     1      -7.427 -10.318  18.253  0.00  0.00    +0.127 C 
BRANCH  27  32
ATOM      3  O   UNL     1      -8.271 -12.377  19.207  0.00  0.00    -0.251 OA
ATOM     32  C   UNL     1      -7.338 -11.599  19.052  0.00  0.00    +0.305 C 
BRANCH  32   2
ATOM      2  O   UNL     1      -6.110 -11.799  19.593  0.00  0.00    -0.481 OA
ATOM     39  H   UNL     1      -6.032 -11.392  20.483  0.00  0.00    +0.295 HD
ENDBRANCH  32   2
ENDBRANCH  27  32
ENDBRANCH  23  27
ENDBRANCH  24  23
ENDBRANCH  22  24
ENDBRANCH  16   6
ENDBRANCH  10  16
BRANCH  12  17
ATOM     17  C   UNL     1      -4.282 -10.624  11.136  0.00  0.00    +0.082 C 
BRANCH  17  21
ATOM      7  N   UNL     1      -4.178 -11.539   8.810  0.00  0.00    -0.342 N 
ATOM      8  N   UNL     1      -5.564  -9.828   9.120  0.00  0.00    -0.232 NA
ATOM     21  C   UNL     1      -4.699 -10.635   9.693  0.00  0.00    +0.109 A 
ATOM     25  C   UNL     1      -4.745 -11.301   7.584  0.00  0.00    +0.067 A 
ATOM     26  C   UNL     1      -5.606 -10.229   7.803  0.00  0.00    +0.089 A 
ATOM     30  C   UNL     1      -4.583 -11.912   6.340  0.00  0.00    +0.042 A 
ATOM     31  C   UNL     1      -6.359  -9.725   6.729  0.00  0.00    +0.030 A 
ATOM     33  C   UNL     1      -5.340 -11.397   5.283  0.00  0.00    +0.061 A 
ATOM     34  C   UNL     1      -6.213 -10.322   5.471  0.00  0.00    +0.017 A 
ATOM     38  H   UNL     1      -3.494 -12.254   9.019  0.00  0.00    +0.167 HD
BRANCH  33  35
ATOM      5  O   UNL     1      -5.999 -11.791   3.026  0.00  0.00    -0.245 OA
ATOM     35  C   UNL     1      -5.214 -11.993   3.961  0.00  0.00    +0.339 C 
BRANCH  35   4
ATOM      4  O   UNL     1      -4.117 -12.806   3.880  0.00  0.00    -0.464 OA
ATOM     36  C   UNL     1      -3.462 -12.882   2.608  0.00  0.00    +0.280 C 
ENDBRANCH  35   4
ENDBRANCH  33  35
ENDBRANCH  17  21
ENDBRANCH  12  17
TORSDOF 12
ENDMDL
MODEL 10
REMARK VINA RESULT:      -5.6     25.618     27.844
REMARK  Name = 71693208
REMARK  18 active torsions:
REMARK  status: ('A' for Active; 'I' for Inactive)
REMARK    1  A    between atoms: O_2  and  C_32
REMARK    2  A    between atoms: O_4  and  C_35
REMARK    3  A    between atoms: O_4  and  C_36
REMARK    4  A    between atoms: N_6  and  C_16
REMARK    5  A    between atoms: C_9  and  C_13
REMARK    6  A    between atoms: C_10  and  C_16
REMARK    7  A    between atoms: C_12  and  C_17
REMARK    8  A    between atoms: C_13  and  C_18
REMARK    9  A    between atoms: C_13  and  C_19
REMARK   10  A    between atoms: C_14  and  C_20
REMARK   11  A    between atoms: C_17  and  C_21
REMARK   12  A    between atoms: C_22  and  C_24
REMARK   13  A    between atoms: C_23  and  C_24
REMARK   14  A    between atoms: C_23  and  C_27
REMARK   15  A    between atoms: C_23  and  C_28
REMARK   16  A    between atoms: C_23  and  C_29
REMARK   17  A    between atoms: C_27  and  C_32
REMARK   18  A    between atoms: C_33  and  C_35
REMARK                            x       y       z     vdW  Elec       q    Type
REMARK                         _______ _______ _______ _____ _____    ______ ____
ROOT
ATOM      9  C   UNL     1      -9.924  -9.672  16.881  0.00  0.00    +0.000 C 
ATOM     10  C   UNL     1     -10.206 -11.004  17.620  0.00  0.00    +0.032 C 
ATOM     11  C   UNL     1      -9.944  -9.888  15.360  0.00  0.00    +0.012 C 
ATOM     12  C   UNL     1      -8.902 -10.927  14.906  0.00  0.00    +0.022 C 
ATOM     14  C   UNL     1      -8.938 -12.174  15.767  0.00  0.00    -0.073 C 
ATOM     15  C   UNL     1      -9.537 -12.193  16.971  0.00  0.00    -0.022 C 
ATOM     20  C   UNL     1      -8.308 -13.411  15.192  0.00  0.00    +0.039 C 
ENDROOT
BRANCH   9  13
ATOM     13  C   UNL     1     -10.934  -8.585  17.264  0.00  0.00    -0.013 C 
ATOM     18  C   UNL     1     -10.474  -7.226  16.746  0.00  0.00    +0.007 C 
ATOM     19  C   UNL     1     -12.318  -8.930  16.722  0.00  0.00    +0.007 C 
ENDBRANCH   9  13
BRANCH  10  16
ATOM     16  C   UNL     1      -9.785 -10.920  19.092  0.00  0.00    +0.112 C 
BRANCH  16   6
ATOM      1  O   UNL     1      -7.841 -12.652  20.318  0.00  0.00    -0.276 OA
ATOM      6  N   UNL     1      -8.379 -10.686  19.205  0.00  0.00    -0.315 N 
ATOM     22  C   UNL     1      -7.505 -11.582  19.817  0.00  0.00    +0.214 C 
ATOM     37  H   UNL     1      -8.009  -9.826  18.810  0.00  0.00    +0.149 HD
BRANCH  22  24
ATOM     24  C   UNL     1      -6.057 -11.118  19.813  0.00  0.00    +0.102 C 
BRANCH  24  23
ATOM     23  C   UNL     1      -5.215 -11.627  18.615  0.00  0.00    -0.017 C 
ATOM     28  C   UNL     1      -3.814 -12.002  19.143  0.00  0.00    +0.012 C 
ATOM     29  C   UNL     1      -5.030 -10.504  17.572  0.00  0.00    +0.012 C 
BRANCH  23  27
ATOM     27  C   UNL     1      -5.857 -12.840  17.901  0.00  0.00    +0.127 C 
BRANCH  27  32
ATOM      3  O   UNL     1      -4.579 -13.267  15.889  0.00  0.00    -0.251 OA
ATOM     32  C   UNL     1      -4.918 -13.624  17.010  0.00  0.00    +0.305 C 
BRANCH  32   2
ATOM      2  O   UNL     1      -4.491 -14.778  17.581  0.00  0.00    -0.481 OA
ATOM     39  H   UNL     1      -4.992 -14.989  18.397  0.00  0.00    +0.295 HD
ENDBRANCH  32   2
ENDBRANCH  27  32
ENDBRANCH  23  27
ENDBRANCH  24  23
ENDBRANCH  22  24
ENDBRANCH  16   6
ENDBRANCH  10  16
BRANCH  12  17
ATOM     17  C   UNL     1      -7.494 -10.322  14.876  0.00  0.00    +0.082 C 
BRANCH  17  21
ATOM      7  N   UNL     1      -8.091  -9.671  12.535  0.00  0.00    -0.342 N 
ATOM      8  N   UNL     1      -5.941  -9.497  13.074  0.00  0.00    -0.232 NA
ATOM     21  C   UNL     1      -7.138  -9.826  13.504  0.00  0.00    +0.109 A 
ATOM     25  C   UNL     1      -7.466  -9.210  11.405  0.00  0.00    +0.067 A 
ATOM     26  C   UNL     1      -6.126  -9.110  11.766  0.00  0.00    +0.089 A 
ATOM     30  C   UNL     1      -7.945  -8.883  10.135  0.00  0.00    +0.042 A 
ATOM     31  C   UNL     1      -5.193  -8.657  10.817  0.00  0.00    +0.030 A 
ATOM     33  C   UNL     1      -7.003  -8.434   9.204  0.00  0.00    +0.061 A 
ATOM     34  C   UNL     1      -5.650  -8.322   9.537  0.00  0.00    +0.017 A 
ATOM     38  H   UNL     1      -9.079  -9.864  12.631  0.00  0.00    +0.167 HD
BRANCH  33  35
ATOM      5  O   UNL     1      -7.357  -8.823   6.879  0.00  0.00    -0.245 OA
ATOM     35  C   UNL     1      -7.442  -8.078   7.863  0.00  0.00    +0.339 C 
BRANCH  35   4
ATOM      4  O   UNL     1      -7.962  -6.813   7.825  0.00  0.00    -0.464 OA
ATOM     36  C   UNL     1      -9.288  -6.675   7.303  0.00  0.00    +0.280 C 
ENDBRANCH  35   4
ENDBRANCH  33  35
ENDBRANCH  17  21
ENDBRANCH  12  17
TORSDOF 12
ENDMDL
