MODEL 1
REMARK VINA RESULT:      -6.8      0.000      0.000
REMARK  Name = 28959636
REMARK  10 active torsions:
REMARK  status: ('A' for Active; 'I' for Inactive)
REMARK    1  A    between atoms: O_2  and  C_23
REMARK    2  A    between atoms: O_5  and  C_24
REMARK    3  A    between atoms: O_5  and  C_25
REMARK    4  A    between atoms: N_6  and  C_14
REMARK    5  A    between atoms: C_9  and  C_11
REMARK    6  A    between atoms: C_10  and  C_17
REMARK    7  A    between atoms: C_11  and  C_14
REMARK    8  A    between atoms: C_16  and  C_22
REMARK    9  A    between atoms: C_17  and  C_23
REMARK   10  A    between atoms: C_21  and  C_24
REMARK                            x       y       z     vdW  Elec       q    Type
REMARK                         _______ _______ _______ _____ _____    ______ ____
ROOT
ATOM      1  O   UNL     1      15.872  12.005  22.853  0.00  0.00    -0.272 OA
ATOM      7  N   UNL     1      16.156  10.496  21.110  0.00  0.00    -0.298 N 
ATOM      9  C   UNL     1      15.775   8.277  20.057  0.00  0.00    +0.011 C 
ATOM     10  C   UNL     1      17.223   7.886  20.446  0.00  0.00    +0.006 C 
ATOM     12  C   UNL     1      15.669   9.807  19.908  0.00  0.00    +0.111 C 
ATOM     13  C   UNL     1      17.711   8.668  21.677  0.00  0.00    +0.023 C 
ATOM     15  C   UNL     1      17.533  10.172  21.484  0.00  0.00    +0.108 C 
ATOM     21  C   UNL     1      15.430  11.418  21.861  0.00  0.00    +0.253 C 
ENDROOT
BRANCH   9  11
ATOM     11  C   UNL     1      14.709   7.762  21.030  0.00  0.00    +0.021 C 
BRANCH  11  14
ATOM     14  C   UNL     1      13.941   6.594  20.427  0.00  0.00    +0.085 C 
BRANCH  14   6
ATOM      6  N   UNL     1      12.679   7.064  19.873  0.00  0.00    -0.291 NA
ATOM     16  C   UNL     1      12.010   8.053  20.723  0.00  0.00    +0.143 C 
ATOM     18  C   UNL     1      12.852   7.692  18.561  0.00  0.00    +0.085 C 
ATOM     19  C   UNL     1      11.241   8.966  19.767  0.00  0.00    +0.029 C 
ATOM     20  C   UNL     1      11.529   8.409  18.381  0.00  0.00    +0.017 C 
BRANCH  16  22
ATOM      3  O   UNL     1      10.561   7.823  22.605  0.00  0.00    -0.274 OA
ATOM      8  N   UNL     1      10.893   5.991  21.254  0.00  0.00    -0.328 N 
ATOM     22  C   UNL     1      11.082   7.302  21.623  0.00  0.00    +0.228 C 
ATOM     31  H   UNL     1      11.346   5.582  20.443  0.00  0.00    +0.145 HD
ATOM     32  H   UNL     1      10.285   5.381  21.791  0.00  0.00    +0.145 HD
ENDBRANCH  16  22
ENDBRANCH  14   6
ENDBRANCH  11  14
ENDBRANCH   9  11
BRANCH  10  17
ATOM     17  C   UNL     1      17.405   6.383  20.655  0.00  0.00    +0.124 C 
BRANCH  17  23
ATOM      4  O   UNL     1      16.832   5.475  18.467  0.00  0.00    -0.251 OA
ATOM     23  C   UNL     1      17.648   5.666  19.357  0.00  0.00    +0.305 C 
BRANCH  23   2
ATOM      2  O   UNL     1      18.938   5.243  19.301  0.00  0.00    -0.481 OA
ATOM     33  H   UNL     1      19.092   4.463  19.876  0.00  0.00    +0.295 HD
ENDBRANCH  23   2
ENDBRANCH  17  23
ENDBRANCH  10  17
BRANCH  21  24
ATOM     24  C   UNL     1      14.018  11.695  21.412  0.00  0.00    +0.324 C 
BRANCH  24   5
ATOM      5  O   UNL     1      13.170  10.997  22.291  0.00  0.00    -0.483 OA
BRANCH   5  25
ATOM     25  C   UNL     1      12.199  11.724  22.944  0.00  0.00    +0.121 A 
ATOM     26  C   UNL     1      11.492  12.713  22.262  0.00  0.00    +0.045 A 
ATOM     27  C   UNL     1      11.924  11.469  24.287  0.00  0.00    +0.045 A 
ATOM     28  C   UNL     1      10.508  13.449  22.923  0.00  0.00    +0.004 A 
ATOM     29  C   UNL     1      10.940  12.205  24.948  0.00  0.00    +0.004 A 
ATOM     30  C   UNL     1      10.231  13.194  24.266  0.00  0.00    +0.000 A 
ENDBRANCH   5  25
ENDBRANCH  24   5
ENDBRANCH  21  24
TORSDOF 10
ENDMDL
MODEL 2
REMARK VINA RESULT:      -6.8      2.014      6.510
REMARK  Name = 28959636
REMARK  10 active torsions:
REMARK  status: ('A' for Active; 'I' for Inactive)
REMARK    1  A    between atoms: O_2  and  C_23
REMARK    2  A    between atoms: O_5  and  C_24
REMARK    3  A    between atoms: O_5  and  C_25
REMARK    4  A    between atoms: N_6  and  C_14
REMARK    5  A    between atoms: C_9  and  C_11
REMARK    6  A    between atoms: C_10  and  C_17
REMARK    7  A    between atoms: C_11  and  C_14
REMARK    8  A    between atoms: C_16  and  C_22
REMARK    9  A    between atoms: C_17  and  C_23
REMARK   10  A    between atoms: C_21  and  C_24
REMARK                            x       y       z     vdW  Elec       q    Type
REMARK                         _______ _______ _______ _____ _____    ______ ____
ROOT
ATOM      1  O   UNL     1      17.566  12.110  21.788  0.00  0.00    -0.272 OA
ATOM      7  N   UNL     1      15.688  11.394  22.951  0.00  0.00    -0.298 N 
ATOM      9  C   UNL     1      13.224  11.176  23.203  0.00  0.00    +0.011 C 
ATOM     10  C   UNL     1      13.269  12.314  24.254  0.00  0.00    +0.006 C 
ATOM     12  C   UNL     1      14.582  10.450  23.161  0.00  0.00    +0.111 C 
ATOM     13  C   UNL     1      14.470  13.248  24.028  0.00  0.00    +0.023 C 
ATOM     15  C   UNL     1      15.776  12.461  23.947  0.00  0.00    +0.108 C 
ATOM     21  C   UNL     1      16.629  11.319  21.927  0.00  0.00    +0.253 C 
ENDROOT
BRANCH   9  11
ATOM     11  C   UNL     1      12.827  11.643  21.798  0.00  0.00    +0.021 C 
BRANCH  11  14
ATOM     14  C   UNL     1      11.760  10.733  21.204  0.00  0.00    +0.085 C 
BRANCH  14   6
ATOM      6  N   UNL     1      12.383   9.726  20.357  0.00  0.00    -0.291 NA
ATOM     16  C   UNL     1      11.439   8.713  19.875  0.00  0.00    +0.143 C 
ATOM     18  C   UNL     1      13.007  10.312  19.169  0.00  0.00    +0.085 C 
ATOM     19  C   UNL     1      11.966   8.274  18.509  0.00  0.00    +0.029 C 
ATOM     20  C   UNL     1      13.232   9.092  18.299  0.00  0.00    +0.017 C 
BRANCH  16  22
ATOM      3  O   UNL     1      12.503   7.008  21.161  0.00  0.00    -0.274 OA
ATOM      8  N   UNL     1      10.226   7.261  21.359  0.00  0.00    -0.328 N 
ATOM     22  C   UNL     1      11.464   7.587  20.857  0.00  0.00    +0.228 C 
ATOM     31  H   UNL     1       9.380   7.749  21.082  0.00  0.00    +0.145 HD
ATOM     32  H   UNL     1      10.117   6.511  22.033  0.00  0.00    +0.145 HD
ENDBRANCH  16  22
ENDBRANCH  14   6
ENDBRANCH  11  14
ENDBRANCH   9  11
BRANCH  10  17
ATOM     17  C   UNL     1      11.970  13.115  24.329  0.00  0.00    +0.124 C 
BRANCH  17  23
ATOM      4  O   UNL     1      10.785  11.415  25.612  0.00  0.00    -0.251 OA
ATOM     23  C   UNL     1      10.805  12.249  24.719  0.00  0.00    +0.305 C 
BRANCH  23   2
ATOM      2  O   UNL     1       9.741  12.525  23.920  0.00  0.00    -0.481 OA
ATOM     33  H   UNL     1       9.053  13.041  24.393  0.00  0.00    +0.295 HD
ENDBRANCH  23   2
ENDBRANCH  17  23
ENDBRANCH  10  17
BRANCH  21  24
ATOM     24  C   UNL     1      16.467  10.191  20.940  0.00  0.00    +0.324 C 
BRANCH  24   5
ATOM      5  O   UNL     1      16.924   9.024  21.580  0.00  0.00    -0.483 OA
BRANCH   5  25
ATOM     25  C   UNL     1      17.122   7.909  20.796  0.00  0.00    +0.121 A 
ATOM     26  C   UNL     1      18.332   7.221  20.855  0.00  0.00    +0.045 A 
ATOM     27  C   UNL     1      16.109   7.469  19.944  0.00  0.00    +0.045 A 
ATOM     28  C   UNL     1      18.533   6.091  20.062  0.00  0.00    +0.004 A 
ATOM     29  C   UNL     1      16.309   6.339  19.150  0.00  0.00    +0.004 A 
ATOM     30  C   UNL     1      17.520   5.649  19.210  0.00  0.00    +0.000 A 
ENDBRANCH   5  25
ENDBRANCH  24   5
ENDBRANCH  21  24
TORSDOF 10
ENDMDL
MODEL 3
REMARK VINA RESULT:      -6.3     27.523     29.558
REMARK  Name = 28959636
REMARK  10 active torsions:
REMARK  status: ('A' for Active; 'I' for Inactive)
REMARK    1  A    between atoms: O_2  and  C_23
REMARK    2  A    between atoms: O_5  and  C_24
REMARK    3  A    between atoms: O_5  and  C_25
REMARK    4  A    between atoms: N_6  and  C_14
REMARK    5  A    between atoms: C_9  and  C_11
REMARK    6  A    between atoms: C_10  and  C_17
REMARK    7  A    between atoms: C_11  and  C_14
REMARK    8  A    between atoms: C_16  and  C_22
REMARK    9  A    between atoms: C_17  and  C_23
REMARK   10  A    between atoms: C_21  and  C_24
REMARK                            x       y       z     vdW  Elec       q    Type
REMARK                         _______ _______ _______ _____ _____    ______ ____
ROOT
ATOM      1  O   UNL     1      -2.530 -10.593  14.854  0.00  0.00    -0.272 OA
ATOM      7  N   UNL     1      -4.392 -11.494  15.910  0.00  0.00    -0.298 N 
ATOM      9  C   UNL     1      -6.700 -11.299  16.814  0.00  0.00    +0.011 C 
ATOM     10  C   UNL     1      -6.095 -11.237  18.240  0.00  0.00    +0.006 C 
ATOM     12  C   UNL     1      -5.746 -12.063  15.875  0.00  0.00    +0.111 C 
ATOM     13  C   UNL     1      -4.660 -10.684  18.224  0.00  0.00    +0.023 C 
ATOM     15  C   UNL     1      -3.782 -11.452  17.239  0.00  0.00    +0.108 C 
ATOM     21  C   UNL     1      -3.678 -11.042  14.802  0.00  0.00    +0.253 C 
ENDROOT
BRANCH   9  11
ATOM     11  C   UNL     1      -7.042  -9.927  16.223  0.00  0.00    +0.021 C 
BRANCH  11  14
ATOM     14  C   UNL     1      -8.256 -10.017  15.308  0.00  0.00    +0.085 C 
BRANCH  14   6
ATOM      6  N   UNL     1      -9.476  -9.866  16.087  0.00  0.00    -0.291 NA
ATOM     16  C   UNL     1     -10.373  -8.833  15.560  0.00  0.00    +0.143 C 
ATOM     18  C   UNL     1     -10.254 -11.105  16.140  0.00  0.00    +0.085 C 
ATOM     19  C   UNL     1     -11.787  -9.297  15.910  0.00  0.00    +0.029 C 
ATOM     20  C   UNL     1     -11.594 -10.612  16.650  0.00  0.00    +0.017 C 
BRANCH  16  22
ATOM      3  O   UNL     1     -10.066  -6.470  15.688  0.00  0.00    -0.274 OA
ATOM      8  N   UNL     1      -9.659  -7.726  17.572  0.00  0.00    -0.328 N 
ATOM     22  C   UNL     1     -10.030  -7.557  16.259  0.00  0.00    +0.228 C 
ATOM     31  H   UNL     1      -9.627  -8.638  18.016  0.00  0.00    +0.145 HD
ATOM     32  H   UNL     1      -9.403  -6.931  18.148  0.00  0.00    +0.145 HD
ENDBRANCH  16  22
ENDBRANCH  14   6
ENDBRANCH  11  14
ENDBRANCH   9  11
BRANCH  10  17
ATOM     17  C   UNL     1      -6.963 -10.456  19.227  0.00  0.00    +0.124 C 
BRANCH  17  23
ATOM      4  O   UNL     1      -8.546 -12.264  19.633  0.00  0.00    -0.251 OA
ATOM     23  C   UNL     1      -8.316 -11.088  19.397  0.00  0.00    +0.305 C 
BRANCH  23   2
ATOM      2  O   UNL     1      -9.283 -10.145  19.247  0.00  0.00    -0.481 OA
ATOM     33  H   UNL     1      -9.909 -10.140  20.003  0.00  0.00    +0.295 HD
ENDBRANCH  23   2
ENDBRANCH  17  23
ENDBRANCH  10  17
BRANCH  21  24
ATOM     24  C   UNL     1      -4.378 -11.116  13.469  0.00  0.00    +0.324 C 
BRANCH  24   5
ATOM      5  O   UNL     1      -3.537 -10.486  12.535  0.00  0.00    -0.483 OA
BRANCH   5  25
ATOM     25  C   UNL     1      -4.138  -9.813  11.494  0.00  0.00    +0.121 A 
ATOM     26  C   UNL     1      -5.463  -9.394  11.608  0.00  0.00    +0.045 A 
ATOM     27  C   UNL     1      -3.421  -9.551  10.327  0.00  0.00    +0.045 A 
ATOM     28  C   UNL     1      -6.072  -8.712  10.554  0.00  0.00    +0.004 A 
ATOM     29  C   UNL     1      -4.030  -8.869   9.273  0.00  0.00    +0.004 A 
ATOM     30  C   UNL     1      -5.355  -8.449   9.387  0.00  0.00    +0.000 A 
ENDBRANCH   5  25
ENDBRANCH  24   5
ENDBRANCH  21  24
TORSDOF 10
ENDMDL
MODEL 4
REMARK VINA RESULT:      -6.3     26.971     29.052
REMARK  Name = 28959636
REMARK  10 active torsions:
REMARK  status: ('A' for Active; 'I' for Inactive)
REMARK    1  A    between atoms: O_2  and  C_23
REMARK    2  A    between atoms: O_5  and  C_24
REMARK    3  A    between atoms: O_5  and  C_25
REMARK    4  A    between atoms: N_6  and  C_14
REMARK    5  A    between atoms: C_9  and  C_11
REMARK    6  A    between atoms: C_10  and  C_17
REMARK    7  A    between atoms: C_11  and  C_14
REMARK    8  A    between atoms: C_16  and  C_22
REMARK    9  A    between atoms: C_17  and  C_23
REMARK   10  A    between atoms: C_21  and  C_24
REMARK                            x       y       z     vdW  Elec       q    Type
REMARK                         _______ _______ _______ _____ _____    ______ ____
ROOT
ATOM      1  O   UNL     1      -7.879 -10.685  13.195  0.00  0.00    -0.272 OA
ATOM      7  N   UNL     1      -6.696 -10.293  15.155  0.00  0.00    -0.298 N 
ATOM      9  C   UNL     1      -4.823 -10.786  16.713  0.00  0.00    +0.011 C 
ATOM     10  C   UNL     1      -5.831 -11.519  17.634  0.00  0.00    +0.006 C 
ATOM     12  C   UNL     1      -5.556  -9.717  15.881  0.00  0.00    +0.111 C 
ATOM     13  C   UNL     1      -7.032 -12.061  16.841  0.00  0.00    +0.023 C 
ATOM     15  C   UNL     1      -7.683 -10.964  16.001  0.00  0.00    +0.108 C 
ATOM     21  C   UNL     1      -6.898 -10.216  13.779  0.00  0.00    +0.253 C 
ENDROOT
BRANCH   9  11
ATOM     11  C   UNL     1      -4.026 -11.721  15.795  0.00  0.00    +0.021 C 
BRANCH  11  14
ATOM     14  C   UNL     1      -2.566 -11.294  15.721  0.00  0.00    +0.085 C 
BRANCH  14   6
ATOM      6  N   UNL     1      -2.058 -11.500  14.372  0.00  0.00    -0.291 NA
ATOM     16  C   UNL     1      -2.703 -12.618  13.677  0.00  0.00    +0.143 C 
ATOM     18  C   UNL     1      -2.246 -10.320  13.525  0.00  0.00    +0.085 C 
ATOM     19  C   UNL     1      -2.692 -12.245  12.195  0.00  0.00    +0.029 C 
ATOM     20  C   UNL     1      -2.006 -10.888  12.140  0.00  0.00    +0.017 C 
BRANCH  16  22
ATOM      3  O   UNL     1      -0.739 -13.961  13.488  0.00  0.00    -0.274 OA
ATOM      8  N   UNL     1      -2.509 -14.784  14.705  0.00  0.00    -0.328 N 
ATOM     22  C   UNL     1      -1.874 -13.834  13.939  0.00  0.00    +0.228 C 
ATOM     31  H   UNL     1      -3.454 -14.659  15.056  0.00  0.00    +0.145 HD
ATOM     32  H   UNL     1      -2.046 -15.654  14.947  0.00  0.00    +0.145 HD
ENDBRANCH  16  22
ENDBRANCH  14   6
ENDBRANCH  11  14
ENDBRANCH   9  11
BRANCH  10  17
ATOM     17  C   UNL     1      -5.189 -12.629  18.465  0.00  0.00    +0.124 C 
BRANCH  17  23
ATOM      4  O   UNL     1      -3.243 -12.202  19.868  0.00  0.00    -0.251 OA
ATOM     23  C   UNL     1      -4.437 -12.076  19.643  0.00  0.00    +0.305 C 
BRANCH  23   2
ATOM      2  O   UNL     1      -5.290 -11.396  20.453  0.00  0.00    -0.481 OA
ATOM     33  H   UNL     1      -6.213 -11.713  20.360  0.00  0.00    +0.295 HD
ENDBRANCH  23   2
ENDBRANCH  17  23
ENDBRANCH  10  17
BRANCH  21  24
ATOM     24  C   UNL     1      -5.834  -9.511  12.977  0.00  0.00    +0.324 C 
BRANCH  24   5
ATOM      5  O   UNL     1      -6.489  -8.878  11.905  0.00  0.00    -0.483 OA
BRANCH   5  25
ATOM     25  C   UNL     1      -5.998  -9.107  10.638  0.00  0.00    +0.121 A 
ATOM     26  C   UNL     1      -6.843  -9.585   9.638  0.00  0.00    +0.045 A 
ATOM     27  C   UNL     1      -4.654  -8.861  10.358  0.00  0.00    +0.045 A 
ATOM     28  C   UNL     1      -6.346  -9.817   8.355  0.00  0.00    +0.004 A 
ATOM     29  C   UNL     1      -4.156  -9.093   9.076  0.00  0.00    +0.004 A 
ATOM     30  C   UNL     1      -5.002  -9.570   8.074  0.00  0.00    +0.000 A 
ENDBRANCH   5  25
ENDBRANCH  24   5
ENDBRANCH  21  24
TORSDOF 10
ENDMDL
MODEL 5
REMARK VINA RESULT:      -6.2     28.265     30.893
REMARK  Name = 28959636
REMARK  10 active torsions:
REMARK  status: ('A' for Active; 'I' for Inactive)
REMARK    1  A    between atoms: O_2  and  C_23
REMARK    2  A    between atoms: O_5  and  C_24
REMARK    3  A    between atoms: O_5  and  C_25
REMARK    4  A    between atoms: N_6  and  C_14
REMARK    5  A    between atoms: C_9  and  C_11
REMARK    6  A    between atoms: C_10  and  C_17
REMARK    7  A    between atoms: C_11  and  C_14
REMARK    8  A    between atoms: C_16  and  C_22
REMARK    9  A    between atoms: C_17  and  C_23
REMARK   10  A    between atoms: C_21  and  C_24
REMARK                            x       y       z     vdW  Elec       q    Type
REMARK                         _______ _______ _______ _____ _____    ______ ____
ROOT
ATOM      1  O   UNL     1     -15.267   5.292  34.636  0.00  0.00    -0.272 OA
ATOM      7  N   UNL     1     -14.216   3.961  33.048  0.00  0.00    -0.298 N 
ATOM      9  C   UNL     1     -14.239   2.637  30.945  0.00  0.00    +0.011 C 
ATOM     10  C   UNL     1     -14.270   1.347  31.802  0.00  0.00    +0.006 C 
ATOM     12  C   UNL     1     -13.574   3.777  31.740  0.00  0.00    +0.111 C 
ATOM     13  C   UNL     1     -14.903   1.597  33.181  0.00  0.00    +0.023 C 
ATOM     15  C   UNL     1     -14.232   2.768  33.895  0.00  0.00    +0.108 C 
ATOM     21  C   UNL     1     -14.757   5.156  33.520  0.00  0.00    +0.253 C 
ENDROOT
BRANCH   9  11
ATOM     11  C   UNL     1     -15.616   3.078  30.434  0.00  0.00    +0.021 C 
BRANCH  11  14
ATOM     14  C   UNL     1     -15.508   3.696  29.047  0.00  0.00    +0.085 C 
BRANCH  14   6
ATOM      6  N   UNL     1     -16.710   3.402  28.279  0.00  0.00    -0.291 NA
ATOM     16  C   UNL     1     -16.474   2.463  27.177  0.00  0.00    +0.143 C 
ATOM     18  C   UNL     1     -17.765   2.815  29.107  0.00  0.00    +0.085 C 
ATOM     19  C   UNL     1     -17.781   1.689  27.008  0.00  0.00    +0.029 C 
ATOM     20  C   UNL     1     -18.715   2.267  28.061  0.00  0.00    +0.017 C 
BRANCH  16  22
ATOM      3  O   UNL     1     -15.739   2.774  24.928  0.00  0.00    -0.274 OA
ATOM      8  N   UNL     1     -16.380   4.627  26.132  0.00  0.00    -0.328 N 
ATOM     22  C   UNL     1     -16.163   3.279  25.964  0.00  0.00    +0.228 C 
ATOM     31  H   UNL     1     -16.721   5.019  27.004  0.00  0.00    +0.145 HD
ATOM     32  H   UNL     1     -16.202   5.282  25.377  0.00  0.00    +0.145 HD
ENDBRANCH  16  22
ENDBRANCH  14   6
ENDBRANCH  11  14
ENDBRANCH   9  11
BRANCH  10  17
ATOM     17  C   UNL     1     -14.955   0.175  31.099  0.00  0.00    +0.124 C 
BRANCH  17  23
ATOM      4  O   UNL     1     -13.079  -0.745  29.845  0.00  0.00    -0.251 OA
ATOM     23  C   UNL     1     -14.199  -0.258  29.875  0.00  0.00    +0.305 C 
BRANCH  23   2
ATOM      2  O   UNL     1     -14.951  -0.027  28.767  0.00  0.00    -0.481 OA
ATOM     33  H   UNL     1     -15.400   0.844  28.805  0.00  0.00    +0.295 HD
ENDBRANCH  23   2
ENDBRANCH  17  23
ENDBRANCH  10  17
BRANCH  21  24
ATOM     24  C   UNL     1     -14.704   6.338  32.587  0.00  0.00    +0.324 C 
BRANCH  24   5
ATOM      5  O   UNL     1     -13.804   7.260  33.153  0.00  0.00    -0.483 OA
BRANCH   5  25
ATOM     25  C   UNL     1     -13.264   8.211  32.316  0.00  0.00    +0.121 A 
ATOM     26  C   UNL     1     -11.880   8.329  32.196  0.00  0.00    +0.045 A 
ATOM     27  C   UNL     1     -14.102   9.055  31.588  0.00  0.00    +0.045 A 
ATOM     28  C   UNL     1     -11.332   9.292  31.348  0.00  0.00    +0.004 A 
ATOM     29  C   UNL     1     -13.555  10.018  30.740  0.00  0.00    +0.004 A 
ATOM     30  C   UNL     1     -12.170  10.137  30.619  0.00  0.00    +0.000 A 
ENDBRANCH   5  25
ENDBRANCH  24   5
ENDBRANCH  21  24
TORSDOF 10
ENDMDL
MODEL 6
REMARK VINA RESULT:      -6.2     25.953     28.674
REMARK  Name = 28959636
REMARK  10 active torsions:
REMARK  status: ('A' for Active; 'I' for Inactive)
REMARK    1  A    between atoms: O_2  and  C_23
REMARK    2  A    between atoms: O_5  and  C_24
REMARK    3  A    between atoms: O_5  and  C_25
REMARK    4  A    between atoms: N_6  and  C_14
REMARK    5  A    between atoms: C_9  and  C_11
REMARK    6  A    between atoms: C_10  and  C_17
REMARK    7  A    between atoms: C_11  and  C_14
REMARK    8  A    between atoms: C_16  and  C_22
REMARK    9  A    between atoms: C_17  and  C_23
REMARK   10  A    between atoms: C_21  and  C_24
REMARK                            x       y       z     vdW  Elec       q    Type
REMARK                         _______ _______ _______ _____ _____    ______ ____
ROOT
ATOM      1  O   UNL     1      -7.888 -11.551  18.759  0.00  0.00    -0.272 OA
ATOM      7  N   UNL     1      -6.327 -10.399  17.482  0.00  0.00    -0.298 N 
ATOM      9  C   UNL     1      -4.869 -10.188  15.480  0.00  0.00    +0.011 C 
ATOM     10  C   UNL     1      -3.657 -10.565  16.369  0.00  0.00    +0.006 C 
ATOM     12  C   UNL     1      -5.970  -9.543  16.343  0.00  0.00    +0.111 C 
ATOM     13  C   UNL     1      -4.083 -11.417  17.577  0.00  0.00    +0.023 C 
ATOM     15  C   UNL     1      -5.208 -10.746  18.360  0.00  0.00    +0.108 C 
ATOM     21  C   UNL     1      -7.610 -10.854  17.779  0.00  0.00    +0.253 C 
ENDROOT
BRANCH   9  11
ATOM     11  C   UNL     1      -5.441 -11.363  14.678  0.00  0.00    +0.021 C 
BRANCH  11  14
ATOM     14  C   UNL     1      -5.946 -10.899  13.319  0.00  0.00    +0.085 C 
BRANCH  14   6
ATOM      6  N   UNL     1      -5.009 -11.301  12.279  0.00  0.00    -0.291 NA
ATOM     16  C   UNL     1      -3.975 -10.295  12.015  0.00  0.00    +0.143 C 
ATOM     18  C   UNL     1      -4.306 -12.540  12.617  0.00  0.00    +0.085 C 
ATOM     19  C   UNL     1      -2.737 -11.080  11.578  0.00  0.00    +0.029 C 
ATOM     20  C   UNL     1      -3.169 -12.539  11.616  0.00  0.00    +0.017 C 
BRANCH  16  22
ATOM      3  O   UNL     1      -5.207  -8.454  11.128  0.00  0.00    -0.274 OA
ATOM      8  N   UNL     1      -4.080  -9.820   9.660  0.00  0.00    -0.328 N 
ATOM     22  C   UNL     1      -4.483  -9.422  10.913  0.00  0.00    +0.228 C 
ATOM     31  H   UNL     1      -3.489 -10.633   9.510  0.00  0.00    +0.145 HD
ATOM     32  H   UNL     1      -4.364  -9.306   8.833  0.00  0.00    +0.145 HD
ENDBRANCH  16  22
ENDBRANCH  14   6
ENDBRANCH  11  14
ENDBRANCH   9  11
BRANCH  10  17
ATOM     17  C   UNL     1      -2.533 -11.252  15.594  0.00  0.00    +0.124 C 
BRANCH  17  23
ATOM      4  O   UNL     1      -1.263  -9.633  14.288  0.00  0.00    -0.251 OA
ATOM     23  C   UNL     1      -1.403 -10.305  15.298  0.00  0.00    +0.305 C 
BRANCH  23   2
ATOM      2  O   UNL     1      -0.529 -10.297  16.338  0.00  0.00    -0.481 OA
ATOM     33  H   UNL     1      -0.767  -9.625  17.011  0.00  0.00    +0.295 HD
ENDBRANCH  23   2
ENDBRANCH  17  23
ENDBRANCH  10  17
BRANCH  21  24
ATOM     24  C   UNL     1      -8.707 -10.457  16.825  0.00  0.00    +0.324 C 
BRANCH  24   5
ATOM      5  O   UNL     1      -9.433  -9.427  17.450  0.00  0.00    -0.483 OA
BRANCH   5  25
ATOM     25  C   UNL     1     -10.144  -8.571  16.638  0.00  0.00    +0.121 A 
ATOM     26  C   UNL     1     -10.471  -7.293  17.088  0.00  0.00    +0.045 A 
ATOM     27  C   UNL     1     -10.536  -8.985  15.365  0.00  0.00    +0.045 A 
ATOM     28  C   UNL     1     -11.190  -6.425  16.265  0.00  0.00    +0.004 A 
ATOM     29  C   UNL     1     -11.255  -8.117  14.542  0.00  0.00    +0.004 A 
ATOM     30  C   UNL     1     -11.582  -6.838  14.991  0.00  0.00    +0.000 A 
ENDBRANCH   5  25
ENDBRANCH  24   5
ENDBRANCH  21  24
TORSDOF 10
ENDMDL
MODEL 7
REMARK VINA RESULT:      -6.1      2.399      5.182
REMARK  Name = 28959636
REMARK  10 active torsions:
REMARK  status: ('A' for Active; 'I' for Inactive)
REMARK    1  A    between atoms: O_2  and  C_23
REMARK    2  A    between atoms: O_5  and  C_24
REMARK    3  A    between atoms: O_5  and  C_25
REMARK    4  A    between atoms: N_6  and  C_14
REMARK    5  A    between atoms: C_9  and  C_11
REMARK    6  A    between atoms: C_10  and  C_17
REMARK    7  A    between atoms: C_11  and  C_14
REMARK    8  A    between atoms: C_16  and  C_22
REMARK    9  A    between atoms: C_17  and  C_23
REMARK   10  A    between atoms: C_21  and  C_24
REMARK                            x       y       z     vdW  Elec       q    Type
REMARK                         _______ _______ _______ _____ _____    ______ ____
ROOT
ATOM      1  O   UNL     1      14.882   6.963  17.411  0.00  0.00    -0.272 OA
ATOM      7  N   UNL     1      15.703   6.871  19.582  0.00  0.00    -0.298 N 
ATOM      9  C   UNL     1      17.066   7.796  21.444  0.00  0.00    +0.011 C 
ATOM     10  C   UNL     1      18.140   6.720  21.141  0.00  0.00    +0.006 C 
ATOM     12  C   UNL     1      15.683   7.295  20.988  0.00  0.00    +0.111 C 
ATOM     13  C   UNL     1      18.093   6.269  19.671  0.00  0.00    +0.023 C 
ATOM     15  C   UNL     1      16.685   5.833  19.271  0.00  0.00    +0.108 C 
ATOM     21  C   UNL     1      14.863   7.356  18.581  0.00  0.00    +0.253 C 
ENDROOT
BRANCH   9  11
ATOM     11  C   UNL     1      17.366   9.166  20.825  0.00  0.00    +0.021 C 
BRANCH  11  14
ATOM     14  C   UNL     1      17.748  10.175  21.899  0.00  0.00    +0.085 C 
BRANCH  14   6
ATOM      6  N   UNL     1      17.092  11.449  21.638  0.00  0.00    -0.291 NA
ATOM     16  C   UNL     1      16.467  12.031  22.829  0.00  0.00    +0.143 C 
ATOM     18  C   UNL     1      18.022  12.454  21.123  0.00  0.00    +0.085 C 
ATOM     19  C   UNL     1      16.543  13.546  22.637  0.00  0.00    +0.029 C 
ATOM     20  C   UNL     1      17.226  13.733  21.291  0.00  0.00    +0.017 C 
BRANCH  16  22
ATOM      3  O   UNL     1      14.203  11.980  22.076  0.00  0.00    -0.274 OA
ATOM      8  N   UNL     1      14.795  10.632  23.844  0.00  0.00    -0.328 N 
ATOM     22  C   UNL     1      15.050  11.557  22.859  0.00  0.00    +0.228 C 
ATOM     31  H   UNL     1      15.512  10.307  24.485  0.00  0.00    +0.145 HD
ATOM     32  H   UNL     1      13.867  10.238  23.962  0.00  0.00    +0.145 HD
ENDBRANCH  16  22
ENDBRANCH  14   6
ENDBRANCH  11  14
ENDBRANCH   9  11
BRANCH  10  17
ATOM     17  C   UNL     1      19.554   7.158  21.525  0.00  0.00    +0.124 C 
BRANCH  17  23
ATOM      4  O   UNL     1      20.968   5.387  22.422  0.00  0.00    -0.251 OA
ATOM     23  C   UNL     1      20.140   6.270  22.587  0.00  0.00    +0.305 C 
BRANCH  23   2
ATOM      2  O   UNL     1      19.610   6.591  23.796  0.00  0.00    -0.481 OA
ATOM     33  H   UNL     1      18.966   7.328  23.729  0.00  0.00    +0.295 HD
ENDBRANCH  23   2
ENDBRANCH  17  23
ENDBRANCH  10  17
BRANCH  21  24
ATOM     24  C   UNL     1      13.881   8.427  18.981  0.00  0.00    +0.324 C 
BRANCH  24   5
ATOM      5  O   UNL     1      12.675   7.772  19.296  0.00  0.00    -0.483 OA
BRANCH   5  25
ATOM     25  C   UNL     1      11.968   8.238  20.383  0.00  0.00    +0.121 A 
ATOM     26  C   UNL     1      11.237   7.351  21.171  0.00  0.00    +0.045 A 
ATOM     27  C   UNL     1      11.985   9.598  20.693  0.00  0.00    +0.045 A 
ATOM     28  C   UNL     1      10.521   7.823  22.272  0.00  0.00    +0.004 A 
ATOM     29  C   UNL     1      11.269  10.069  21.794  0.00  0.00    +0.004 A 
ATOM     30  C   UNL     1      10.538   9.182  22.584  0.00  0.00    +0.000 A 
ENDBRANCH   5  25
ENDBRANCH  24   5
ENDBRANCH  21  24
TORSDOF 10
ENDMDL
MODEL 8
REMARK VINA RESULT:      -6.1     16.782     19.663
REMARK  Name = 28959636
REMARK  10 active torsions:
REMARK  status: ('A' for Active; 'I' for Inactive)
REMARK    1  A    between atoms: O_2  and  C_23
REMARK    2  A    between atoms: O_5  and  C_24
REMARK    3  A    between atoms: O_5  and  C_25
REMARK    4  A    between atoms: N_6  and  C_14
REMARK    5  A    between atoms: C_9  and  C_11
REMARK    6  A    between atoms: C_10  and  C_17
REMARK    7  A    between atoms: C_11  and  C_14
REMARK    8  A    between atoms: C_16  and  C_22
REMARK    9  A    between atoms: C_17  and  C_23
REMARK   10  A    between atoms: C_21  and  C_24
REMARK                            x       y       z     vdW  Elec       q    Type
REMARK                         _______ _______ _______ _____ _____    ______ ____
ROOT
ATOM      1  O   UNL     1      10.208   4.036   0.187  0.00  0.00    -0.272 OA
ATOM      7  N   UNL     1      12.441   3.684   0.723  0.00  0.00    -0.298 N 
ATOM      9  C   UNL     1      14.711   4.524   1.290  0.00  0.00    +0.011 C 
ATOM     10  C   UNL     1      15.152   4.197  -0.159  0.00  0.00    +0.006 C 
ATOM     12  C   UNL     1      13.538   3.611   1.697  0.00  0.00    +0.111 C 
ATOM     13  C   UNL     1      13.965   4.235  -1.136  0.00  0.00    +0.023 C 
ATOM     15  C   UNL     1      12.820   3.349  -0.650  0.00  0.00    +0.108 C 
ATOM     21  C   UNL     1      11.118   4.008   1.020  0.00  0.00    +0.253 C 
ENDROOT
BRANCH   9  11
ATOM     11  C   UNL     1      14.341   5.995   1.512  0.00  0.00    +0.021 C 
BRANCH  11  14
ATOM     14  C   UNL     1      14.796   6.468   2.886  0.00  0.00    +0.085 C 
BRANCH  14   6
ATOM      6  N   UNL     1      13.709   7.172   3.551  0.00  0.00    -0.291 NA
ATOM     16  C   UNL     1      14.172   8.104   4.584  0.00  0.00    +0.143 C 
ATOM     18  C   UNL     1      12.903   7.957   2.614  0.00  0.00    +0.085 C 
ATOM     19  C   UNL     1      13.146   9.237   4.608  0.00  0.00    +0.029 C 
ATOM     20  C   UNL     1      12.120   8.856   3.551  0.00  0.00    +0.017 C 
BRANCH  16  22
ATOM      3  O   UNL     1      15.094   7.480   6.695  0.00  0.00    -0.274 OA
ATOM      8  N   UNL     1      13.110   6.515   6.043  0.00  0.00    -0.328 N 
ATOM     22  C   UNL     1      14.187   7.355   5.877  0.00  0.00    +0.228 C 
ATOM     31  H   UNL     1      12.379   6.422   5.345  0.00  0.00    +0.145 HD
ATOM     32  H   UNL     1      13.012   5.952   6.882  0.00  0.00    +0.145 HD
ENDBRANCH  16  22
ENDBRANCH  14   6
ENDBRANCH  11  14
ENDBRANCH   9  11
BRANCH  10  17
ATOM     17  C   UNL     1      16.288   5.091  -0.657  0.00  0.00    +0.124 C 
BRANCH  17  23
ATOM      4  O   UNL     1      17.355   4.588  -2.790  0.00  0.00    -0.251 OA
ATOM     23  C   UNL     1      17.199   4.357  -1.601  0.00  0.00    +0.305 C 
BRANCH  23   2
ATOM      2  O   UNL     1      17.849   3.368  -0.933  0.00  0.00    -0.481 OA
ATOM     33  H   UNL     1      18.055   3.624  -0.009  0.00  0.00    +0.295 HD
ENDBRANCH  23   2
ENDBRANCH  17  23
ENDBRANCH  10  17
BRANCH  21  24
ATOM     24  C   UNL     1      10.810   4.343   2.457  0.00  0.00    +0.324 C 
BRANCH  24   5
ATOM      5  O   UNL     1      10.371   5.680   2.475  0.00  0.00    -0.483 OA
BRANCH   5  25
ATOM     25  C   UNL     1       9.662   6.098   3.579  0.00  0.00    +0.121 A 
ATOM     26  C   UNL     1       8.844   7.224   3.498  0.00  0.00    +0.045 A 
ATOM     27  C   UNL     1       9.763   5.394   4.779  0.00  0.00    +0.045 A 
ATOM     28  C   UNL     1       8.125   7.647   4.616  0.00  0.00    +0.004 A 
ATOM     29  C   UNL     1       9.044   5.817   5.897  0.00  0.00    +0.004 A 
ATOM     30  C   UNL     1       8.225   6.943   5.816  0.00  0.00    +0.000 A 
ENDBRANCH   5  25
ENDBRANCH  24   5
ENDBRANCH  21  24
TORSDOF 10
ENDMDL
MODEL 9
REMARK VINA RESULT:      -6.0     26.989     30.048
REMARK  Name = 28959636
REMARK  10 active torsions:
REMARK  status: ('A' for Active; 'I' for Inactive)
REMARK    1  A    between atoms: O_2  and  C_23
REMARK    2  A    between atoms: O_5  and  C_24
REMARK    3  A    between atoms: O_5  and  C_25
REMARK    4  A    between atoms: N_6  and  C_14
REMARK    5  A    between atoms: C_9  and  C_11
REMARK    6  A    between atoms: C_10  and  C_17
REMARK    7  A    between atoms: C_11  and  C_14
REMARK    8  A    between atoms: C_16  and  C_22
REMARK    9  A    between atoms: C_17  and  C_23
REMARK   10  A    between atoms: C_21  and  C_24
REMARK                            x       y       z     vdW  Elec       q    Type
REMARK                         _______ _______ _______ _____ _____    ______ ____
ROOT
ATOM      1  O   UNL     1      -7.919 -13.783  18.875  0.00  0.00    -0.272 OA
ATOM      7  N   UNL     1      -6.328 -12.101  18.692  0.00  0.00    -0.298 N 
ATOM      9  C   UNL     1      -5.319 -10.167  17.501  0.00  0.00    +0.011 C 
ATOM     10  C   UNL     1      -4.181 -11.104  17.022  0.00  0.00    +0.006 C 
ATOM     12  C   UNL     1      -5.912 -10.698  18.819  0.00  0.00    +0.111 C 
ATOM     13  C   UNL     1      -4.644 -12.569  16.952  0.00  0.00    +0.023 C 
ATOM     15  C   UNL     1      -5.266 -13.016  18.273  0.00  0.00    +0.108 C 
ATOM     21  C   UNL     1      -7.603 -12.593  18.964  0.00  0.00    +0.253 C 
ENDROOT
BRANCH   9  11
ATOM     11  C   UNL     1      -6.429  -9.956  16.465  0.00  0.00    +0.021 C 
BRANCH  11  14
ATOM     14  C   UNL     1      -7.570  -9.134  17.050  0.00  0.00    +0.085 C 
BRANCH  14   6
ATOM      6  N   UNL     1      -8.833  -9.545  16.454  0.00  0.00    -0.291 NA
ATOM     16  C   UNL     1      -9.314  -8.618  15.425  0.00  0.00    +0.143 C 
ATOM     18  C   UNL     1      -8.741 -10.861  15.817  0.00  0.00    +0.085 C 
ATOM     19  C   UNL     1     -10.090  -9.476  14.425  0.00  0.00    +0.029 C 
ATOM     20  C   UNL     1     -10.003 -10.891  14.978  0.00  0.00    +0.017 C 
BRANCH  16  22
ATOM      3  O   UNL     1     -11.046  -7.975  16.936  0.00  0.00    -0.274 OA
ATOM      8  N   UNL     1     -10.011  -6.333  15.701  0.00  0.00    -0.328 N 
ATOM     22  C   UNL     1     -10.208  -7.632  16.106  0.00  0.00    +0.228 C 
ATOM     31  H   UNL     1      -9.318  -6.078  15.004  0.00  0.00    +0.145 HD
ATOM     32  H   UNL     1     -10.561  -5.575  16.092  0.00  0.00    +0.145 HD
ENDBRANCH  16  22
ENDBRANCH  14   6
ENDBRANCH  11  14
ENDBRANCH   9  11
BRANCH  10  17
ATOM     17  C   UNL     1      -3.565 -10.670  15.692  0.00  0.00    +0.124 C 
BRANCH  17  23
ATOM      4  O   UNL     1      -1.691 -11.711  14.533  0.00  0.00    -0.251 OA
ATOM     23  C   UNL     1      -2.164 -11.191  15.532  0.00  0.00    +0.305 C 
BRANCH  23   2
ATOM      2  O   UNL     1      -1.471 -11.002  16.685  0.00  0.00    -0.481 OA
ATOM     33  H   UNL     1      -1.901 -10.339  17.266  0.00  0.00    +0.295 HD
ENDBRANCH  23   2
ENDBRANCH  17  23
ENDBRANCH  10  17
BRANCH  21  24
ATOM     24  C   UNL     1      -8.641 -11.586  19.388  0.00  0.00    +0.324 C 
BRANCH  24   5
ATOM      5  O   UNL     1      -9.639 -12.300  20.076  0.00  0.00    -0.483 OA
BRANCH   5  25
ATOM     25  C   UNL     1     -10.858 -11.680  20.244  0.00  0.00    +0.121 A 
ATOM     26  C   UNL     1     -11.925 -12.381  20.803  0.00  0.00    +0.045 A 
ATOM     27  C   UNL     1     -11.022 -10.351  19.856  0.00  0.00    +0.045 A 
ATOM     28  C   UNL     1     -13.159 -11.753  20.975  0.00  0.00    +0.004 A 
ATOM     29  C   UNL     1     -12.256  -9.723  20.027  0.00  0.00    +0.004 A 
ATOM     30  C   UNL     1     -13.324 -10.423  20.587  0.00  0.00    +0.000 A 
ENDBRANCH   5  25
ENDBRANCH  24   5
ENDBRANCH  21  24
TORSDOF 10
ENDMDL
MODEL 10
REMARK VINA RESULT:      -6.0     30.686     32.023
REMARK  Name = 28959636
REMARK  10 active torsions:
REMARK  status: ('A' for Active; 'I' for Inactive)
REMARK    1  A    between atoms: O_2  and  C_23
REMARK    2  A    between atoms: O_5  and  C_24
REMARK    3  A    between atoms: O_5  and  C_25
REMARK    4  A    between atoms: N_6  and  C_14
REMARK    5  A    between atoms: C_9  and  C_11
REMARK    6  A    between atoms: C_10  and  C_17
REMARK    7  A    between atoms: C_11  and  C_14
REMARK    8  A    between atoms: C_16  and  C_22
REMARK    9  A    between atoms: C_17  and  C_23
REMARK   10  A    between atoms: C_21  and  C_24
REMARK                            x       y       z     vdW  Elec       q    Type
REMARK                         _______ _______ _______ _____ _____    ______ ____
ROOT
ATOM      1  O   UNL     1     -16.819   7.631  28.545  0.00  0.00    -0.272 OA
ATOM      7  N   UNL     1     -17.754   5.612  27.879  0.00  0.00    -0.298 N 
ATOM      9  C   UNL     1     -17.588   3.177  27.407  0.00  0.00    +0.011 C 
ATOM     10  C   UNL     1     -17.575   3.510  25.893  0.00  0.00    +0.006 C 
ATOM     12  C   UNL     1     -18.320   4.290  28.180  0.00  0.00    +0.111 C 
ATOM     13  C   UNL     1     -17.023   4.921  25.628  0.00  0.00    +0.023 C 
ATOM     15  C   UNL     1     -17.757   5.969  26.460  0.00  0.00    +0.108 C 
ATOM     21  C   UNL     1     -17.265   6.514  28.822  0.00  0.00    +0.253 C 
ENDROOT
BRANCH   9  11
ATOM     11  C   UNL     1     -16.196   2.941  28.004  0.00  0.00    +0.021 C 
BRANCH  11  14
ATOM     14  C   UNL     1     -15.996   1.473  28.355  0.00  0.00    +0.085 C 
BRANCH  14   6
ATOM      6  N   UNL     1     -15.624   1.345  29.756  0.00  0.00    -0.291 NA
ATOM     16  C   UNL     1     -14.199   1.058  29.950  0.00  0.00    +0.143 C 
ATOM     18  C   UNL     1     -15.910   2.562  30.518  0.00  0.00    +0.085 C 
ATOM     19  C   UNL     1     -13.826   1.702  31.286  0.00  0.00    +0.029 C 
ATOM     20  C   UNL     1     -15.117   2.330  31.789  0.00  0.00    +0.017 C 
BRANCH  16  22
ATOM      3  O   UNL     1     -13.126  -1.015  29.450  0.00  0.00    -0.274 OA
ATOM      8  N   UNL     1     -15.056  -1.059  30.702  0.00  0.00    -0.328 N 
ATOM     22  C   UNL     1     -14.054  -0.429  30.003  0.00  0.00    +0.228 C 
ATOM     31  H   UNL     1     -15.818  -0.551  31.140  0.00  0.00    +0.145 HD
ATOM     32  H   UNL     1     -15.065  -2.069  30.805  0.00  0.00    +0.145 HD
ENDBRANCH  16  22
ENDBRANCH  14   6
ENDBRANCH  11  14
ENDBRANCH   9  11
BRANCH  10  17
ATOM     17  C   UNL     1     -16.827   2.472  25.056  0.00  0.00    +0.124 C 
BRANCH  17  23
ATOM      4  O   UNL     1     -16.833   2.114  22.645  0.00  0.00    -0.251 OA
ATOM     23  C   UNL     1     -17.434   2.320  23.689  0.00  0.00    +0.305 C 
BRANCH  23   2
ATOM      2  O   UNL     1     -18.784   2.448  23.770  0.00  0.00    -0.481 OA
ATOM     33  H   UNL     1     -19.215   1.607  24.032  0.00  0.00    +0.295 HD
ENDBRANCH  23   2
ENDBRANCH  17  23
ENDBRANCH  10  17
BRANCH  21  24
ATOM     24  C   UNL     1     -17.293   6.070  30.262  0.00  0.00    +0.324 C 
BRANCH  24   5
ATOM      5  O   UNL     1     -16.028   6.367  30.801  0.00  0.00    -0.483 OA
BRANCH   5  25
ATOM     25  C   UNL     1     -15.776   5.950  32.090  0.00  0.00    +0.121 A 
ATOM     26  C   UNL     1     -14.469   5.927  32.573  0.00  0.00    +0.045 A 
ATOM     27  C   UNL     1     -16.831   5.553  32.911  0.00  0.00    +0.045 A 
ATOM     28  C   UNL     1     -14.214   5.506  33.878  0.00  0.00    +0.004 A 
ATOM     29  C   UNL     1     -16.576   5.132  34.217  0.00  0.00    +0.004 A 
ATOM     30  C   UNL     1     -15.268   5.109  34.701  0.00  0.00    +0.000 A 
ENDBRANCH   5  25
ENDBRANCH  24   5
ENDBRANCH  21  24
TORSDOF 10
ENDMDL
