MODEL 1
REMARK VINA RESULT:      -7.5      0.000      0.000
REMARK  Name = 51136974
REMARK  8 active torsions:
REMARK  status: ('A' for Active; 'I' for Inactive)
REMARK    1  A    between atoms: O_2  and  C_12
REMARK    2  A    between atoms: O_3  and  C_19
REMARK    3  A    between atoms: N_5  and  C_10
REMARK    4  A    between atoms: N_6  and  C_20
REMARK    5  A    between atoms: N_7  and  C_16
REMARK    6  A    between atoms: C_11  and  C_16
REMARK    7  A    between atoms: C_13  and  C_19
REMARK    8  A    between atoms: C_21  and  C_24
REMARK                            x       y       z     vdW  Elec       q    Type
REMARK                         _______ _______ _______ _____ _____    ______ ____
ROOT
ATOM      1  O   UNL     1      18.594   8.471  20.755  0.00  0.00    -0.365 OA
ATOM     10  C   UNL     1      20.499   7.155  21.311  0.00  0.00    +0.118 C 
ATOM     11  C   UNL     1      19.131   7.137  20.615  0.00  0.00    +0.155 C 
ATOM     12  C   UNL     1      20.347   8.272  22.334  0.00  0.00    +0.165 C 
ATOM     13  C   UNL     1      19.502   9.264  21.542  0.00  0.00    +0.174 C 
ENDROOT
BRANCH  10   5
ATOM      5  N   UNL     1      20.965   5.887  21.844  0.00  0.00    -0.292 NA
ATOM      6  N   UNL     1      22.782   3.708  22.174  0.00  0.00    -0.327 N 
ATOM     14  C   UNL     1      22.218   6.071  22.587  0.00  0.00    +0.104 C 
ATOM     15  C   UNL     1      21.163   4.916  20.761  0.00  0.00    +0.104 C 
ATOM     17  C   UNL     1      22.691   4.751  23.202  0.00  0.00    +0.120 C 
ATOM     18  C   UNL     1      21.601   3.558  21.315  0.00  0.00    +0.120 C 
BRANCH   6  20
ATOM     20  C   UNL     1      23.579   2.581  22.399  0.00  0.00    +0.030 A 
ATOM     22  C   UNL     1      24.192   1.935  21.325  0.00  0.00    +0.023 A 
ATOM     23  C   UNL     1      23.761   2.102  23.696  0.00  0.00    +0.023 A 
ATOM     25  C   UNL     1      24.986   0.811  21.549  0.00  0.00    +0.002 A 
ATOM     26  C   UNL     1      24.556   0.979  23.920  0.00  0.00    +0.002 A 
ATOM     27  C   UNL     1      25.169   0.332  22.847  0.00  0.00    +0.000 A 
ENDBRANCH   6  20
ENDBRANCH  10   5
BRANCH  12   2
ATOM      2  O   UNL     1      19.643   7.831  23.486  0.00  0.00    -0.388 OA
ATOM     34  H   UNL     1      19.425   6.892  23.357  0.00  0.00    +0.210 HD
ENDBRANCH  12   2
BRANCH  11  16
ATOM     16  C   UNL     1      18.093   6.170  21.172  0.00  0.00    +0.137 C 
BRANCH  16   7
ATOM      4  O   UNL     1      16.530   5.690  18.812  0.00  0.00    -0.270 OA
ATOM      7  N   UNL     1      16.764   6.638  20.917  0.00  0.00    -0.309 N 
ATOM     21  C   UNL     1      16.076   6.356  19.740  0.00  0.00    +0.244 C 
ATOM     35  H   UNL     1      16.359   7.254  21.614  0.00  0.00    +0.149 HD
BRANCH  21  24
ATOM      8  N   UNL     1      11.550   7.681  21.418  0.00  0.00    -0.344 N 
ATOM      9  N   UNL     1      10.879   8.516  19.471  0.00  0.00    -0.236 NA
ATOM     24  C   UNL     1      14.714   6.938  19.617  0.00  0.00    +0.039 A 
ATOM     28  C   UNL     1      13.873   6.949  20.734  0.00  0.00    +0.040 A 
ATOM     29  C   UNL     1      14.298   7.461  18.391  0.00  0.00    +0.015 A 
ATOM     30  C   UNL     1      12.606   7.506  20.561  0.00  0.00    +0.067 A 
ATOM     31  C   UNL     1      13.021   8.016  18.240  0.00  0.00    +0.030 A 
ATOM     32  C   UNL     1      12.163   8.036  19.353  0.00  0.00    +0.089 A 
ATOM     33  C   UNL     1      10.543   8.287  20.720  0.00  0.00    +0.197 A 
ATOM     37  H   UNL     1      11.521   7.410  22.392  0.00  0.00    +0.167 HD
ENDBRANCH  21  24
ENDBRANCH  16   7
ENDBRANCH  11  16
BRANCH  13  19
ATOM     19  C   UNL     1      18.710  10.256  22.374  0.00  0.00    +0.190 C 
BRANCH  19   3
ATOM      3  O   UNL     1      17.360   9.828  22.435  0.00  0.00    -0.392 OA
ATOM     36  H   UNL     1      17.020   9.818  21.523  0.00  0.00    +0.210 HD
ENDBRANCH  19   3
ENDBRANCH  13  19
TORSDOF 8
ENDMDL
MODEL 2
REMARK VINA RESULT:      -7.1      4.161      7.022
REMARK  Name = 51136974
REMARK  8 active torsions:
REMARK  status: ('A' for Active; 'I' for Inactive)
REMARK    1  A    between atoms: O_2  and  C_12
REMARK    2  A    between atoms: O_3  and  C_19
REMARK    3  A    between atoms: N_5  and  C_10
REMARK    4  A    between atoms: N_6  and  C_20
REMARK    5  A    between atoms: N_7  and  C_16
REMARK    6  A    between atoms: C_11  and  C_16
REMARK    7  A    between atoms: C_13  and  C_19
REMARK    8  A    between atoms: C_21  and  C_24
REMARK                            x       y       z     vdW  Elec       q    Type
REMARK                         _______ _______ _______ _____ _____    ______ ____
ROOT
ATOM      1  O   UNL     1      12.020   8.876  19.119  0.00  0.00    -0.365 OA
ATOM     10  C   UNL     1      13.968   7.516  19.273  0.00  0.00    +0.118 C 
ATOM     11  C   UNL     1      13.189   8.658  19.939  0.00  0.00    +0.155 C 
ATOM     12  C   UNL     1      13.543   7.617  17.816  0.00  0.00    +0.165 C 
ATOM     13  C   UNL     1      12.076   8.001  17.977  0.00  0.00    +0.174 C 
ENDROOT
BRANCH  10   5
ATOM      5  N   UNL     1      15.402   7.498  19.500  0.00  0.00    -0.292 NA
ATOM      6  N   UNL     1      17.857   6.532  20.595  0.00  0.00    -0.327 N 
ATOM     14  C   UNL     1      15.984   6.238  19.022  0.00  0.00    +0.104 C 
ATOM     15  C   UNL     1      15.699   7.677  20.927  0.00  0.00    +0.104 C 
ATOM     17  C   UNL     1      17.504   6.229  19.204  0.00  0.00    +0.120 C 
ATOM     18  C   UNL     1      17.210   7.717  21.172  0.00  0.00    +0.120 C 
BRANCH   6  20
ATOM     20  C   UNL     1      19.113   6.165  21.087  0.00  0.00    +0.030 A 
ATOM     22  C   UNL     1      19.906   5.264  20.376  0.00  0.00    +0.023 A 
ATOM     23  C   UNL     1      19.575   6.699  22.290  0.00  0.00    +0.023 A 
ATOM     25  C   UNL     1      21.159   4.898  20.867  0.00  0.00    +0.002 A 
ATOM     26  C   UNL     1      20.827   6.334  22.782  0.00  0.00    +0.002 A 
ATOM     27  C   UNL     1      21.620   5.432  22.070  0.00  0.00    +0.000 A 
ENDBRANCH   6  20
ENDBRANCH  10   5
BRANCH  12   2
ATOM      2  O   UNL     1      14.252   8.644  17.136  0.00  0.00    -0.388 OA
ATOM     34  H   UNL     1      14.055   9.484  17.584  0.00  0.00    +0.210 HD
ENDBRANCH  12   2
BRANCH  11  16
ATOM     16  C   UNL     1      13.910   9.995  20.064  0.00  0.00    +0.137 C 
BRANCH  16   7
ATOM      4  O   UNL     1      14.240  10.314  22.899  0.00  0.00    -0.270 OA
ATOM      7  N   UNL     1      13.187  10.893  20.914  0.00  0.00    -0.309 N 
ATOM     21  C   UNL     1      13.412  10.983  22.285  0.00  0.00    +0.244 C 
ATOM     35  H   UNL     1      12.439  11.423  20.480  0.00  0.00    +0.149 HD
BRANCH  21  24
ATOM      8  N   UNL     1      12.054  13.677  26.279  0.00  0.00    -0.344 N 
ATOM      9  N   UNL     1      10.300  14.605  25.277  0.00  0.00    -0.236 NA
ATOM     24  C   UNL     1      12.560  11.945  23.031  0.00  0.00    +0.039 A 
ATOM     28  C   UNL     1      12.877  12.251  24.358  0.00  0.00    +0.040 A 
ATOM     29  C   UNL     1      11.459  12.524  22.396  0.00  0.00    +0.015 A 
ATOM     30  C   UNL     1      12.042  13.160  25.010  0.00  0.00    +0.067 A 
ATOM     31  C   UNL     1      10.635  13.434  23.069  0.00  0.00    +0.030 A 
ATOM     32  C   UNL     1      10.939  13.754  24.404  0.00  0.00    +0.089 A 
ATOM     33  C   UNL     1      10.994  14.534  26.390  0.00  0.00    +0.197 A 
ATOM     37  H   UNL     1      12.726  13.463  27.004  0.00  0.00    +0.167 HD
ENDBRANCH  21  24
ENDBRANCH  16   7
ENDBRANCH  11  16
BRANCH  13  19
ATOM     19  C   UNL     1      11.449   8.695  16.782  0.00  0.00    +0.190 C 
BRANCH  19   3
ATOM      3  O   UNL     1      10.228   8.047  16.464  0.00  0.00    -0.392 OA
ATOM     36  H   UNL     1       9.647   8.713  16.056  0.00  0.00    +0.210 HD
ENDBRANCH  19   3
ENDBRANCH  13  19
TORSDOF 8
ENDMDL
MODEL 3
REMARK VINA RESULT:      -7.0      4.164      9.686
REMARK  Name = 51136974
REMARK  8 active torsions:
REMARK  status: ('A' for Active; 'I' for Inactive)
REMARK    1  A    between atoms: O_2  and  C_12
REMARK    2  A    between atoms: O_3  and  C_19
REMARK    3  A    between atoms: N_5  and  C_10
REMARK    4  A    between atoms: N_6  and  C_20
REMARK    5  A    between atoms: N_7  and  C_16
REMARK    6  A    between atoms: C_11  and  C_16
REMARK    7  A    between atoms: C_13  and  C_19
REMARK    8  A    between atoms: C_21  and  C_24
REMARK                            x       y       z     vdW  Elec       q    Type
REMARK                         _______ _______ _______ _____ _____    ______ ____
ROOT
ATOM      1  O   UNL     1      10.894   7.634  20.446  0.00  0.00    -0.365 OA
ATOM     10  C   UNL     1      12.049   9.340  19.253  0.00  0.00    +0.118 C 
ATOM     11  C   UNL     1      11.617   7.869  19.217  0.00  0.00    +0.155 C 
ATOM     12  C   UNL     1      12.114   9.641  20.743  0.00  0.00    +0.165 C 
ATOM     13  C   UNL     1      10.923   8.833  21.244  0.00  0.00    +0.174 C 
ENDROOT
BRANCH  10   5
ATOM      5  N   UNL     1      13.246   9.677  18.501  0.00  0.00    -0.292 NA
ATOM      6  N   UNL     1      14.790  11.079  16.550  0.00  0.00    -0.327 N 
ATOM     14  C   UNL     1      13.606  11.085  18.710  0.00  0.00    +0.104 C 
ATOM     15  C   UNL     1      13.043   9.420  17.070  0.00  0.00    +0.104 C 
ATOM     17  C   UNL     1      14.897  11.438  17.968  0.00  0.00    +0.120 C 
ATOM     18  C   UNL     1      14.316   9.717  16.273  0.00  0.00    +0.120 C 
BRANCH   6  20
ATOM     20  C   UNL     1      15.639  11.681  15.616  0.00  0.00    +0.030 A 
ATOM     22  C   UNL     1      16.730  12.436  16.048  0.00  0.00    +0.023 A 
ATOM     23  C   UNL     1      15.396  11.527  14.251  0.00  0.00    +0.023 A 
ATOM     25  C   UNL     1      17.576  13.036  15.116  0.00  0.00    +0.002 A 
ATOM     26  C   UNL     1      16.243  12.126  13.319  0.00  0.00    +0.002 A 
ATOM     27  C   UNL     1      17.333  12.882  13.751  0.00  0.00    +0.000 A 
ENDBRANCH   6  20
ENDBRANCH  10   5
BRANCH  12   2
ATOM      2  O   UNL     1      13.319   9.159  21.320  0.00  0.00    -0.388 OA
ATOM     34  H   UNL     1      13.987   9.861  21.237  0.00  0.00    +0.210 HD
ENDBRANCH  12   2
BRANCH  11  16
ATOM     16  C   UNL     1      12.731   6.830  19.142  0.00  0.00    +0.137 C 
BRANCH  16   7
ATOM      4  O   UNL     1      15.451   6.230  18.446  0.00  0.00    -0.270 OA
ATOM      7  N   UNL     1      13.906   7.286  19.819  0.00  0.00    -0.309 N 
ATOM     21  C   UNL     1      15.194   6.946  19.411  0.00  0.00    +0.244 C 
ATOM     35  H   UNL     1      13.762   7.823  20.667  0.00  0.00    +0.149 HD
BRANCH  21  24
ATOM      8  N   UNL     1      19.237   6.579  22.340  0.00  0.00    -0.344 N 
ATOM      9  N   UNL     1      19.480   8.776  22.578  0.00  0.00    -0.236 NA
ATOM     24  C   UNL     1      16.309   7.479  20.236  0.00  0.00    +0.039 A 
ATOM     28  C   UNL     1      17.190   6.585  20.853  0.00  0.00    +0.040 A 
ATOM     29  C   UNL     1      16.457   8.860  20.383  0.00  0.00    +0.015 A 
ATOM     30  C   UNL     1      18.218   7.141  21.615  0.00  0.00    +0.067 A 
ATOM     31  C   UNL     1      17.496   9.396  21.153  0.00  0.00    +0.030 A 
ATOM     32  C   UNL     1      18.391   8.512  21.779  0.00  0.00    +0.089 A 
ATOM     33  C   UNL     1      19.963   7.595  22.896  0.00  0.00    +0.197 A 
ATOM     37  H   UNL     1      19.419   5.590  22.444  0.00  0.00    +0.167 HD
ENDBRANCH  21  24
ENDBRANCH  16   7
ENDBRANCH  11  16
BRANCH  13  19
ATOM     19  C   UNL     1      10.963   8.455  22.713  0.00  0.00    +0.190 C 
BRANCH  19   3
ATOM      3  O   UNL     1      11.293   9.605  23.474  0.00  0.00    -0.392 OA
ATOM     36  H   UNL     1      11.311   9.337  24.409  0.00  0.00    +0.210 HD
ENDBRANCH  19   3
ENDBRANCH  13  19
TORSDOF 8
ENDMDL
MODEL 4
REMARK VINA RESULT:      -7.0      8.452     12.954
REMARK  Name = 51136974
REMARK  8 active torsions:
REMARK  status: ('A' for Active; 'I' for Inactive)
REMARK    1  A    between atoms: O_2  and  C_12
REMARK    2  A    between atoms: O_3  and  C_19
REMARK    3  A    between atoms: N_5  and  C_10
REMARK    4  A    between atoms: N_6  and  C_20
REMARK    5  A    between atoms: N_7  and  C_16
REMARK    6  A    between atoms: C_11  and  C_16
REMARK    7  A    between atoms: C_13  and  C_19
REMARK    8  A    between atoms: C_21  and  C_24
REMARK                            x       y       z     vdW  Elec       q    Type
REMARK                         _______ _______ _______ _____ _____    ______ ____
ROOT
ATOM      1  O   UNL     1      17.141  12.074  15.008  0.00  0.00    -0.365 OA
ATOM     10  C   UNL     1      15.415  12.782  13.529  0.00  0.00    +0.118 C 
ATOM     11  C   UNL     1      15.712  11.989  14.809  0.00  0.00    +0.155 C 
ATOM     12  C   UNL     1      16.726  12.699  12.763  0.00  0.00    +0.165 C 
ATOM     13  C   UNL     1      17.728  12.796  13.909  0.00  0.00    +0.174 C 
ENDROOT
BRANCH  10   5
ATOM      5  N   UNL     1      14.236  12.379  12.783  0.00  0.00    -0.292 NA
ATOM      6  N   UNL     1      11.758  12.765  11.415  0.00  0.00    -0.327 N 
ATOM     14  C   UNL     1      14.206  13.038  11.471  0.00  0.00    +0.104 C 
ATOM     15  C   UNL     1      13.016  12.704  13.534  0.00  0.00    +0.104 C 
ATOM     17  C   UNL     1      12.997  12.579  10.652  0.00  0.00    +0.120 C 
ATOM     18  C   UNL     1      11.768  12.233  12.784  0.00  0.00    +0.120 C 
BRANCH   6  20
ATOM     20  C   UNL     1      10.533  12.827  10.743  0.00  0.00    +0.030 A 
ATOM     22  C   UNL     1       9.581  11.826  10.934  0.00  0.00    +0.023 A 
ATOM     23  C   UNL     1      10.263  13.891   9.882  0.00  0.00    +0.023 A 
ATOM     25  C   UNL     1       8.359  11.889  10.264  0.00  0.00    +0.002 A 
ATOM     26  C   UNL     1       9.041  13.954   9.213  0.00  0.00    +0.002 A 
ATOM     27  C   UNL     1       8.089  12.952   9.403  0.00  0.00    +0.000 A 
ENDBRANCH   6  20
ENDBRANCH  10   5
BRANCH  12   2
ATOM      2  O   UNL     1      16.860  11.454  12.092  0.00  0.00    -0.388 OA
ATOM     34  H   UNL     1      17.682  11.486  11.573  0.00  0.00    +0.210 HD
ENDBRANCH  12   2
BRANCH  11  16
ATOM     16  C   UNL     1      15.344  10.510  14.798  0.00  0.00    +0.137 C 
BRANCH  16   7
ATOM      4  O   UNL     1      13.413   8.422  15.195  0.00  0.00    -0.270 OA
ATOM      7  N   UNL     1      14.753  10.118  16.042  0.00  0.00    -0.309 N 
ATOM     21  C   UNL     1      13.820   9.088  16.144  0.00  0.00    +0.244 C 
ATOM     35  H   UNL     1      14.993  10.675  16.854  0.00  0.00    +0.149 HD
BRANCH  21  24
ATOM      8  N   UNL     1      12.140   6.182  19.858  0.00  0.00    -0.344 N 
ATOM      9  N   UNL     1      11.772   7.874  21.251  0.00  0.00    -0.236 NA
ATOM     24  C   UNL     1      13.281   8.821  17.503  0.00  0.00    +0.039 A 
ATOM     28  C   UNL     1      13.012   7.502  17.883  0.00  0.00    +0.040 A 
ATOM     29  C   UNL     1      13.051   9.888  18.374  0.00  0.00    +0.015 A 
ATOM     30  C   UNL     1      12.507   7.310  19.169  0.00  0.00    +0.067 A 
ATOM     31  C   UNL     1      12.544   9.671  19.661  0.00  0.00    +0.030 A 
ATOM     32  C   UNL     1      12.268   8.352  20.060  0.00  0.00    +0.089 A 
ATOM     33  C   UNL     1      11.708   6.571  21.095  0.00  0.00    +0.197 A 
ATOM     37  H   UNL     1      12.182   5.233  19.512  0.00  0.00    +0.167 HD
ENDBRANCH  21  24
ENDBRANCH  16   7
ENDBRANCH  11  16
BRANCH  13  19
ATOM     19  C   UNL     1      19.107  12.233  13.619  0.00  0.00    +0.190 C 
BRANCH  19   3
ATOM      3  O   UNL     1      19.169  10.901  14.100  0.00  0.00    -0.392 OA
ATOM     36  H   UNL     1      19.654  10.922  14.943  0.00  0.00    +0.210 HD
ENDBRANCH  19   3
ENDBRANCH  13  19
TORSDOF 8
ENDMDL
MODEL 5
REMARK VINA RESULT:      -6.9     27.706     33.157
REMARK  Name = 51136974
REMARK  8 active torsions:
REMARK  status: ('A' for Active; 'I' for Inactive)
REMARK    1  A    between atoms: O_2  and  C_12
REMARK    2  A    between atoms: O_3  and  C_19
REMARK    3  A    between atoms: N_5  and  C_10
REMARK    4  A    between atoms: N_6  and  C_20
REMARK    5  A    between atoms: N_7  and  C_16
REMARK    6  A    between atoms: C_11  and  C_16
REMARK    7  A    between atoms: C_13  and  C_19
REMARK    8  A    between atoms: C_21  and  C_24
REMARK                            x       y       z     vdW  Elec       q    Type
REMARK                         _______ _______ _______ _____ _____    ______ ____
ROOT
ATOM      1  O   UNL     1      -9.568 -11.725  17.031  0.00  0.00    -0.365 OA
ATOM     10  C   UNL     1     -10.724  -9.678  16.650  0.00  0.00    +0.118 C 
ATOM     11  C   UNL     1     -10.265 -10.990  16.000  0.00  0.00    +0.155 C 
ATOM     12  C   UNL     1      -9.714  -9.481  17.771  0.00  0.00    +0.165 C 
ATOM     13  C   UNL     1      -9.515 -10.922  18.226  0.00  0.00    +0.174 C 
ENDROOT
BRANCH  10   5
ATOM      5  N   UNL     1     -10.888  -8.543  15.759  0.00  0.00    -0.292 NA
ATOM      6  N   UNL     1     -12.320  -6.462  14.425  0.00  0.00    -0.327 N 
ATOM     14  C   UNL     1     -11.356  -7.367  16.504  0.00  0.00    +0.104 C 
ATOM     15  C   UNL     1     -11.837  -8.865  14.686  0.00  0.00    +0.104 C 
ATOM     17  C   UNL     1     -11.480  -6.148  15.586  0.00  0.00    +0.120 C 
ATOM     18  C   UNL     1     -11.977  -7.696  13.707  0.00  0.00    +0.120 C 
BRANCH   6  20
ATOM     20  C   UNL     1     -12.917  -5.425  13.701  0.00  0.00    +0.030 A 
ATOM     22  C   UNL     1     -14.303  -5.274  13.713  0.00  0.00    +0.023 A 
ATOM     23  C   UNL     1     -12.126  -4.542  12.965  0.00  0.00    +0.023 A 
ATOM     25  C   UNL     1     -14.899  -4.240  12.990  0.00  0.00    +0.002 A 
ATOM     26  C   UNL     1     -12.721  -3.508  12.243  0.00  0.00    +0.002 A 
ATOM     27  C   UNL     1     -14.108  -3.357  12.255  0.00  0.00    +0.000 A 
ENDBRANCH   6  20
ENDBRANCH  10   5
BRANCH  12   2
ATOM      2  O   UNL     1      -8.493  -8.941  17.284  0.00  0.00    -0.388 OA
ATOM     34  H   UNL     1      -7.802  -9.140  17.938  0.00  0.00    +0.210 HD
ENDBRANCH  12   2
BRANCH  11  16
ATOM     16  C   UNL     1      -9.318 -10.870  14.811  0.00  0.00    +0.137 C 
BRANCH  16   7
ATOM      4  O   UNL     1      -7.076  -9.726  13.429  0.00  0.00    -0.270 OA
ATOM      7  N   UNL     1      -7.951 -10.887  15.238  0.00  0.00    -0.309 N 
ATOM     21  C   UNL     1      -6.922 -10.304  14.503  0.00  0.00    +0.244 C 
ATOM     35  H   UNL     1      -7.746 -11.412  16.081  0.00  0.00    +0.149 HD
BRANCH  21  24
ATOM      8  N   UNL     1      -1.953 -10.863  14.258  0.00  0.00    -0.344 N 
ATOM      9  N   UNL     1      -1.662 -10.801  16.461  0.00  0.00    -0.236 NA
ATOM     24  C   UNL     1      -5.554 -10.431  15.069  0.00  0.00    +0.039 A 
ATOM     28  C   UNL     1      -4.468 -10.588  14.202  0.00  0.00    +0.040 A 
ATOM     29  C   UNL     1      -5.377 -10.392  16.454  0.00  0.00    +0.015 A 
ATOM     30  C   UNL     1      -3.208 -10.703  14.789  0.00  0.00    +0.067 A 
ATOM     31  C   UNL     1      -4.102 -10.508  17.021  0.00  0.00    +0.030 A 
ATOM     32  C   UNL     1      -2.999 -10.667  16.164  0.00  0.00    +0.089 A 
ATOM     33  C   UNL     1      -1.065 -10.917  15.296  0.00  0.00    +0.197 A 
ATOM     37  H   UNL     1      -1.727 -10.930  13.275  0.00  0.00    +0.167 HD
ENDBRANCH  21  24
ENDBRANCH  16   7
ENDBRANCH  11  16
BRANCH  13  19
ATOM     19  C   UNL     1      -8.215 -11.201  18.958  0.00  0.00    +0.190 C 
BRANCH  19   3
ATOM      3  O   UNL     1      -8.141 -10.360  20.097  0.00  0.00    -0.392 OA
ATOM     36  H   UNL     1      -8.959  -9.834  20.120  0.00  0.00    +0.210 HD
ENDBRANCH  19   3
ENDBRANCH  13  19
TORSDOF 8
ENDMDL
MODEL 6
REMARK VINA RESULT:      -6.9     29.129     32.671
REMARK  Name = 51136974
REMARK  8 active torsions:
REMARK  status: ('A' for Active; 'I' for Inactive)
REMARK    1  A    between atoms: O_2  and  C_12
REMARK    2  A    between atoms: O_3  and  C_19
REMARK    3  A    between atoms: N_5  and  C_10
REMARK    4  A    between atoms: N_6  and  C_20
REMARK    5  A    between atoms: N_7  and  C_16
REMARK    6  A    between atoms: C_11  and  C_16
REMARK    7  A    between atoms: C_13  and  C_19
REMARK    8  A    between atoms: C_21  and  C_24
REMARK                            x       y       z     vdW  Elec       q    Type
REMARK                         _______ _______ _______ _____ _____    ______ ____
ROOT
ATOM      1  O   UNL     1      -9.633  -7.991   5.852  0.00  0.00    -0.365 OA
ATOM     10  C   UNL     1      -7.913  -9.072   7.094  0.00  0.00    +0.118 C 
ATOM     11  C   UNL     1      -9.034  -8.026   7.167  0.00  0.00    +0.155 C 
ATOM     12  C   UNL     1      -7.539  -9.070   5.620  0.00  0.00    +0.165 C 
ATOM     13  C   UNL     1      -8.912  -8.883   4.982  0.00  0.00    +0.174 C 
ENDROOT
BRANCH  10   5
ATOM      5  N   UNL     1      -6.804  -8.889   8.014  0.00  0.00    -0.292 NA
ATOM      6  N   UNL     1      -4.956  -9.653  10.054  0.00  0.00    -0.327 N 
ATOM     14  C   UNL     1      -5.731  -9.848   7.723  0.00  0.00    +0.104 C 
ATOM     15  C   UNL     1      -7.256  -9.050   9.402  0.00  0.00    +0.104 C 
ATOM     17  C   UNL     1      -4.532  -9.629   8.650  0.00  0.00    +0.120 C 
ATOM     18  C   UNL     1      -6.108  -8.805  10.385  0.00  0.00    +0.120 C 
BRANCH   6  20
ATOM     20  C   UNL     1      -4.016  -9.905  11.058  0.00  0.00    +0.030 A 
ATOM     22  C   UNL     1      -4.437 -10.341  12.314  0.00  0.00    +0.023 A 
ATOM     23  C   UNL     1      -2.657  -9.721  10.804  0.00  0.00    +0.023 A 
ATOM     25  C   UNL     1      -3.499 -10.592  13.316  0.00  0.00    +0.002 A 
ATOM     26  C   UNL     1      -1.719  -9.973  11.804  0.00  0.00    +0.002 A 
ATOM     27  C   UNL     1      -2.140 -10.408  13.062  0.00  0.00    +0.000 A 
ENDBRANCH   6  20
ENDBRANCH  10   5
BRANCH  12   2
ATOM      2  O   UNL     1      -6.690  -7.977   5.298  0.00  0.00    -0.388 OA
ATOM     34  H   UNL     1      -7.046  -7.553   4.499  0.00  0.00    +0.210 HD
ENDBRANCH  12   2
BRANCH  11  16
ATOM     16  C   UNL     1      -8.618  -6.601   7.513  0.00  0.00    +0.137 C 
BRANCH  16   7
ATOM      4  O   UNL     1     -11.390  -5.850   7.493  0.00  0.00    -0.270 OA
ATOM      7  N   UNL     1      -9.375  -6.098   8.619  0.00  0.00    -0.309 N 
ATOM     21  C   UNL     1     -10.722  -5.757   8.521  0.00  0.00    +0.244 C 
ATOM     35  H   UNL     1      -8.865  -5.929   9.479  0.00  0.00    +0.149 HD
BRANCH  21  24
ATOM      8  N   UNL     1     -13.077  -6.124  12.923  0.00  0.00    -0.344 N 
ATOM      9  N   UNL     1     -13.174  -3.928  13.253  0.00  0.00    -0.236 NA
ATOM     24  C   UNL     1     -11.359  -5.224   9.753  0.00  0.00    +0.039 A 
ATOM     28  C   UNL     1     -11.889  -6.118  10.689  0.00  0.00    +0.040 A 
ATOM     29  C   UNL     1     -11.417  -3.844   9.955  0.00  0.00    +0.015 A 
ATOM     30  C   UNL     1     -12.475  -5.562  11.827  0.00  0.00    +0.067 A 
ATOM     31  C   UNL     1     -12.010  -3.308  11.105  0.00  0.00    +0.030 A 
ATOM     32  C   UNL     1     -12.548  -4.192  12.057  0.00  0.00    +0.089 A 
ATOM     33  C   UNL     1     -13.478  -5.108  13.745  0.00  0.00    +0.197 A 
ATOM     37  H   UNL     1     -13.202  -7.113  13.093  0.00  0.00    +0.167 HD
ENDBRANCH  21  24
ENDBRANCH  16   7
ENDBRANCH  11  16
BRANCH  13  19
ATOM     19  C   UNL     1      -8.905  -8.315   3.575  0.00  0.00    +0.190 C 
BRANCH  19   3
ATOM      3  O   UNL     1      -8.712  -6.912   3.649  0.00  0.00    -0.392 OA
ATOM     36  H   UNL     1      -8.876  -6.646   4.570  0.00  0.00    +0.210 HD
ENDBRANCH  19   3
ENDBRANCH  13  19
TORSDOF 8
ENDMDL
MODEL 7
REMARK VINA RESULT:      -6.9      7.910     10.467
REMARK  Name = 51136974
REMARK  8 active torsions:
REMARK  status: ('A' for Active; 'I' for Inactive)
REMARK    1  A    between atoms: O_2  and  C_12
REMARK    2  A    between atoms: O_3  and  C_19
REMARK    3  A    between atoms: N_5  and  C_10
REMARK    4  A    between atoms: N_6  and  C_20
REMARK    5  A    between atoms: N_7  and  C_16
REMARK    6  A    between atoms: C_11  and  C_16
REMARK    7  A    between atoms: C_13  and  C_19
REMARK    8  A    between atoms: C_21  and  C_24
REMARK                            x       y       z     vdW  Elec       q    Type
REMARK                         _______ _______ _______ _____ _____    ______ ____
ROOT
ATOM      1  O   UNL     1      12.369   8.171  21.953  0.00  0.00    -0.365 OA
ATOM     10  C   UNL     1      13.565   8.639  19.948  0.00  0.00    +0.118 C 
ATOM     11  C   UNL     1      12.964   9.262  21.215  0.00  0.00    +0.155 C 
ATOM     12  C   UNL     1      12.716   7.392  19.744  0.00  0.00    +0.165 C 
ATOM     13  C   UNL     1      12.506   6.957  21.190  0.00  0.00    +0.174 C 
ENDROOT
BRANCH  10   5
ATOM      5  N   UNL     1      13.670   9.511  18.791  0.00  0.00    -0.292 NA
ATOM      6  N   UNL     1      14.999  10.837  16.638  0.00  0.00    -0.327 N 
ATOM     14  C   UNL     1      14.116   8.754  17.615  0.00  0.00    +0.104 C 
ATOM     15  C   UNL     1      14.603  10.612  19.061  0.00  0.00    +0.104 C 
ATOM     17  C   UNL     1      14.178   9.650  16.375  0.00  0.00    +0.120 C 
ATOM     18  C   UNL     1      14.681  11.570  17.870  0.00  0.00    +0.120 C 
BRANCH   6  20
ATOM     20  C   UNL     1      15.544  11.554  15.569  0.00  0.00    +0.030 A 
ATOM     22  C   UNL     1      15.466  11.043  14.273  0.00  0.00    +0.023 A 
ATOM     23  C   UNL     1      16.166  12.782  15.797  0.00  0.00    +0.023 A 
ATOM     25  C   UNL     1      16.010  11.759  13.207  0.00  0.00    +0.002 A 
ATOM     26  C   UNL     1      16.709  13.498  14.731  0.00  0.00    +0.002 A 
ATOM     27  C   UNL     1      16.631  12.987  13.435  0.00  0.00    +0.000 A 
ENDBRANCH   6  20
ENDBRANCH  10   5
BRANCH  12   2
ATOM      2  O   UNL     1      11.471   7.703  19.134  0.00  0.00    -0.388 OA
ATOM     34  H   UNL     1      10.844   7.927  19.843  0.00  0.00    +0.210 HD
ENDBRANCH  12   2
BRANCH  11  16
ATOM     16  C   UNL     1      11.881  10.315  21.012  0.00  0.00    +0.137 C 
BRANCH  16   7
ATOM      4  O   UNL     1      10.406  10.241  23.474  0.00  0.00    -0.270 OA
ATOM      7  N   UNL     1      11.912  11.294  22.057  0.00  0.00    -0.309 N 
ATOM     21  C   UNL     1      11.161  11.178  23.224  0.00  0.00    +0.244 C 
ATOM     35  H   UNL     1      12.462  12.128  21.880  0.00  0.00    +0.149 HD
BRANCH  21  24
ATOM      8  N   UNL     1      13.292  13.668  27.008  0.00  0.00    -0.344 N 
ATOM      9  N   UNL     1      11.795  15.311  27.000  0.00  0.00    -0.236 NA
ATOM     24  C   UNL     1      11.285  12.291  24.200  0.00  0.00    +0.039 A 
ATOM     28  C   UNL     1      12.345  12.286  25.112  0.00  0.00    +0.040 A 
ATOM     29  C   UNL     1      10.341  13.321  24.191  0.00  0.00    +0.015 A 
ATOM     30  C   UNL     1      12.411  13.356  26.005  0.00  0.00    +0.067 A 
ATOM     31  C   UNL     1      10.427  14.385  25.096  0.00  0.00    +0.030 A 
ATOM     32  C   UNL     1      11.487  14.397  26.020  0.00  0.00    +0.089 A 
ATOM     33  C   UNL     1      12.882  14.843  27.573  0.00  0.00    +0.197 A 
ATOM     37  H   UNL     1      14.100  13.125  27.281  0.00  0.00    +0.167 HD
ENDBRANCH  21  24
ENDBRANCH  16   7
ENDBRANCH  11  16
BRANCH  13  19
ATOM     19  C   UNL     1      11.298   6.072  21.436  0.00  0.00    +0.190 C 
BRANCH  19   3
ATOM      3  O   UNL     1      10.140   6.887  21.510  0.00  0.00    -0.392 OA
ATOM     36  H   UNL     1       9.612   6.569  22.262  0.00  0.00    +0.210 HD
ENDBRANCH  19   3
ENDBRANCH  13  19
TORSDOF 8
ENDMDL
MODEL 8
REMARK VINA RESULT:      -6.9     29.066     31.582
REMARK  Name = 51136974
REMARK  8 active torsions:
REMARK  status: ('A' for Active; 'I' for Inactive)
REMARK    1  A    between atoms: O_2  and  C_12
REMARK    2  A    between atoms: O_3  and  C_19
REMARK    3  A    between atoms: N_5  and  C_10
REMARK    4  A    between atoms: N_6  and  C_20
REMARK    5  A    between atoms: N_7  and  C_16
REMARK    6  A    between atoms: C_11  and  C_16
REMARK    7  A    between atoms: C_13  and  C_19
REMARK    8  A    between atoms: C_21  and  C_24
REMARK                            x       y       z     vdW  Elec       q    Type
REMARK                         _______ _______ _______ _____ _____    ______ ____
ROOT
ATOM      1  O   UNL     1      -4.048 -12.538  17.266  0.00  0.00    -0.365 OA
ATOM     10  C   UNL     1      -6.211 -11.570  17.028  0.00  0.00    +0.118 C 
ATOM     11  C   UNL     1      -4.882 -11.843  16.311  0.00  0.00    +0.155 C 
ATOM     12  C   UNL     1      -5.807 -11.539  18.495  0.00  0.00    +0.165 C 
ATOM     13  C   UNL     1      -4.750 -12.638  18.519  0.00  0.00    +0.174 C 
ENDROOT
BRANCH  10   5
ATOM      5  N   UNL     1      -6.963 -10.416  16.569  0.00  0.00    -0.292 NA
ATOM      6  N   UNL     1      -9.312  -8.923  15.925  0.00  0.00    -0.327 N 
ATOM     14  C   UNL     1      -7.841  -9.916  17.634  0.00  0.00    +0.104 C 
ATOM     15  C   UNL     1      -7.760 -10.760  15.384  0.00  0.00    +0.104 C 
ATOM     17  C   UNL     1      -8.599  -8.666  17.181  0.00  0.00    +0.120 C 
ATOM     18  C   UNL     1      -8.514  -9.537  14.856  0.00  0.00    +0.120 C 
BRANCH   6  20
ATOM     20  C   UNL     1     -10.385  -8.105  15.557  0.00  0.00    +0.030 A 
ATOM     22  C   UNL     1     -10.699  -6.980  16.319  0.00  0.00    +0.023 A 
ATOM     23  C   UNL     1     -11.141  -8.414  14.426  0.00  0.00    +0.023 A 
ATOM     25  C   UNL     1     -11.770  -6.165  15.952  0.00  0.00    +0.002 A 
ATOM     26  C   UNL     1     -12.211  -7.599  14.058  0.00  0.00    +0.002 A 
ATOM     27  C   UNL     1     -12.526  -6.474  14.821  0.00  0.00    +0.000 A 
ENDBRANCH   6  20
ENDBRANCH  10   5
BRANCH  12   2
ATOM      2  O   UNL     1      -5.232 -10.290  18.851  0.00  0.00    -0.388 OA
ATOM     34  H   UNL     1      -4.475 -10.135  18.261  0.00  0.00    +0.210 HD
ENDBRANCH  12   2
BRANCH  11  16
ATOM     16  C   UNL     1      -4.101 -10.625  15.830  0.00  0.00    +0.137 C 
BRANCH  16   7
ATOM      4  O   UNL     1      -2.525 -11.270  13.519  0.00  0.00    -0.270 OA
ATOM      7  N   UNL     1      -4.416 -10.317  14.468  0.00  0.00    -0.309 N 
ATOM     21  C   UNL     1      -3.590 -10.670  13.403  0.00  0.00    +0.244 C 
ATOM     35  H   UNL     1      -5.247  -9.759  14.310  0.00  0.00    +0.149 HD
BRANCH  21  24
ATOM      8  N   UNL     1      -7.003  -9.745   9.859  0.00  0.00    -0.344 N 
ATOM      9  N   UNL     1      -5.508  -9.128   8.334  0.00  0.00    -0.236 NA
ATOM     24  C   UNL     1      -4.045 -10.254  12.051  0.00  0.00    +0.039 A 
ATOM     28  C   UNL     1      -5.413 -10.259  11.759  0.00  0.00    +0.040 A 
ATOM     29  C   UNL     1      -3.102  -9.868  11.097  0.00  0.00    +0.015 A 
ATOM     30  C   UNL     1      -5.783  -9.860  10.474  0.00  0.00    +0.067 A 
ATOM     31  C   UNL     1      -3.495  -9.470   9.813  0.00  0.00    +0.030 A 
ATOM     32  C   UNL     1      -4.867  -9.469   9.503  0.00  0.00    +0.089 A 
ATOM     33  C   UNL     1      -6.786  -9.305   8.583  0.00  0.00    +0.197 A 
ATOM     37  H   UNL     1      -7.901  -9.949  10.275  0.00  0.00    +0.167 HD
ENDBRANCH  21  24
ENDBRANCH  16   7
ENDBRANCH  11  16
BRANCH  13  19
ATOM     19  C   UNL     1      -3.753 -12.558  19.660  0.00  0.00    +0.190 C 
BRANCH  19   3
ATOM      3  O   UNL     1      -2.586 -11.895  19.203  0.00  0.00    -0.392 OA
ATOM     36  H   UNL     1      -2.538 -11.043  19.670  0.00  0.00    +0.210 HD
ENDBRANCH  19   3
ENDBRANCH  13  19
TORSDOF 8
ENDMDL
MODEL 9
REMARK VINA RESULT:      -6.7     28.972     34.425
REMARK  Name = 51136974
REMARK  8 active torsions:
REMARK  status: ('A' for Active; 'I' for Inactive)
REMARK    1  A    between atoms: O_2  and  C_12
REMARK    2  A    between atoms: O_3  and  C_19
REMARK    3  A    between atoms: N_5  and  C_10
REMARK    4  A    between atoms: N_6  and  C_20
REMARK    5  A    between atoms: N_7  and  C_16
REMARK    6  A    between atoms: C_11  and  C_16
REMARK    7  A    between atoms: C_13  and  C_19
REMARK    8  A    between atoms: C_21  and  C_24
REMARK                            x       y       z     vdW  Elec       q    Type
REMARK                         _______ _______ _______ _____ _____    ______ ____
ROOT
ATOM      1  O   UNL     1     -11.721 -11.638  18.880  0.00  0.00    -0.365 OA
ATOM     10  C   UNL     1     -12.785 -10.118  17.388  0.00  0.00    +0.118 C 
ATOM     11  C   UNL     1     -11.428 -10.639  17.878  0.00  0.00    +0.155 C 
ATOM     12  C   UNL     1     -13.699 -10.372  18.577  0.00  0.00    +0.165 C 
ATOM     13  C   UNL     1     -13.147 -11.703  19.076  0.00  0.00    +0.174 C 
ENDROOT
BRANCH  10   5
ATOM      5  N   UNL     1     -12.804  -8.760  16.872  0.00  0.00    -0.292 NA
ATOM      6  N   UNL     1     -13.211  -6.720  14.915  0.00  0.00    -0.327 N 
ATOM     14  C   UNL     1     -14.163  -8.384  16.463  0.00  0.00    +0.104 C 
ATOM     15  C   UNL     1     -11.884  -8.629  15.736  0.00  0.00    +0.104 C 
ATOM     17  C   UNL     1     -14.207  -6.935  15.969  0.00  0.00    +0.120 C 
ATOM     18  C   UNL     1     -11.852  -7.188  15.219  0.00  0.00    +0.120 C 
BRANCH   6  20
ATOM     20  C   UNL     1     -13.352  -5.641  14.037  0.00  0.00    +0.030 A 
ATOM     22  C   UNL     1     -14.624  -5.184  13.692  0.00  0.00    +0.023 A 
ATOM     23  C   UNL     1     -12.221  -5.021  13.505  0.00  0.00    +0.023 A 
ATOM     25  C   UNL     1     -14.764  -4.108  12.816  0.00  0.00    +0.002 A 
ATOM     26  C   UNL     1     -12.361  -3.945  12.630  0.00  0.00    +0.002 A 
ATOM     27  C   UNL     1     -13.633  -3.488  12.284  0.00  0.00    +0.000 A 
ENDBRANCH   6  20
ENDBRANCH  10   5
BRANCH  12   2
ATOM      2  O   UNL     1     -13.550  -9.370  19.573  0.00  0.00    -0.388 OA
ATOM     34  H   UNL     1     -14.127  -8.626  19.331  0.00  0.00    +0.210 HD
ENDBRANCH  12   2
BRANCH  11  16
ATOM     16  C   UNL     1     -10.494  -9.617  18.518  0.00  0.00    +0.137 C 
BRANCH  16   7
ATOM      4  O   UNL     1      -8.619 -11.166  20.045  0.00  0.00    -0.270 OA
ATOM      7  N   UNL     1      -9.129  -9.884  18.178  0.00  0.00    -0.309 N 
ATOM     21  C   UNL     1      -8.286 -10.650  18.981  0.00  0.00    +0.244 C 
ATOM     35  H   UNL     1      -8.770  -9.428  17.347  0.00  0.00    +0.149 HD
BRANCH  21  24
ATOM      8  N   UNL     1      -4.521 -10.099  15.727  0.00  0.00    -0.344 N 
ATOM      9  N   UNL     1      -3.039 -11.167  16.993  0.00  0.00    -0.236 NA
ATOM     24  C   UNL     1      -6.889 -10.812  18.502  0.00  0.00    +0.039 A 
ATOM     28  C   UNL     1      -6.529 -10.289  17.256  0.00  0.00    +0.040 A 
ATOM     29  C   UNL     1      -5.961 -11.484  19.301  0.00  0.00    +0.015 A 
ATOM     30  C   UNL     1      -5.205 -10.471  16.856  0.00  0.00    +0.067 A 
ATOM     31  C   UNL     1      -4.637 -11.656  18.880  0.00  0.00    +0.030 A 
ATOM     32  C   UNL     1      -4.258 -11.136  17.630  0.00  0.00    +0.089 A 
ATOM     33  C   UNL     1      -3.233 -10.538  15.856  0.00  0.00    +0.197 A 
ATOM     37  H   UNL     1      -4.903  -9.592  14.940  0.00  0.00    +0.167 HD
ENDBRANCH  21  24
ENDBRANCH  16   7
ENDBRANCH  11  16
BRANCH  13  19
ATOM     19  C   UNL     1     -13.438 -12.027  20.529  0.00  0.00    +0.190 C 
BRANCH  19   3
ATOM      3  O   UNL     1     -12.504 -11.344  21.348  0.00  0.00    -0.392 OA
ATOM     36  H   UNL     1     -11.860 -12.002  21.661  0.00  0.00    +0.210 HD
ENDBRANCH  19   3
ENDBRANCH  13  19
TORSDOF 8
ENDMDL
MODEL 10
REMARK VINA RESULT:      -6.6     28.368     33.800
REMARK  Name = 51136974
REMARK  8 active torsions:
REMARK  status: ('A' for Active; 'I' for Inactive)
REMARK    1  A    between atoms: O_2  and  C_12
REMARK    2  A    between atoms: O_3  and  C_19
REMARK    3  A    between atoms: N_5  and  C_10
REMARK    4  A    between atoms: N_6  and  C_20
REMARK    5  A    between atoms: N_7  and  C_16
REMARK    6  A    between atoms: C_11  and  C_16
REMARK    7  A    between atoms: C_13  and  C_19
REMARK    8  A    between atoms: C_21  and  C_24
REMARK                            x       y       z     vdW  Elec       q    Type
REMARK                         _______ _______ _______ _____ _____    ______ ____
ROOT
ATOM      1  O   UNL     1      -9.917 -15.053  20.377  0.00  0.00    -0.365 OA
ATOM     10  C   UNL     1     -10.831 -13.248  19.122  0.00  0.00    +0.118 C 
ATOM     11  C   UNL     1      -9.539 -14.007  19.454  0.00  0.00    +0.155 C 
ATOM     12  C   UNL     1     -11.696 -13.492  20.349  0.00  0.00    +0.165 C 
ATOM     13  C   UNL     1     -11.320 -14.934  20.675  0.00  0.00    +0.174 C 
ENDROOT
BRANCH  10   5
ATOM      5  N   UNL     1     -10.677 -11.855  18.740  0.00  0.00    -0.292 NA
ATOM      6  N   UNL     1     -11.270  -9.471  17.283  0.00  0.00    -0.327 N 
ATOM     14  C   UNL     1     -11.913 -11.109  19.007  0.00  0.00    +0.104 C 
ATOM     15  C   UNL     1     -10.326 -11.747  17.318  0.00  0.00    +0.104 C 
ATOM     17  C   UNL     1     -11.747  -9.627  18.661  0.00  0.00    +0.120 C 
ATOM     18  C   UNL     1     -10.106 -10.287  16.917  0.00  0.00    +0.120 C 
BRANCH   6  20
ATOM     20  C   UNL     1     -11.454  -8.254  16.619  0.00  0.00    +0.030 A 
ATOM     22  C   UNL     1     -10.355  -7.452  16.313  0.00  0.00    +0.023 A 
ATOM     23  C   UNL     1     -12.738  -7.841  16.263  0.00  0.00    +0.023 A 
ATOM     25  C   UNL     1     -10.538  -6.238  15.652  0.00  0.00    +0.002 A 
ATOM     26  C   UNL     1     -12.922  -6.628  15.600  0.00  0.00    +0.002 A 
ATOM     27  C   UNL     1     -11.822  -5.825  15.295  0.00  0.00    +0.000 A 
ENDBRANCH   6  20
ENDBRANCH  10   5
BRANCH  12   2
ATOM      2  O   UNL     1     -11.336 -12.631  21.420  0.00  0.00    -0.388 OA
ATOM     34  H   UNL     1     -10.410 -12.366  21.287  0.00  0.00    +0.210 HD
ENDBRANCH  12   2
BRANCH  11  16
ATOM     16  C   UNL     1      -8.424 -13.203  20.113  0.00  0.00    +0.137 C 
BRANCH  16   7
ATOM      4  O   UNL     1      -7.238 -10.596  19.910  0.00  0.00    -0.270 OA
ATOM      7  N   UNL     1      -7.456 -12.777  19.148  0.00  0.00    -0.309 N 
ATOM     21  C   UNL     1      -6.931 -11.487  19.122  0.00  0.00    +0.244 C 
ATOM     35  H   UNL     1      -7.214 -13.444  18.424  0.00  0.00    +0.149 HD
BRANCH  21  24
ATOM      8  N   UNL     1      -2.370 -11.290  17.069  0.00  0.00    -0.344 N 
ATOM      9  N   UNL     1      -3.082 -10.444  15.141  0.00  0.00    -0.236 NA
ATOM     24  C   UNL     1      -5.956 -11.195  18.040  0.00  0.00    +0.039 A 
ATOM     28  C   UNL     1      -4.599 -11.457  18.254  0.00  0.00    +0.040 A 
ATOM     29  C   UNL     1      -6.409 -10.663  16.831  0.00  0.00    +0.015 A 
ATOM     30  C   UNL     1      -3.728 -11.163  17.205  0.00  0.00    +0.067 A 
ATOM     31  C   UNL     1      -5.517 -10.375  15.790  0.00  0.00    +0.030 A 
ATOM     32  C   UNL     1      -4.149 -10.633  15.988  0.00  0.00    +0.089 A 
ATOM     33  C   UNL     1      -2.033 -10.848  15.820  0.00  0.00    +0.197 A 
ATOM     37  H   UNL     1      -1.732 -11.647  17.767  0.00  0.00    +0.167 HD
ENDBRANCH  21  24
ENDBRANCH  16   7
ENDBRANCH  11  16
BRANCH  13  19
ATOM     19  C   UNL     1     -11.566 -15.363  22.110  0.00  0.00    +0.190 C 
BRANCH  19   3
ATOM      3  O   UNL     1     -12.829 -14.871  22.526  0.00  0.00    -0.392 OA
ATOM     36  H   UNL     1     -13.492 -15.540  22.285  0.00  0.00    +0.210 HD
ENDBRANCH  19   3
ENDBRANCH  13  19
TORSDOF 8
ENDMDL
