MODEL 1
REMARK VINA RESULT:      -7.4      0.000      0.000
REMARK  Name = 45361634
REMARK  12 active torsions:
REMARK  status: ('A' for Active; 'I' for Inactive)
REMARK    1  A    between atoms: O_1  and  C_12
REMARK    2  A    between atoms: O_4  and  C_35
REMARK    3  A    between atoms: O_4  and  C_36
REMARK    4  A    between atoms: N_5  and  C_16
REMARK    5  A    between atoms: N_6  and  C_26
REMARK    6  A    between atoms: C_9  and  C_19
REMARK    7  A    between atoms: C_11  and  C_21
REMARK    8  A    between atoms: C_15  and  C_20
REMARK    9  A    between atoms: C_20  and  C_22
REMARK   10  A    between atoms: C_20  and  C_23
REMARK   11  A    between atoms: C_24  and  C_25
REMARK   12  A    between atoms: C_26  and  C_29
REMARK                            x       y       z     vdW  Elec       q    Type
REMARK                         _______ _______ _______ _____ _____    ______ ____
ROOT
ATOM      9  C   UNL     1     -17.395   5.489  21.989  0.00  0.00    -0.027 C 
ATOM     10  C   UNL     1     -16.060   5.060  22.683  0.00  0.00    +0.028 C 
ATOM     11  C   UNL     1     -14.822   5.414  21.782  0.00  0.00    +0.012 C 
ATOM     12  C   UNL     1     -16.129   3.585  23.176  0.00  0.00    +0.122 C 
ATOM     13  C   UNL     1     -18.581   5.231  22.949  0.00  0.00    +0.007 C 
ATOM     14  C   UNL     1     -17.347   7.007  21.697  0.00  0.00    +0.009 C 
ATOM     15  C   UNL     1     -17.373   3.308  24.050  0.00  0.00    +0.029 C 
ATOM     16  C   UNL     1     -14.825   6.928  21.434  0.00  0.00    +0.076 C 
ATOM     17  C   UNL     1     -18.675   3.780  23.401  0.00  0.00    +0.007 C 
ATOM     18  C   UNL     1     -16.152   7.415  20.848  0.00  0.00    +0.023 C 
ATOM     19  C   UNL     1     -17.649   4.723  20.666  0.00  0.00    +0.011 C 
ATOM     21  C   UNL     1     -13.471   5.044  22.419  0.00  0.00    +0.010 C 
ENDROOT
BRANCH  16   5
ATOM      3  O   UNL     1     -12.932   9.068  21.709  0.00  0.00    -0.270 OA
ATOM      5  N   UNL     1     -13.764   7.268  20.510  0.00  0.00    -0.308 N 
ATOM     24  C   UNL     1     -12.897   8.324  20.732  0.00  0.00    +0.247 C 
ATOM     37  H   UNL     1     -13.737   6.762  19.630  0.00  0.00    +0.149 HD
BRANCH  24  25
ATOM      7  N   UNL     1     -10.870   7.940  17.581  0.00  0.00    -0.243 NA
ATOM      8  N   UNL     1     -10.036   9.839  18.808  0.00  0.00    -0.243 NA
ATOM     25  C   UNL     1     -11.880   8.559  19.676  0.00  0.00    +0.073 A 
ATOM     27  C   UNL     1     -11.781   7.756  18.559  0.00  0.00    +0.127 A 
ATOM     28  C   UNL     1     -10.972   9.596  19.747  0.00  0.00    +0.127 A 
ATOM     32  C   UNL     1     -10.041   8.985  17.767  0.00  0.00    +0.221 A 
ENDBRANCH  24  25
ENDBRANCH  16   5
BRANCH  12   1
ATOM      1  O   UNL     1     -14.988   3.299  23.987  0.00  0.00    -0.391 OA
ATOM     38  H   UNL     1     -15.221   3.486  24.913  0.00  0.00    +0.210 HD
ENDBRANCH  12   1
BRANCH  15  20
ATOM     20  C   UNL     1     -17.494   1.824  24.415  0.00  0.00    +0.077 C 
ATOM     22  C   UNL     1     -18.479   1.131  23.481  0.00  0.00    +0.017 C 
BRANCH  20  23
ATOM      2  O   UNL     1     -19.007   2.056  26.291  0.00  0.00    -0.276 OA
ATOM      6  N   UNL     1     -16.931   1.088  26.655  0.00  0.00    -0.311 N 
ATOM     23  C   UNL     1     -17.913   1.679  25.874  0.00  0.00    +0.216 C 
ATOM     39  H   UNL     1     -16.074   0.755  26.224  0.00  0.00    +0.149 HD
BRANCH   6  26
ATOM     26  C   UNL     1     -17.096   0.846  28.069  0.00  0.00    +0.139 C 
BRANCH  26  29
ATOM     29  C   UNL     1     -15.996   1.471  28.877  0.00  0.00    -0.030 A 
ATOM     30  C   UNL     1     -15.079   0.664  29.549  0.00  0.00    +0.009 A 
ATOM     31  C   UNL     1     -15.891   2.860  28.955  0.00  0.00    +0.009 A 
ATOM     33  C   UNL     1     -14.057   1.245  30.300  0.00  0.00    +0.046 A 
ATOM     34  C   UNL     1     -14.869   3.441  29.706  0.00  0.00    +0.046 A 
ATOM     35  C   UNL     1     -13.952   2.633  30.379  0.00  0.00    +0.120 A 
BRANCH  35   4
ATOM      4  O   UNL     1     -12.955   3.200  31.111  0.00  0.00    -0.495 OA
ATOM     36  C   UNL     1     -13.344   3.976  32.244  0.00  0.00    +0.277 C 
ENDBRANCH  35   4
ENDBRANCH  26  29
ENDBRANCH   6  26
ENDBRANCH  20  23
ENDBRANCH  15  20
TORSDOF 8
ENDMDL
MODEL 2
REMARK VINA RESULT:      -7.3     18.790     22.139
REMARK  Name = 45361634
REMARK  12 active torsions:
REMARK  status: ('A' for Active; 'I' for Inactive)
REMARK    1  A    between atoms: O_1  and  C_12
REMARK    2  A    between atoms: O_4  and  C_35
REMARK    3  A    between atoms: O_4  and  C_36
REMARK    4  A    between atoms: N_5  and  C_16
REMARK    5  A    between atoms: N_6  and  C_26
REMARK    6  A    between atoms: C_9  and  C_19
REMARK    7  A    between atoms: C_11  and  C_21
REMARK    8  A    between atoms: C_15  and  C_20
REMARK    9  A    between atoms: C_20  and  C_22
REMARK   10  A    between atoms: C_20  and  C_23
REMARK   11  A    between atoms: C_24  and  C_25
REMARK   12  A    between atoms: C_26  and  C_29
REMARK                            x       y       z     vdW  Elec       q    Type
REMARK                         _______ _______ _______ _____ _____    ______ ____
ROOT
ATOM      9  C   UNL     1      -4.780 -11.052  16.884  0.00  0.00    -0.027 C 
ATOM     10  C   UNL     1      -5.548 -10.434  15.669  0.00  0.00    +0.028 C 
ATOM     11  C   UNL     1      -7.102 -10.530  15.883  0.00  0.00    +0.012 C 
ATOM     12  C   UNL     1      -5.022 -11.004  14.320  0.00  0.00    +0.122 C 
ATOM     13  C   UNL     1      -3.259 -10.839  16.695  0.00  0.00    +0.007 C 
ATOM     14  C   UNL     1      -5.201 -10.314  18.176  0.00  0.00    +0.009 C 
ATOM     15  C   UNL     1      -3.487 -10.882  14.182  0.00  0.00    +0.029 C 
ATOM     16  C   UNL     1      -7.504  -9.849  17.221  0.00  0.00    +0.076 C 
ATOM     17  C   UNL     1      -2.734 -11.431  15.393  0.00  0.00    +0.007 C 
ATOM     18  C   UNL     1      -6.702 -10.350  18.423  0.00  0.00    +0.023 C 
ATOM     19  C   UNL     1      -5.053 -12.568  17.051  0.00  0.00    +0.011 C 
ATOM     21  C   UNL     1      -7.920  -9.913  14.736  0.00  0.00    +0.010 C 
ENDROOT
BRANCH  16   5
ATOM      3  O   UNL     1      -9.484  -7.778  17.389  0.00  0.00    -0.270 OA
ATOM      5  N   UNL     1      -8.913 -10.021  17.507  0.00  0.00    -0.308 N 
ATOM     24  C   UNL     1      -9.792  -8.953  17.567  0.00  0.00    +0.247 C 
ATOM     37  H   UNL     1      -9.222 -10.952  17.765  0.00  0.00    +0.149 HD
BRANCH  24  25
ATOM      7  N   UNL     1     -12.818 -10.216  19.421  0.00  0.00    -0.243 NA
ATOM      8  N   UNL     1     -13.531  -9.321  17.300  0.00  0.00    -0.243 NA
ATOM     25  C   UNL     1     -11.200  -9.293  17.897  0.00  0.00    +0.073 A 
ATOM     27  C   UNL     1     -11.550  -9.894  19.089  0.00  0.00    +0.127 A 
ATOM     28  C   UNL     1     -12.242  -9.027  17.033  0.00  0.00    +0.127 A 
ATOM     32  C   UNL     1     -13.744  -9.906  18.495  0.00  0.00    +0.221 A 
ENDBRANCH  24  25
ENDBRANCH  16   5
BRANCH  12   1
ATOM      1  O   UNL     1      -5.589 -10.266  13.237  0.00  0.00    -0.391 OA
ATOM     38  H   UNL     1      -5.990 -10.898  12.616  0.00  0.00    +0.210 HD
ENDBRANCH  12   1
BRANCH  15  20
ATOM     20  C   UNL     1      -2.974 -11.565  12.908  0.00  0.00    +0.077 C 
ATOM     22  C   UNL     1      -1.806 -12.487  13.241  0.00  0.00    +0.017 C 
BRANCH  20  23
ATOM      2  O   UNL     1      -1.461 -10.000  11.849  0.00  0.00    -0.276 OA
ATOM      6  N   UNL     1      -3.608 -10.215  10.998  0.00  0.00    -0.311 N 
ATOM     23  C   UNL     1      -2.577 -10.515  11.877  0.00  0.00    +0.216 C 
ATOM     39  H   UNL     1      -4.484 -10.724  11.055  0.00  0.00    +0.149 HD
BRANCH   6  26
ATOM     26  C   UNL     1      -3.473  -9.248   9.934  0.00  0.00    +0.139 C 
BRANCH  26  29
ATOM     29  C   UNL     1      -4.745  -9.092   9.153  0.00  0.00    -0.030 A 
ATOM     30  C   UNL     1      -4.934  -9.815   7.975  0.00  0.00    +0.009 A 
ATOM     31  C   UNL     1      -5.739  -8.223   9.605  0.00  0.00    +0.009 A 
ATOM     33  C   UNL     1      -6.116  -9.670   7.249  0.00  0.00    +0.046 A 
ATOM     34  C   UNL     1      -6.921  -8.079   8.879  0.00  0.00    +0.046 A 
ATOM     35  C   UNL     1      -7.110  -8.802   7.701  0.00  0.00    +0.120 A 
BRANCH  35   4
ATOM      4  O   UNL     1      -8.263  -8.660   6.994  0.00  0.00    -0.495 OA
ATOM     36  C   UNL     1      -8.461  -7.417   6.319  0.00  0.00    +0.277 C 
ENDBRANCH  35   4
ENDBRANCH  26  29
ENDBRANCH   6  26
ENDBRANCH  20  23
ENDBRANCH  15  20
TORSDOF 8
ENDMDL
MODEL 3
REMARK VINA RESULT:      -6.9     28.862     34.459
REMARK  Name = 45361634
REMARK  12 active torsions:
REMARK  status: ('A' for Active; 'I' for Inactive)
REMARK    1  A    between atoms: O_1  and  C_12
REMARK    2  A    between atoms: O_4  and  C_35
REMARK    3  A    between atoms: O_4  and  C_36
REMARK    4  A    between atoms: N_5  and  C_16
REMARK    5  A    between atoms: N_6  and  C_26
REMARK    6  A    between atoms: C_9  and  C_19
REMARK    7  A    between atoms: C_11  and  C_21
REMARK    8  A    between atoms: C_15  and  C_20
REMARK    9  A    between atoms: C_20  and  C_22
REMARK   10  A    between atoms: C_20  and  C_23
REMARK   11  A    between atoms: C_24  and  C_25
REMARK   12  A    between atoms: C_26  and  C_29
REMARK                            x       y       z     vdW  Elec       q    Type
REMARK                         _______ _______ _______ _____ _____    ______ ____
ROOT
ATOM      9  C   UNL     1       9.435   6.119   6.162  0.00  0.00    -0.027 C 
ATOM     10  C   UNL     1      10.460   7.209   5.706  0.00  0.00    +0.028 C 
ATOM     11  C   UNL     1       9.981   8.642   6.138  0.00  0.00    +0.012 C 
ATOM     12  C   UNL     1      10.821   7.050   4.200  0.00  0.00    +0.122 C 
ATOM     13  C   UNL     1       9.991   4.714   5.823  0.00  0.00    +0.007 C 
ATOM     14  C   UNL     1       9.262   6.198   7.696  0.00  0.00    +0.009 C 
ATOM     15  C   UNL     1      11.277   5.616   3.848  0.00  0.00    +0.029 C 
ATOM     16  C   UNL     1       9.740   8.689   7.672  0.00  0.00    +0.076 C 
ATOM     17  C   UNL     1      10.308   4.543   4.343  0.00  0.00    +0.007 C 
ATOM     18  C   UNL     1       8.824   7.573   8.178  0.00  0.00    +0.023 C 
ATOM     19  C   UNL     1       8.051   6.284   5.483  0.00  0.00    +0.011 C 
ATOM     21  C   UNL     1      10.960   9.762   5.746  0.00  0.00    +0.010 C 
ENDROOT
BRANCH  16   5
ATOM      3  O   UNL     1      11.014  10.651   9.335  0.00  0.00    -0.270 OA
ATOM      5  N   UNL     1       9.186   9.960   8.089  0.00  0.00    -0.308 N 
ATOM     24  C   UNL     1       9.883  10.843   8.896  0.00  0.00    +0.247 C 
ATOM     37  H   UNL     1       8.217  10.143   7.849  0.00  0.00    +0.149 HD
BRANCH  24  25
ATOM      7  N   UNL     1       7.752  13.322  10.768  0.00  0.00    -0.243 NA
ATOM      8  N   UNL     1       8.570  14.370   8.757  0.00  0.00    -0.243 NA
ATOM     25  C   UNL     1       9.166  12.093   9.257  0.00  0.00    +0.073 A 
ATOM     27  C   UNL     1       8.416  12.203  10.410  0.00  0.00    +0.127 A 
ATOM     28  C   UNL     1       9.207  13.219   8.461  0.00  0.00    +0.127 A 
ATOM     32  C   UNL     1       7.871  14.352   9.908  0.00  0.00    +0.221 A 
ENDBRANCH  24  25
ENDBRANCH  16   5
BRANCH  12   1
ATOM      1  O   UNL     1      11.911   7.916   3.877  0.00  0.00    -0.391 OA
ATOM     38  H   UNL     1      12.095   7.828   2.926  0.00  0.00    +0.210 HD
ENDBRANCH  12   1
BRANCH  15  20
ATOM     20  C   UNL     1      11.502   5.445   2.340  0.00  0.00    +0.077 C 
ATOM     22  C   UNL     1      10.667   4.282   1.813  0.00  0.00    +0.017 C 
BRANCH  20  23
ATOM      2  O   UNL     1      13.832   6.100   2.287  0.00  0.00    -0.276 OA
ATOM      6  N   UNL     1      13.255   3.993   1.509  0.00  0.00    -0.311 N 
ATOM     23  C   UNL     1      12.986   5.239   2.054  0.00  0.00    +0.216 C 
ATOM     39  H   UNL     1      12.506   3.317   1.396  0.00  0.00    +0.149 HD
BRANCH   6  26
ATOM     26  C   UNL     1      14.588   3.567   1.151  0.00  0.00    +0.139 C 
BRANCH  26  29
ATOM     29  C   UNL     1      14.963   4.001  -0.236  0.00  0.00    -0.030 A 
ATOM     30  C   UNL     1      16.282   4.349  -0.525  0.00  0.00    +0.009 A 
ATOM     31  C   UNL     1      13.991   4.058  -1.235  0.00  0.00    +0.009 A 
ATOM     33  C   UNL     1      16.630   4.754  -1.814  0.00  0.00    +0.046 A 
ATOM     34  C   UNL     1      14.340   4.462  -2.524  0.00  0.00    +0.046 A 
ATOM     35  C   UNL     1      15.659   4.810  -2.814  0.00  0.00    +0.120 A 
BRANCH  35   4
ATOM      4  O   UNL     1      15.998   5.204  -4.071  0.00  0.00    -0.495 OA
ATOM     36  C   UNL     1      16.432   6.555  -4.232  0.00  0.00    +0.277 C 
ENDBRANCH  35   4
ENDBRANCH  26  29
ENDBRANCH   6  26
ENDBRANCH  20  23
ENDBRANCH  15  20
TORSDOF 8
ENDMDL
MODEL 4
REMARK VINA RESULT:      -6.9     31.826     37.342
REMARK  Name = 45361634
REMARK  12 active torsions:
REMARK  status: ('A' for Active; 'I' for Inactive)
REMARK    1  A    between atoms: O_1  and  C_12
REMARK    2  A    between atoms: O_4  and  C_35
REMARK    3  A    between atoms: O_4  and  C_36
REMARK    4  A    between atoms: N_5  and  C_16
REMARK    5  A    between atoms: N_6  and  C_26
REMARK    6  A    between atoms: C_9  and  C_19
REMARK    7  A    between atoms: C_11  and  C_21
REMARK    8  A    between atoms: C_15  and  C_20
REMARK    9  A    between atoms: C_20  and  C_22
REMARK   10  A    between atoms: C_20  and  C_23
REMARK   11  A    between atoms: C_24  and  C_25
REMARK   12  A    between atoms: C_26  and  C_29
REMARK                            x       y       z     vdW  Elec       q    Type
REMARK                         _______ _______ _______ _____ _____    ______ ____
ROOT
ATOM      9  C   UNL     1      20.634   7.820  22.013  0.00  0.00    -0.027 C 
ATOM     10  C   UNL     1      20.346   6.763  20.895  0.00  0.00    +0.028 C 
ATOM     11  C   UNL     1      18.826   6.366  20.880  0.00  0.00    +0.012 C 
ATOM     12  C   UNL     1      21.348   5.575  20.972  0.00  0.00    +0.122 C 
ATOM     13  C   UNL     1      22.111   8.274  21.927  0.00  0.00    +0.007 C 
ATOM     14  C   UNL     1      19.745   9.063  21.773  0.00  0.00    +0.009 C 
ATOM     15  C   UNL     1      22.822   6.041  20.990  0.00  0.00    +0.029 C 
ATOM     16  C   UNL     1      17.940   7.632  20.713  0.00  0.00    +0.076 C 
ATOM     17  C   UNL     1      23.095   7.117  22.041  0.00  0.00    +0.007 C 
ATOM     18  C   UNL     1      18.260   8.735  21.722  0.00  0.00    +0.023 C 
ATOM     19  C   UNL     1      20.365   7.268  23.436  0.00  0.00    +0.011 C 
ATOM     21  C   UNL     1      18.468   5.349  19.783  0.00  0.00    +0.010 C 
ENDROOT
BRANCH  16   5
ATOM      3  O   UNL     1      15.770   9.086  19.522  0.00  0.00    -0.270 OA
ATOM      5  N   UNL     1      16.531   7.316  20.811  0.00  0.00    -0.308 N 
ATOM     24  C   UNL     1      15.555   8.083  20.197  0.00  0.00    +0.247 C 
ATOM     37  H   UNL     1      16.269   6.560  21.435  0.00  0.00    +0.149 HD
BRANCH  24  25
ATOM      7  N   UNL     1      12.129   6.643  19.581  0.00  0.00    -0.243 NA
ATOM      8  N   UNL     1      12.247   7.402  21.865  0.00  0.00    -0.243 NA
ATOM     25  C   UNL     1      14.154   7.642  20.416  0.00  0.00    +0.073 A 
ATOM     27  C   UNL     1      13.404   7.055  19.418  0.00  0.00    +0.127 A 
ATOM     28  C   UNL     1      13.517   7.791  21.631  0.00  0.00    +0.127 A 
ATOM     32  C   UNL     1      11.621   6.844  20.812  0.00  0.00    +0.221 A 
ENDBRANCH  24  25
ENDBRANCH  16   5
BRANCH  12   1
ATOM      1  O   UNL     1      21.196   4.748  19.817  0.00  0.00    -0.391 OA
ATOM     38  H   UNL     1      21.949   4.134  19.784  0.00  0.00    +0.210 HD
ENDBRANCH  12   1
BRANCH  15  20
ATOM     20  C   UNL     1      23.788   4.868  21.198  0.00  0.00    +0.077 C 
ATOM     22  C   UNL     1      24.356   4.899  22.612  0.00  0.00    +0.017 C 
BRANCH  20  23
ATOM      2  O   UNL     1      24.945   4.133  19.202  0.00  0.00    -0.276 OA
ATOM      6  N   UNL     1      25.821   5.917  20.399  0.00  0.00    -0.311 N 
ATOM     23  C   UNL     1      24.896   4.913  20.151  0.00  0.00    +0.216 C 
ATOM     39  H   UNL     1      25.680   6.554  21.176  0.00  0.00    +0.149 HD
BRANCH   6  26
ATOM     26  C   UNL     1      26.963   6.156  19.547  0.00  0.00    +0.139 C 
BRANCH  26  29
ATOM     29  C   UNL     1      26.609   7.005  18.361  0.00  0.00    -0.030 A 
ATOM     30  C   UNL     1      25.949   8.220  18.544  0.00  0.00    +0.009 A 
ATOM     31  C   UNL     1      26.940   6.578  17.074  0.00  0.00    +0.009 A 
ATOM     33  C   UNL     1      25.620   9.009  17.441  0.00  0.00    +0.046 A 
ATOM     34  C   UNL     1      26.611   7.368  15.972  0.00  0.00    +0.046 A 
ATOM     35  C   UNL     1      25.951   8.583  16.155  0.00  0.00    +0.120 A 
BRANCH  35   4
ATOM      4  O   UNL     1      25.631   9.352  15.080  0.00  0.00    -0.495 OA
ATOM     36  C   UNL     1      25.420  10.744  15.317  0.00  0.00    +0.277 C 
ENDBRANCH  35   4
ENDBRANCH  26  29
ENDBRANCH   6  26
ENDBRANCH  20  23
ENDBRANCH  15  20
TORSDOF 8
ENDMDL
MODEL 5
REMARK VINA RESULT:      -6.9     19.823     21.474
REMARK  Name = 45361634
REMARK  12 active torsions:
REMARK  status: ('A' for Active; 'I' for Inactive)
REMARK    1  A    between atoms: O_1  and  C_12
REMARK    2  A    between atoms: O_4  and  C_35
REMARK    3  A    between atoms: O_4  and  C_36
REMARK    4  A    between atoms: N_5  and  C_16
REMARK    5  A    between atoms: N_6  and  C_26
REMARK    6  A    between atoms: C_9  and  C_19
REMARK    7  A    between atoms: C_11  and  C_21
REMARK    8  A    between atoms: C_15  and  C_20
REMARK    9  A    between atoms: C_20  and  C_22
REMARK   10  A    between atoms: C_20  and  C_23
REMARK   11  A    between atoms: C_24  and  C_25
REMARK   12  A    between atoms: C_26  and  C_29
REMARK                            x       y       z     vdW  Elec       q    Type
REMARK                         _______ _______ _______ _____ _____    ______ ____
ROOT
ATOM      9  C   UNL     1      -3.179 -11.422  11.825  0.00  0.00    -0.027 C 
ATOM     10  C   UNL     1      -4.518 -10.926  12.465  0.00  0.00    +0.028 C 
ATOM     11  C   UNL     1      -5.295  -9.982  11.478  0.00  0.00    +0.012 C 
ATOM     12  C   UNL     1      -4.283 -10.353  13.893  0.00  0.00    +0.122 C 
ATOM     13  C   UNL     1      -2.497 -12.436  12.774  0.00  0.00    +0.007 C 
ATOM     14  C   UNL     1      -3.494 -12.155  10.500  0.00  0.00    +0.009 C 
ATOM     15  C   UNL     1      -3.509 -11.332  14.806  0.00  0.00    +0.029 C 
ATOM     16  C   UNL     1      -5.540 -10.705  10.124  0.00  0.00    +0.076 C 
ATOM     17  C   UNL     1      -2.230 -11.864  14.160  0.00  0.00    +0.007 C 
ATOM     18  C   UNL     1      -4.270 -11.298   9.512  0.00  0.00    +0.023 C 
ATOM     19  C   UNL     1      -2.191 -10.261  11.543  0.00  0.00    +0.011 C 
ATOM     21  C   UNL     1      -6.638  -9.481  12.034  0.00  0.00    +0.010 C 
ENDROOT
BRANCH  16   5
ATOM      3  O   UNL     1      -7.690 -11.354   8.336  0.00  0.00    -0.270 OA
ATOM      5  N   UNL     1      -6.151  -9.825   9.149  0.00  0.00    -0.308 N 
ATOM     24  C   UNL     1      -7.188 -10.233   8.329  0.00  0.00    +0.247 C 
ATOM     37  H   UNL     1      -5.721  -8.915   9.016  0.00  0.00    +0.149 HD
BRANCH  24  25
ATOM      7  N   UNL     1      -8.313  -6.951   6.864  0.00  0.00    -0.243 NA
ATOM      8  N   UNL     1      -8.457  -8.646   5.157  0.00  0.00    -0.243 NA
ATOM     25  C   UNL     1      -7.686  -9.220   7.364  0.00  0.00    +0.073 A 
ATOM     27  C   UNL     1      -7.862  -7.897   7.714  0.00  0.00    +0.127 A 
ATOM     28  C   UNL     1      -8.003  -9.540   6.060  0.00  0.00    +0.127 A 
ATOM     32  C   UNL     1      -8.587  -7.388   5.620  0.00  0.00    +0.221 A 
ENDBRANCH  24  25
ENDBRANCH  16   5
BRANCH  12   1
ATOM      1  O   UNL     1      -5.542 -10.114  14.524  0.00  0.00    -0.391 OA
ATOM     38  H   UNL     1      -6.003  -9.418  14.026  0.00  0.00    +0.210 HD
ENDBRANCH  12   1
BRANCH  15  20
ATOM     20  C   UNL     1      -3.172 -10.699  16.162  0.00  0.00    +0.077 C 
ATOM     22  C   UNL     1      -1.663 -10.701  16.382  0.00  0.00    +0.017 C 
BRANCH  20  23
ATOM      2  O   UNL     1      -3.452 -11.526  18.421  0.00  0.00    -0.276 OA
ATOM      6  N   UNL     1      -5.095 -12.002  16.854  0.00  0.00    -0.311 N 
ATOM     23  C   UNL     1      -3.898 -11.442  17.278  0.00  0.00    +0.216 C 
ATOM     39  H   UNL     1      -5.420 -11.843  15.906  0.00  0.00    +0.149 HD
BRANCH   6  26
ATOM     26  C   UNL     1      -5.959 -12.757  17.731  0.00  0.00    +0.139 C 
BRANCH  26  29
ATOM     29  C   UNL     1      -7.189 -11.983  18.108  0.00  0.00    -0.030 A 
ATOM     30  C   UNL     1      -7.487 -10.786  17.456  0.00  0.00    +0.009 A 
ATOM     31  C   UNL     1      -8.034 -12.460  19.110  0.00  0.00    +0.009 A 
ATOM     33  C   UNL     1      -8.630 -10.066  17.807  0.00  0.00    +0.046 A 
ATOM     34  C   UNL     1      -9.177 -11.741  19.460  0.00  0.00    +0.046 A 
ATOM     35  C   UNL     1      -9.475 -10.544  18.808  0.00  0.00    +0.120 A 
BRANCH  35   4
ATOM      4  O   UNL     1     -10.589  -9.843  19.150  0.00  0.00    -0.495 OA
ATOM     36  C   UNL     1     -11.413 -10.395  20.178  0.00  0.00    +0.277 C 
ENDBRANCH  35   4
ENDBRANCH  26  29
ENDBRANCH   6  26
ENDBRANCH  20  23
ENDBRANCH  15  20
TORSDOF 8
ENDMDL
MODEL 6
REMARK VINA RESULT:      -6.8     19.046     22.569
REMARK  Name = 45361634
REMARK  12 active torsions:
REMARK  status: ('A' for Active; 'I' for Inactive)
REMARK    1  A    between atoms: O_1  and  C_12
REMARK    2  A    between atoms: O_4  and  C_35
REMARK    3  A    between atoms: O_4  and  C_36
REMARK    4  A    between atoms: N_5  and  C_16
REMARK    5  A    between atoms: N_6  and  C_26
REMARK    6  A    between atoms: C_9  and  C_19
REMARK    7  A    between atoms: C_11  and  C_21
REMARK    8  A    between atoms: C_15  and  C_20
REMARK    9  A    between atoms: C_20  and  C_22
REMARK   10  A    between atoms: C_20  and  C_23
REMARK   11  A    between atoms: C_24  and  C_25
REMARK   12  A    between atoms: C_26  and  C_29
REMARK                            x       y       z     vdW  Elec       q    Type
REMARK                         _______ _______ _______ _____ _____    ______ ____
ROOT
ATOM      9  C   UNL     1      -4.669 -11.280  17.133  0.00  0.00    -0.027 C 
ATOM     10  C   UNL     1      -5.666 -10.482  16.228  0.00  0.00    +0.028 C 
ATOM     11  C   UNL     1      -7.120 -10.530  16.823  0.00  0.00    +0.012 C 
ATOM     12  C   UNL     1      -5.539 -10.907  14.737  0.00  0.00    +0.122 C 
ATOM     13  C   UNL     1      -3.231 -11.117  16.583  0.00  0.00    +0.007 C 
ATOM     14  C   UNL     1      -4.696 -10.686  18.560  0.00  0.00    +0.009 C 
ATOM     15  C   UNL     1      -4.082 -10.841  14.223  0.00  0.00    +0.029 C 
ATOM     16  C   UNL     1      -7.122 -10.000  18.284  0.00  0.00    +0.076 C 
ATOM     17  C   UNL     1      -3.095 -11.570  15.135  0.00  0.00    +0.007 C 
ATOM     18  C   UNL     1      -6.086 -10.682  19.179  0.00  0.00    +0.023 C 
ATOM     19  C   UNL     1      -5.008 -12.791  17.201  0.00  0.00    +0.011 C 
ATOM     21  C   UNL     1      -8.149  -9.739  15.997  0.00  0.00    +0.010 C 
ENDROOT
BRANCH  16   5
ATOM      3  O   UNL     1      -8.440 -12.455  18.976  0.00  0.00    -0.270 OA
ATOM      5  N   UNL     1      -8.424 -10.138  18.902  0.00  0.00    -0.308 N 
ATOM     24  C   UNL     1      -8.977 -11.372  19.198  0.00  0.00    +0.247 C 
ATOM     37  H   UNL     1      -8.971  -9.292  19.022  0.00  0.00    +0.149 HD
BRANCH  24  25
ATOM      7  N   UNL     1     -12.137 -12.478  20.923  0.00  0.00    -0.243 NA
ATOM      8  N   UNL     1     -12.325 -10.134  20.397  0.00  0.00    -0.243 NA
ATOM     25  C   UNL     1     -10.331 -11.345  19.806  0.00  0.00    +0.073 A 
ATOM     27  C   UNL     1     -10.910 -12.467  20.362  0.00  0.00    +0.127 A 
ATOM     28  C   UNL     1     -11.093 -10.196  19.852  0.00  0.00    +0.127 A 
ATOM     32  C   UNL     1     -12.780 -11.295  20.906  0.00  0.00    +0.221 A 
ENDBRANCH  24  25
ENDBRANCH  16   5
BRANCH  12   1
ATOM      1  O   UNL     1      -6.300 -10.015  13.920  0.00  0.00    -0.391 OA
ATOM     38  H   UNL     1      -6.002  -9.108  14.104  0.00  0.00    +0.210 HD
ENDBRANCH  12   1
BRANCH  15  20
ATOM     20  C   UNL     1      -3.957 -11.387  12.795  0.00  0.00    +0.077 C 
ATOM     22  C   UNL     1      -2.872 -12.457  12.735  0.00  0.00    +0.017 C 
BRANCH  20  23
ATOM      2  O   UNL     1      -2.534  -9.966  11.447  0.00  0.00    -0.276 OA
ATOM      6  N   UNL     1      -4.821  -9.579  11.432  0.00  0.00    -0.311 N 
ATOM     23  C   UNL     1      -3.670 -10.247  11.824  0.00  0.00    +0.216 C 
ATOM     39  H   UNL     1      -5.728  -9.906  11.748  0.00  0.00    +0.149 HD
BRANCH   6  26
ATOM     26  C   UNL     1      -4.803  -8.460  10.519  0.00  0.00    +0.139 C 
BRANCH  26  29
ATOM     29  C   UNL     1      -5.538  -8.765   9.246  0.00  0.00    -0.030 A 
ATOM     30  C   UNL     1      -6.788  -8.192   9.008  0.00  0.00    +0.009 A 
ATOM     31  C   UNL     1      -4.973  -9.621   8.301  0.00  0.00    +0.009 A 
ATOM     33  C   UNL     1      -7.472  -8.476   7.826  0.00  0.00    +0.046 A 
ATOM     34  C   UNL     1      -5.656  -9.904   7.118  0.00  0.00    +0.046 A 
ATOM     35  C   UNL     1      -6.906  -9.331   6.881  0.00  0.00    +0.120 A 
BRANCH  35   4
ATOM      4  O   UNL     1      -7.572  -9.608   5.727  0.00  0.00    -0.495 OA
ATOM     36  C   UNL     1      -7.840 -10.982   5.447  0.00  0.00    +0.277 C 
ENDBRANCH  35   4
ENDBRANCH  26  29
ENDBRANCH   6  26
ENDBRANCH  20  23
ENDBRANCH  15  20
TORSDOF 8
ENDMDL
MODEL 7
REMARK VINA RESULT:      -6.8     20.187     21.704
REMARK  Name = 45361634
REMARK  12 active torsions:
REMARK  status: ('A' for Active; 'I' for Inactive)
REMARK    1  A    between atoms: O_1  and  C_12
REMARK    2  A    between atoms: O_4  and  C_35
REMARK    3  A    between atoms: O_4  and  C_36
REMARK    4  A    between atoms: N_5  and  C_16
REMARK    5  A    between atoms: N_6  and  C_26
REMARK    6  A    between atoms: C_9  and  C_19
REMARK    7  A    between atoms: C_11  and  C_21
REMARK    8  A    between atoms: C_15  and  C_20
REMARK    9  A    between atoms: C_20  and  C_22
REMARK   10  A    between atoms: C_20  and  C_23
REMARK   11  A    between atoms: C_24  and  C_25
REMARK   12  A    between atoms: C_26  and  C_29
REMARK                            x       y       z     vdW  Elec       q    Type
REMARK                         _______ _______ _______ _____ _____    ______ ____
ROOT
ATOM      9  C   UNL     1      -6.533 -10.216  11.615  0.00  0.00    -0.027 C 
ATOM     10  C   UNL     1      -5.320  -9.593  10.848  0.00  0.00    +0.028 C 
ATOM     11  C   UNL     1      -5.601  -9.547   9.302  0.00  0.00    +0.012 C 
ATOM     12  C   UNL     1      -3.982 -10.269  11.265  0.00  0.00    +0.122 C 
ATOM     13  C   UNL     1      -6.273 -10.142  13.139  0.00  0.00    +0.007 C 
ATOM     14  C   UNL     1      -7.802  -9.385  11.314  0.00  0.00    +0.009 C 
ATOM     15  C   UNL     1      -3.777 -10.283  12.797  0.00  0.00    +0.029 C 
ATOM     16  C   UNL     1      -6.917  -8.773   9.017  0.00  0.00    +0.076 C 
ATOM     17  C   UNL     1      -4.983 -10.837  13.555  0.00  0.00    +0.007 C 
ATOM     18  C   UNL     1      -8.110  -9.282   9.827  0.00  0.00    +0.023 C 
ATOM     19  C   UNL     1      -6.787 -11.694  11.225  0.00  0.00    +0.011 C 
ATOM     21  C   UNL     1      -4.457  -8.918   8.488  0.00  0.00    +0.010 C 
ENDROOT
BRANCH  16   5
ATOM      3  O   UNL     1      -8.110  -6.654   7.490  0.00  0.00    -0.270 OA
ATOM      5  N   UNL     1      -7.268  -8.810   7.613  0.00  0.00    -0.308 N 
ATOM     24  C   UNL     1      -7.842  -7.731   6.963  0.00  0.00    +0.247 C 
ATOM     37  H   UNL     1      -7.170  -9.701   7.136  0.00  0.00    +0.149 HD
BRANCH  24  25
ATOM      7  N   UNL     1      -7.699  -8.997   3.418  0.00  0.00    -0.243 NA
ATOM      8  N   UNL     1      -9.546  -7.461   3.615  0.00  0.00    -0.243 NA
ATOM     25  C   UNL     1      -8.167  -7.938   5.528  0.00  0.00    +0.073 A 
ATOM     27  C   UNL     1      -7.433  -8.786   4.724  0.00  0.00    +0.127 A 
ATOM     28  C   UNL     1      -9.222  -7.297   4.914  0.00  0.00    +0.127 A 
ATOM     32  C   UNL     1      -8.754  -8.313   2.936  0.00  0.00    +0.221 A 
ENDBRANCH  24  25
ENDBRANCH  16   5
BRANCH  12   1
ATOM      1  O   UNL     1      -2.886  -9.537  10.713  0.00  0.00    -0.391 OA
ATOM     38  H   UNL     1      -3.215  -8.665  10.434  0.00  0.00    +0.210 HD
ENDBRANCH  12   1
BRANCH  15  20
ATOM     20  C   UNL     1      -2.520 -11.067  13.195  0.00  0.00    +0.077 C 
ATOM     22  C   UNL     1      -2.774 -12.566  13.071  0.00  0.00    +0.017 C 
BRANCH  20  23
ATOM      2  O   UNL     1      -1.164  -9.924  14.844  0.00  0.00    -0.276 OA
ATOM      6  N   UNL     1      -2.874 -11.306  15.581  0.00  0.00    -0.311 N 
ATOM     23  C   UNL     1      -2.097 -10.690  14.611  0.00  0.00    +0.216 C 
ATOM     39  H   UNL     1      -3.662 -11.884  15.306  0.00  0.00    +0.149 HD
BRANCH   6  26
ATOM     26  C   UNL     1      -2.664 -11.105  16.996  0.00  0.00    +0.139 C 
BRANCH  26  29
ATOM     29  C   UNL     1      -3.958 -11.080  17.756  0.00  0.00    -0.030 A 
ATOM     30  C   UNL     1      -5.037 -10.338  17.274  0.00  0.00    +0.009 A 
ATOM     31  C   UNL     1      -4.082 -11.797  18.947  0.00  0.00    +0.009 A 
ATOM     33  C   UNL     1      -6.239 -10.314  17.982  0.00  0.00    +0.046 A 
ATOM     34  C   UNL     1      -5.284 -11.773  19.654  0.00  0.00    +0.046 A 
ATOM     35  C   UNL     1      -6.363 -11.032  19.171  0.00  0.00    +0.120 A 
BRANCH  35   4
ATOM      4  O   UNL     1      -7.535 -11.009  19.861  0.00  0.00    -0.495 OA
ATOM     36  C   UNL     1      -8.396 -12.138  19.714  0.00  0.00    +0.277 C 
ENDBRANCH  35   4
ENDBRANCH  26  29
ENDBRANCH   6  26
ENDBRANCH  20  23
ENDBRANCH  15  20
TORSDOF 8
ENDMDL
MODEL 8
REMARK VINA RESULT:      -6.8      5.814      9.886
REMARK  Name = 45361634
REMARK  12 active torsions:
REMARK  status: ('A' for Active; 'I' for Inactive)
REMARK    1  A    between atoms: O_1  and  C_12
REMARK    2  A    between atoms: O_4  and  C_35
REMARK    3  A    between atoms: O_4  and  C_36
REMARK    4  A    between atoms: N_5  and  C_16
REMARK    5  A    between atoms: N_6  and  C_26
REMARK    6  A    between atoms: C_9  and  C_19
REMARK    7  A    between atoms: C_11  and  C_21
REMARK    8  A    between atoms: C_15  and  C_20
REMARK    9  A    between atoms: C_20  and  C_22
REMARK   10  A    between atoms: C_20  and  C_23
REMARK   11  A    between atoms: C_24  and  C_25
REMARK   12  A    between atoms: C_26  and  C_29
REMARK                            x       y       z     vdW  Elec       q    Type
REMARK                         _______ _______ _______ _____ _____    ______ ____
ROOT
ATOM      9  C   UNL     1     -14.885   1.467  31.167  0.00  0.00    -0.027 C 
ATOM     10  C   UNL     1     -16.040   2.499  30.945  0.00  0.00    +0.028 C 
ATOM     11  C   UNL     1     -16.324   2.698  29.412  0.00  0.00    +0.012 C 
ATOM     12  C   UNL     1     -15.793   3.805  31.754  0.00  0.00    +0.122 C 
ATOM     13  C   UNL     1     -14.707   1.209  32.682  0.00  0.00    +0.007 C 
ATOM     14  C   UNL     1     -15.272   0.125  30.503  0.00  0.00    +0.009 C 
ATOM     15  C   UNL     1     -15.514   3.532  33.250  0.00  0.00    +0.029 C 
ATOM     16  C   UNL     1     -16.640   1.332  28.742  0.00  0.00    +0.076 C 
ATOM     17  C   UNL     1     -14.426   2.481  33.472  0.00  0.00    +0.007 C 
ATOM     18  C   UNL     1     -15.586   0.260  29.021  0.00  0.00    +0.023 C 
ATOM     19  C   UNL     1     -13.534   1.953  30.583  0.00  0.00    +0.011 C 
ATOM     21  C   UNL     1     -17.472   3.680  29.122  0.00  0.00    +0.010 C 
ENDROOT
BRANCH  16   5
ATOM      3  O   UNL     1     -18.468  -0.124  27.074  0.00  0.00    -0.270 OA
ATOM      5  N   UNL     1     -16.793   1.462  27.307  0.00  0.00    -0.308 N 
ATOM     24  C   UNL     1     -17.707   0.711  26.589  0.00  0.00    +0.247 C 
ATOM     37  H   UNL     1     -16.129   2.057  26.824  0.00  0.00    +0.149 HD
BRANCH  24  25
ATOM      7  N   UNL     1     -18.465   0.312  22.921  0.00  0.00    -0.243 NA
ATOM      8  N   UNL     1     -17.026   2.223  23.208  0.00  0.00    -0.243 NA
ATOM     25  C   UNL     1     -17.723   0.942  25.122  0.00  0.00    +0.073 A 
ATOM     27  C   UNL     1     -18.429   0.131  24.258  0.00  0.00    +0.127 A 
ATOM     28  C   UNL     1     -17.033   1.983  24.535  0.00  0.00    +0.127 A 
ATOM     32  C   UNL     1     -17.752   1.361  22.470  0.00  0.00    +0.221 A 
ENDBRANCH  24  25
ENDBRANCH  16   5
BRANCH  12   1
ATOM      1  O   UNL     1     -16.960   4.627  31.700  0.00  0.00    -0.391 OA
ATOM     38  H   UNL     1     -17.691   4.143  32.120  0.00  0.00    +0.210 HD
ENDBRANCH  12   1
BRANCH  15  20
ATOM     20  C   UNL     1     -15.144   4.816  34.003  0.00  0.00    +0.077 C 
ATOM     22  C   UNL     1     -16.397   5.463  34.585  0.00  0.00    +0.017 C 
BRANCH  20  23
ATOM      2  O   UNL     1     -13.374   5.457  32.481  0.00  0.00    -0.276 OA
ATOM      6  N   UNL     1     -15.022   7.010  32.982  0.00  0.00    -0.311 N 
ATOM     23  C   UNL     1     -14.405   5.771  33.073  0.00  0.00    +0.216 C 
ATOM     39  H   UNL     1     -15.901   7.174  33.461  0.00  0.00    +0.149 HD
BRANCH   6  26
ATOM     26  C   UNL     1     -14.506   8.083  32.163  0.00  0.00    +0.139 C 
BRANCH  26  29
ATOM     29  C   UNL     1     -13.187   8.590  32.668  0.00  0.00    -0.030 A 
ATOM     30  C   UNL     1     -13.018   8.862  34.026  0.00  0.00    +0.009 A 
ATOM     31  C   UNL     1     -12.131   8.791  31.780  0.00  0.00    +0.009 A 
ATOM     33  C   UNL     1     -11.793   9.335  34.495  0.00  0.00    +0.046 A 
ATOM     34  C   UNL     1     -10.905   9.263  32.250  0.00  0.00    +0.046 A 
ATOM     35  C   UNL     1     -10.736   9.535  33.608  0.00  0.00    +0.120 A 
BRANCH  35   4
ATOM      4  O   UNL     1      -9.540   9.995  34.065  0.00  0.00    -0.495 OA
ATOM     36  C   UNL     1      -8.879  10.982  33.273  0.00  0.00    +0.277 C 
ENDBRANCH  35   4
ENDBRANCH  26  29
ENDBRANCH   6  26
ENDBRANCH  20  23
ENDBRANCH  15  20
TORSDOF 8
ENDMDL
MODEL 9
REMARK VINA RESULT:      -6.8     27.254     32.922
REMARK  Name = 45361634
REMARK  12 active torsions:
REMARK  status: ('A' for Active; 'I' for Inactive)
REMARK    1  A    between atoms: O_1  and  C_12
REMARK    2  A    between atoms: O_4  and  C_35
REMARK    3  A    between atoms: O_4  and  C_36
REMARK    4  A    between atoms: N_5  and  C_16
REMARK    5  A    between atoms: N_6  and  C_26
REMARK    6  A    between atoms: C_9  and  C_19
REMARK    7  A    between atoms: C_11  and  C_21
REMARK    8  A    between atoms: C_15  and  C_20
REMARK    9  A    between atoms: C_20  and  C_22
REMARK   10  A    between atoms: C_20  and  C_23
REMARK   11  A    between atoms: C_24  and  C_25
REMARK   12  A    between atoms: C_26  and  C_29
REMARK                            x       y       z     vdW  Elec       q    Type
REMARK                         _______ _______ _______ _____ _____    ______ ____
ROOT
ATOM      9  C   UNL     1      15.822   9.992  21.166  0.00  0.00    -0.027 C 
ATOM     10  C   UNL     1      15.545   8.469  21.397  0.00  0.00    +0.028 C 
ATOM     11  C   UNL     1      16.786   7.604  20.971  0.00  0.00    +0.012 C 
ATOM     12  C   UNL     1      14.185   8.042  20.771  0.00  0.00    +0.122 C 
ATOM     13  C   UNL     1      14.629  10.820  21.700  0.00  0.00    +0.007 C 
ATOM     14  C   UNL     1      17.078  10.404  21.969  0.00  0.00    +0.009 C 
ATOM     15  C   UNL     1      13.013   8.939  21.229  0.00  0.00    +0.029 C 
ATOM     16  C   UNL     1      18.057   8.076  21.730  0.00  0.00    +0.076 C 
ATOM     17  C   UNL     1      13.302  10.431  21.061  0.00  0.00    +0.007 C 
ATOM     18  C   UNL     1      18.308   9.581  21.618  0.00  0.00    +0.023 C 
ATOM     19  C   UNL     1      16.037  10.336  19.670  0.00  0.00    +0.011 C 
ATOM     21  C   UNL     1      16.592   6.095  21.199  0.00  0.00    +0.010 C 
ENDROOT
BRANCH  16   5
ATOM      3  O   UNL     1      19.880   6.562  23.350  0.00  0.00    -0.270 OA
ATOM      5  N   UNL     1      19.242   7.379  21.277  0.00  0.00    -0.308 N 
ATOM     24  C   UNL     1      20.062   6.672  22.140  0.00  0.00    +0.247 C 
ATOM     37  H   UNL     1      19.512   7.509  20.307  0.00  0.00    +0.149 HD
BRANCH  24  25
ATOM      7  N   UNL     1      22.442   4.053  20.851  0.00  0.00    -0.243 NA
ATOM      8  N   UNL     1      23.405   6.228  20.464  0.00  0.00    -0.243 NA
ATOM     25  C   UNL     1      21.253   6.035  21.523  0.00  0.00    +0.073 A 
ATOM     27  C   UNL     1      21.375   4.666  21.405  0.00  0.00    +0.127 A 
ATOM     28  C   UNL     1      22.309   6.773  21.030  0.00  0.00    +0.127 A 
ATOM     32  C   UNL     1      23.406   4.883  20.408  0.00  0.00    +0.221 A 
ENDBRANCH  24  25
ENDBRANCH  16   5
BRANCH  12   1
ATOM      1  O   UNL     1      13.867   6.712  21.185  0.00  0.00    -0.391 OA
ATOM     38  H   UNL     1      13.748   6.716  22.150  0.00  0.00    +0.210 HD
ENDBRANCH  12   1
BRANCH  15  20
ATOM     20  C   UNL     1      11.709   8.587  20.503  0.00  0.00    +0.077 C 
ATOM     22  C   UNL     1      10.950   7.514  21.277  0.00  0.00    +0.017 C 
BRANCH  20  23
ATOM      2  O   UNL     1      12.044   6.952  18.748  0.00  0.00    -0.276 OA
ATOM      6  N   UNL     1      12.244   9.202  18.221  0.00  0.00    -0.311 N 
ATOM     23  C   UNL     1      12.011   8.137  19.078  0.00  0.00    +0.216 C 
ATOM     39  H   UNL     1      12.146  10.154  18.559  0.00  0.00    +0.149 HD
BRANCH   6  26
ATOM     26  C   UNL     1      12.553   9.027  16.821  0.00  0.00    +0.139 C 
BRANCH  26  29
ATOM     29  C   UNL     1      13.629   9.968  16.363  0.00  0.00    -0.030 A 
ATOM     30  C   UNL     1      13.838  11.171  17.037  0.00  0.00    +0.009 A 
ATOM     31  C   UNL     1      14.420   9.639  15.262  0.00  0.00    +0.009 A 
ATOM     33  C   UNL     1      14.838  12.045  16.610  0.00  0.00    +0.046 A 
ATOM     34  C   UNL     1      15.421  10.514  14.836  0.00  0.00    +0.046 A 
ATOM     35  C   UNL     1      15.629  11.717  15.510  0.00  0.00    +0.120 A 
BRANCH  35   4
ATOM      4  O   UNL     1      16.604  12.569  15.094  0.00  0.00    -0.495 OA
ATOM     36  C   UNL     1      17.326  12.204  13.917  0.00  0.00    +0.277 C 
ENDBRANCH  35   4
ENDBRANCH  26  29
ENDBRANCH   6  26
ENDBRANCH  20  23
ENDBRANCH  15  20
TORSDOF 8
ENDMDL
MODEL 10
REMARK VINA RESULT:      -6.7     16.483     18.081
REMARK  Name = 45361634
REMARK  12 active torsions:
REMARK  status: ('A' for Active; 'I' for Inactive)
REMARK    1  A    between atoms: O_1  and  C_12
REMARK    2  A    between atoms: O_4  and  C_35
REMARK    3  A    between atoms: O_4  and  C_36
REMARK    4  A    between atoms: N_5  and  C_16
REMARK    5  A    between atoms: N_6  and  C_26
REMARK    6  A    between atoms: C_9  and  C_19
REMARK    7  A    between atoms: C_11  and  C_21
REMARK    8  A    between atoms: C_15  and  C_20
REMARK    9  A    between atoms: C_20  and  C_22
REMARK   10  A    between atoms: C_20  and  C_23
REMARK   11  A    between atoms: C_24  and  C_25
REMARK   12  A    between atoms: C_26  and  C_29
REMARK                            x       y       z     vdW  Elec       q    Type
REMARK                         _______ _______ _______ _____ _____    ______ ____
ROOT
ATOM      9  C   UNL     1     -12.298  -4.284  10.541  0.00  0.00    -0.027 C 
ATOM     10  C   UNL     1     -11.797  -5.729  10.873  0.00  0.00    +0.028 C 
ATOM     11  C   UNL     1     -11.423  -6.506   9.559  0.00  0.00    +0.012 C 
ATOM     12  C   UNL     1     -12.784  -6.463  11.826  0.00  0.00    +0.122 C 
ATOM     13  C   UNL     1     -12.548  -3.510  11.857  0.00  0.00    +0.007 C 
ATOM     14  C   UNL     1     -11.195  -3.535   9.757  0.00  0.00    +0.009 C 
ATOM     15  C   UNL     1     -13.111  -5.638  13.092  0.00  0.00    +0.029 C 
ATOM     16  C   UNL     1     -10.369  -5.708   8.743  0.00  0.00    +0.076 C 
ATOM     17  C   UNL     1     -13.544  -4.206  12.775  0.00  0.00    +0.007 C 
ATOM     18  C   UNL     1     -10.772  -4.256   8.485  0.00  0.00    +0.023 C 
ATOM     19  C   UNL     1     -13.605  -4.285   9.708  0.00  0.00    +0.011 C 
ATOM     21  C   UNL     1     -10.894  -7.928   9.815  0.00  0.00    +0.010 C 
ENDROOT
BRANCH  16   5
ATOM      3  O   UNL     1      -7.811  -6.620   7.810  0.00  0.00    -0.270 OA
ATOM      5  N   UNL     1     -10.087  -6.338   7.470  0.00  0.00    -0.308 N 
ATOM     24  C   UNL     1      -8.813  -6.745   7.110  0.00  0.00    +0.247 C 
ATOM     37  H   UNL     1     -10.846  -6.383   6.799  0.00  0.00    +0.149 HD
BRANCH  24  25
ATOM      7  N   UNL     1      -9.558  -7.706   3.545  0.00  0.00    -0.243 NA
ATOM      8  N   UNL     1      -7.453  -8.691   4.187  0.00  0.00    -0.243 NA
ATOM     25  C   UNL     1      -8.686  -7.350   5.760  0.00  0.00    +0.073 A 
ATOM     27  C   UNL     1      -9.641  -7.172   4.782  0.00  0.00    +0.127 A 
ATOM     28  C   UNL     1      -7.603  -8.127   5.403  0.00  0.00    +0.127 A 
ATOM     32  C   UNL     1      -8.454  -8.444   3.320  0.00  0.00    +0.221 A 
ENDBRANCH  24  25
ENDBRANCH  16   5
BRANCH  12   1
ATOM      1  O   UNL     1     -12.193  -7.684  12.276  0.00  0.00    -0.391 OA
ATOM     38  H   UNL     1     -11.895  -7.556  13.193  0.00  0.00    +0.210 HD
ENDBRANCH  12   1
BRANCH  15  20
ATOM     20  C   UNL     1     -14.183  -6.317  13.954  0.00  0.00    +0.077 C 
ATOM     22  C   UNL     1     -15.427  -5.440  14.032  0.00  0.00    +0.017 C 
BRANCH  20  23
ATOM      2  O   UNL     1     -14.338  -6.938  16.289  0.00  0.00    -0.276 OA
ATOM      6  N   UNL     1     -12.245  -6.482  15.399  0.00  0.00    -0.311 N 
ATOM     23  C   UNL     1     -13.624  -6.617  15.340  0.00  0.00    +0.216 C 
ATOM     39  H   UNL     1     -11.721  -6.265  14.557  0.00  0.00    +0.149 HD
BRANCH   6  26
ATOM     26  C   UNL     1     -11.487  -6.712  16.607  0.00  0.00    +0.139 C 
BRANCH  26  29
ATOM     29  C   UNL     1     -10.388  -7.713  16.398  0.00  0.00    -0.030 A 
ATOM     30  C   UNL     1      -9.562  -8.075  17.462  0.00  0.00    +0.009 A 
ATOM     31  C   UNL     1     -10.192  -8.280  15.139  0.00  0.00    +0.009 A 
ATOM     33  C   UNL     1      -8.540  -9.004  17.267  0.00  0.00    +0.046 A 
ATOM     34  C   UNL     1      -9.170  -9.210  14.944  0.00  0.00    +0.046 A 
ATOM     35  C   UNL     1      -8.344  -9.572  16.009  0.00  0.00    +0.120 A 
BRANCH  35   4
ATOM      4  O   UNL     1      -7.348 -10.479  15.818  0.00  0.00    -0.495 OA
ATOM     36  C   UNL     1      -6.163 -10.314  16.597  0.00  0.00    +0.277 C 
ENDBRANCH  35   4
ENDBRANCH  26  29
ENDBRANCH   6  26
ENDBRANCH  20  23
ENDBRANCH  15  20
TORSDOF 8
ENDMDL
