MODEL 1
REMARK VINA RESULT:      -6.7      0.000      0.000
REMARK  Name = 75367635
REMARK  6 active torsions:
REMARK  status: ('A' for Active; 'I' for Inactive)
REMARK    1  A    between atoms: O_2  and  C_7
REMARK    2  A    between atoms: O_2  and  C_14
REMARK    3  A    between atoms: O_3  and  C_13
REMARK    4  A    between atoms: O_3  and  C_17
REMARK    5  A    between atoms: C_12  and  C_13
REMARK    6  A    between atoms: C_16  and  C_20
REMARK                            x       y       z     vdW  Elec       q    Type
REMARK                         _______ _______ _______ _____ _____    ______ ____
ROOT
ATOM      1  O   UNL     1     -18.775   2.266  26.662  0.00  0.00    -0.375 OA
ATOM      4  O   UNL     1     -16.980   3.367  22.226  0.00  0.00    -0.272 OA
ATOM      5  N   UNL     1     -16.598   2.969  24.492  0.00  0.00    -0.293 N 
ATOM      7  C   UNL     1     -16.418   2.783  27.037  0.00  0.00    +0.218 C 
ATOM      8  C   UNL     1     -15.852   3.299  25.710  0.00  0.00    +0.154 C 
ATOM      9  C   UNL     1     -17.599   1.901  24.549  0.00  0.00    +0.136 C 
ATOM     10  C   UNL     1     -17.872   3.186  27.265  0.00  0.00    +0.206 C 
ATOM     11  C   UNL     1     -18.870   2.370  25.245  0.00  0.00    +0.179 C 
ATOM     12  C   UNL     1     -16.381   3.626  23.273  0.00  0.00    +0.253 C 
ENDROOT
BRANCH   7   2
ATOM      2  O   UNL     1     -15.638   3.348  28.093  0.00  0.00    -0.469 OA
BRANCH   2  14
ATOM      6  N   UNL     1     -14.524   3.023  30.098  0.00  0.00    -0.218 NA
ATOM     14  C   UNL     1     -15.275   2.502  29.103  0.00  0.00    +0.215 A 
ATOM     15  C   UNL     1     -15.687   1.179  29.054  0.00  0.00    +0.067 A 
ATOM     16  C   UNL     1     -14.170   2.175  31.091  0.00  0.00    +0.042 A 
ATOM     18  C   UNL     1     -15.303   0.338  30.092  0.00  0.00    +0.007 A 
ATOM     19  C   UNL     1     -14.530   0.839  31.134  0.00  0.00    +0.023 A 
ATOM     20  C   UNL     1     -13.338   2.745  32.191  0.00  0.00    +0.066 C 
ENDBRANCH   2  14
ENDBRANCH   7   2
BRANCH  12  13
ATOM     13  C   UNL     1     -15.345   4.725  23.276  0.00  0.00    +0.324 C 
BRANCH  13   3
ATOM      3  O   UNL     1     -14.532   4.513  22.150  0.00  0.00    -0.483 OA
BRANCH   3  17
ATOM     17  C   UNL     1     -13.931   5.616  21.585  0.00  0.00    +0.121 A 
ATOM     21  C   UNL     1     -14.711   6.605  20.984  0.00  0.00    +0.045 A 
ATOM     22  C   UNL     1     -12.543   5.746  21.613  0.00  0.00    +0.045 A 
ATOM     23  C   UNL     1     -14.103   7.722  20.413  0.00  0.00    +0.004 A 
ATOM     24  C   UNL     1     -11.934   6.863  21.041  0.00  0.00    +0.004 A 
ATOM     25  C   UNL     1     -12.714   7.852  20.440  0.00  0.00    +0.000 A 
ENDBRANCH   3  17
ENDBRANCH  13   3
ENDBRANCH  12  13
TORSDOF 5
ENDMDL
MODEL 2
REMARK VINA RESULT:      -6.5     28.497     31.200
REMARK  Name = 75367635
REMARK  6 active torsions:
REMARK  status: ('A' for Active; 'I' for Inactive)
REMARK    1  A    between atoms: O_2  and  C_7
REMARK    2  A    between atoms: O_2  and  C_14
REMARK    3  A    between atoms: O_3  and  C_13
REMARK    4  A    between atoms: O_3  and  C_17
REMARK    5  A    between atoms: C_12  and  C_13
REMARK    6  A    between atoms: C_16  and  C_20
REMARK                            x       y       z     vdW  Elec       q    Type
REMARK                         _______ _______ _______ _____ _____    ______ ____
ROOT
ATOM      1  O   UNL     1      14.200  12.141  17.484  0.00  0.00    -0.375 OA
ATOM      4  O   UNL     1      13.801   7.285  16.883  0.00  0.00    -0.272 OA
ATOM      5  N   UNL     1      13.514   9.158  18.241  0.00  0.00    -0.293 N 
ATOM      7  C   UNL     1      13.540  11.278  19.672  0.00  0.00    +0.218 C 
ATOM      8  C   UNL     1      13.568   9.750  19.582  0.00  0.00    +0.154 C 
ATOM      9  C   UNL     1      13.083   9.997  17.121  0.00  0.00    +0.136 C 
ATOM     10  C   UNL     1      14.622  11.948  18.830  0.00  0.00    +0.206 C 
ATOM     11  C   UNL     1      14.183  10.958  16.692  0.00  0.00    +0.179 C 
ATOM     12  C   UNL     1      13.846   7.819  17.993  0.00  0.00    +0.253 C 
ENDROOT
BRANCH   7   2
ATOM      2  O   UNL     1      13.763  11.639  21.036  0.00  0.00    -0.469 OA
BRANCH   2  14
ATOM      6  N   UNL     1      12.469  11.650  22.959  0.00  0.00    -0.218 NA
ATOM     14  C   UNL     1      12.690  12.140  21.719  0.00  0.00    +0.215 A 
ATOM     15  C   UNL     1      11.900  13.105  21.114  0.00  0.00    +0.067 A 
ATOM     16  C   UNL     1      11.403  12.153  23.622  0.00  0.00    +0.042 A 
ATOM     18  C   UNL     1      10.813  13.598  21.827  0.00  0.00    +0.007 A 
ATOM     19  C   UNL     1      10.554  13.118  23.107  0.00  0.00    +0.023 A 
ATOM     20  C   UNL     1      11.153  11.612  24.991  0.00  0.00    +0.066 C 
ENDBRANCH   2  14
ENDBRANCH   7   2
BRANCH  12  13
ATOM     13  C   UNL     1      14.294   7.005  19.185  0.00  0.00    +0.324 C 
BRANCH  13   3
ATOM      3  O   UNL     1      15.502   6.389  18.818  0.00  0.00    -0.483 OA
BRANCH   3  17
ATOM     17  C   UNL     1      16.605   6.640  19.605  0.00  0.00    +0.121 A 
ATOM     21  C   UNL     1      16.578   7.682  20.532  0.00  0.00    +0.045 A 
ATOM     22  C   UNL     1      17.749   5.853  19.474  0.00  0.00    +0.045 A 
ATOM     23  C   UNL     1      17.695   7.936  21.328  0.00  0.00    +0.004 A 
ATOM     24  C   UNL     1      18.866   6.107  20.270  0.00  0.00    +0.004 A 
ATOM     25  C   UNL     1      18.839   7.149  21.198  0.00  0.00    +0.000 A 
ENDBRANCH   3  17
ENDBRANCH  13   3
ENDBRANCH  12  13
TORSDOF 5
ENDMDL
MODEL 3
REMARK VINA RESULT:      -6.5     28.175     31.792
REMARK  Name = 75367635
REMARK  6 active torsions:
REMARK  status: ('A' for Active; 'I' for Inactive)
REMARK    1  A    between atoms: O_2  and  C_7
REMARK    2  A    between atoms: O_2  and  C_14
REMARK    3  A    between atoms: O_3  and  C_13
REMARK    4  A    between atoms: O_3  and  C_17
REMARK    5  A    between atoms: C_12  and  C_13
REMARK    6  A    between atoms: C_16  and  C_20
REMARK                            x       y       z     vdW  Elec       q    Type
REMARK                         _______ _______ _______ _____ _____    ______ ____
ROOT
ATOM      1  O   UNL     1      17.708   5.261  19.396  0.00  0.00    -0.375 OA
ATOM      4  O   UNL     1      19.078   9.018  22.245  0.00  0.00    -0.272 OA
ATOM      5  N   UNL     1      17.396   7.921  21.061  0.00  0.00    -0.293 N 
ATOM      7  C   UNL     1      15.765   6.738  19.484  0.00  0.00    +0.218 C 
ATOM      8  C   UNL     1      16.197   8.009  20.221  0.00  0.00    +0.154 C 
ATOM      9  C   UNL     1      17.892   6.595  21.437  0.00  0.00    +0.136 C 
ATOM     10  C   UNL     1      16.877   6.131  18.634  0.00  0.00    +0.206 C 
ATOM     11  C   UNL     1      18.612   5.922  20.275  0.00  0.00    +0.179 C 
ATOM     12  C   UNL     1      18.076   9.054  21.528  0.00  0.00    +0.253 C 
ENDROOT
BRANCH   7   2
ATOM      2  O   UNL     1      14.689   7.085  18.610  0.00  0.00    -0.469 OA
BRANCH   2  14
ATOM      6  N   UNL     1      12.966   6.554  20.065  0.00  0.00    -0.218 NA
ATOM     14  C   UNL     1      13.510   7.441  19.204  0.00  0.00    +0.215 A 
ATOM     15  C   UNL     1      12.947   8.670  18.895  0.00  0.00    +0.067 A 
ATOM     16  C   UNL     1      11.798   6.919  20.644  0.00  0.00    +0.042 A 
ATOM     18  C   UNL     1      11.747   9.008  19.510  0.00  0.00    +0.007 A 
ATOM     19  C   UNL     1      11.155   8.121  20.403  0.00  0.00    +0.023 A 
ATOM     20  C   UNL     1      11.191   5.941  21.594  0.00  0.00    +0.066 C 
ENDBRANCH   2  14
ENDBRANCH   7   2
BRANCH  12  13
ATOM     13  C   UNL     1      17.524  10.393  21.099  0.00  0.00    +0.324 C 
BRANCH  13   3
ATOM      3  O   UNL     1      16.836  10.916  22.207  0.00  0.00    -0.483 OA
BRANCH   3  17
ATOM     17  C   UNL     1      15.487  11.153  22.061  0.00  0.00    +0.121 A 
ATOM     21  C   UNL     1      15.013  11.812  20.926  0.00  0.00    +0.045 A 
ATOM     22  C   UNL     1      14.594  10.737  23.049  0.00  0.00    +0.045 A 
ATOM     23  C   UNL     1      13.647  12.052  20.778  0.00  0.00    +0.004 A 
ATOM     24  C   UNL     1      13.228  10.977  22.901  0.00  0.00    +0.004 A 
ATOM     25  C   UNL     1      12.754  11.635  21.766  0.00  0.00    +0.000 A 
ENDBRANCH   3  17
ENDBRANCH  13   3
ENDBRANCH  12  13
TORSDOF 5
ENDMDL
MODEL 4
REMARK VINA RESULT:      -6.4     28.194     31.305
REMARK  Name = 75367635
REMARK  6 active torsions:
REMARK  status: ('A' for Active; 'I' for Inactive)
REMARK    1  A    between atoms: O_2  and  C_7
REMARK    2  A    between atoms: O_2  and  C_14
REMARK    3  A    between atoms: O_3  and  C_13
REMARK    4  A    between atoms: O_3  and  C_17
REMARK    5  A    between atoms: C_12  and  C_13
REMARK    6  A    between atoms: C_16  and  C_20
REMARK                            x       y       z     vdW  Elec       q    Type
REMARK                         _______ _______ _______ _____ _____    ______ ____
ROOT
ATOM      1  O   UNL     1      15.902  12.727  16.459  0.00  0.00    -0.375 OA
ATOM      4  O   UNL     1      13.794   8.471  15.217  0.00  0.00    -0.272 OA
ATOM      5  N   UNL     1      14.165  10.121  16.821  0.00  0.00    -0.293 N 
ATOM      7  C   UNL     1      14.914  11.877  18.524  0.00  0.00    +0.218 C 
ATOM      8  C   UNL     1      14.391  10.469  18.228  0.00  0.00    +0.154 C 
ATOM      9  C   UNL     1      14.097  11.201  15.835  0.00  0.00    +0.136 C 
ATOM     10  C   UNL     1      16.189  12.217  17.757  0.00  0.00    +0.206 C 
ATOM     11  C   UNL     1      15.482  11.748  15.515  0.00  0.00    +0.179 C 
ATOM     12  C   UNL     1      13.999   8.799  16.388  0.00  0.00    +0.253 C 
ENDROOT
BRANCH   7   2
ATOM      2  O   UNL     1      15.214  11.947  19.920  0.00  0.00    -0.469 OA
BRANCH   2  14
ATOM      6  N   UNL     1      16.340   9.983  20.418  0.00  0.00    -0.218 NA
ATOM     14  C   UNL     1      15.248  10.760  20.597  0.00  0.00    +0.215 A 
ATOM     15  C   UNL     1      14.181  10.422  21.414  0.00  0.00    +0.067 A 
ATOM     16  C   UNL     1      16.359   8.811  21.092  0.00  0.00    +0.042 A 
ATOM     18  C   UNL     1      14.237   9.209  22.091  0.00  0.00    +0.007 A 
ATOM     19  C   UNL     1      15.345   8.382  21.932  0.00  0.00    +0.023 A 
ATOM     20  C   UNL     1      17.561   7.948  20.896  0.00  0.00    +0.066 C 
ENDBRANCH   2  14
ENDBRANCH   7   2
BRANCH  12  13
ATOM     13  C   UNL     1      14.089   7.727  17.449  0.00  0.00    +0.324 C 
BRANCH  13   3
ATOM      3  O   UNL     1      12.784   7.239  17.638  0.00  0.00    -0.483 OA
BRANCH   3  17
ATOM     17  C   UNL     1      12.226   7.391  18.888  0.00  0.00    +0.121 A 
ATOM     21  C   UNL     1      11.435   8.505  19.168  0.00  0.00    +0.045 A 
ATOM     22  C   UNL     1      12.453   6.431  19.874  0.00  0.00    +0.045 A 
ATOM     23  C   UNL     1      10.870   8.658  20.435  0.00  0.00    +0.004 A 
ATOM     24  C   UNL     1      11.888   6.584  21.140  0.00  0.00    +0.004 A 
ATOM     25  C   UNL     1      11.097   7.699  21.421  0.00  0.00    +0.000 A 
ENDBRANCH   3  17
ENDBRANCH  13   3
ENDBRANCH  12  13
TORSDOF 5
ENDMDL
MODEL 5
REMARK VINA RESULT:      -6.3     27.196     30.381
REMARK  Name = 75367635
REMARK  6 active torsions:
REMARK  status: ('A' for Active; 'I' for Inactive)
REMARK    1  A    between atoms: O_2  and  C_7
REMARK    2  A    between atoms: O_2  and  C_14
REMARK    3  A    between atoms: O_3  and  C_13
REMARK    4  A    between atoms: O_3  and  C_17
REMARK    5  A    between atoms: C_12  and  C_13
REMARK    6  A    between atoms: C_16  and  C_20
REMARK                            x       y       z     vdW  Elec       q    Type
REMARK                         _______ _______ _______ _____ _____    ______ ____
ROOT
ATOM      1  O   UNL     1      14.042   9.877  14.901  0.00  0.00    -0.375 OA
ATOM      4  O   UNL     1      15.029  13.902  17.535  0.00  0.00    -0.272 OA
ATOM      5  N   UNL     1      14.234  11.711  17.459  0.00  0.00    -0.293 N 
ATOM      7  C   UNL     1      13.143   9.422  17.126  0.00  0.00    +0.218 C 
ATOM      8  C   UNL     1      13.273  10.713  17.939  0.00  0.00    +0.154 C 
ATOM      9  C   UNL     1      15.247  11.299  16.485  0.00  0.00    +0.136 C 
ATOM     10  C   UNL     1      12.849   9.670  15.650  0.00  0.00    +0.206 C 
ATOM     11  C   UNL     1      14.649  11.151  15.092  0.00  0.00    +0.179 C 
ATOM     12  C   UNL     1      14.229  13.040  17.906  0.00  0.00    +0.253 C 
ENDROOT
BRANCH   7   2
ATOM      2  O   UNL     1      12.054   8.673  17.668  0.00  0.00    -0.469 OA
BRANCH   2  14
ATOM      6  N   UNL     1      11.258   8.027  19.747  0.00  0.00    -0.218 NA
ATOM     14  C   UNL     1      12.278   8.043  18.861  0.00  0.00    +0.215 A 
ATOM     15  C   UNL     1      13.518   7.468  19.094  0.00  0.00    +0.067 A 
ATOM     16  C   UNL     1      11.495   7.403  20.923  0.00  0.00    +0.042 A 
ATOM     18  C   UNL     1      13.723   6.836  20.315  0.00  0.00    +0.007 A 
ATOM     19  C   UNL     1      12.696   6.798  21.252  0.00  0.00    +0.023 A 
ATOM     20  C   UNL     1      10.372   7.384  21.906  0.00  0.00    +0.066 C 
ENDBRANCH   2  14
ENDBRANCH   7   2
BRANCH  12  13
ATOM     13  C   UNL     1      13.156  13.410  18.903  0.00  0.00    +0.324 C 
BRANCH  13   3
ATOM      3  O   UNL     1      13.726  13.262  20.179  0.00  0.00    -0.483 OA
BRANCH   3  17
ATOM     17  C   UNL     1      13.128  12.370  21.040  0.00  0.00    +0.121 A 
ATOM     21  C   UNL     1      11.783  12.521  21.380  0.00  0.00    +0.045 A 
ATOM     22  C   UNL     1      13.867  11.314  21.575  0.00  0.00    +0.045 A 
ATOM     23  C   UNL     1      11.178  11.617  22.252  0.00  0.00    +0.004 A 
ATOM     24  C   UNL     1      13.262  10.410  22.448  0.00  0.00    +0.004 A 
ATOM     25  C   UNL     1      11.917  10.561  22.787  0.00  0.00    +0.000 A 
ENDBRANCH   3  17
ENDBRANCH  13   3
ENDBRANCH  12  13
TORSDOF 5
ENDMDL
MODEL 6
REMARK VINA RESULT:      -6.3     30.822     35.137
REMARK  Name = 75367635
REMARK  6 active torsions:
REMARK  status: ('A' for Active; 'I' for Inactive)
REMARK    1  A    between atoms: O_2  and  C_7
REMARK    2  A    between atoms: O_2  and  C_14
REMARK    3  A    between atoms: O_3  and  C_13
REMARK    4  A    between atoms: O_3  and  C_17
REMARK    5  A    between atoms: C_12  and  C_13
REMARK    6  A    between atoms: C_16  and  C_20
REMARK                            x       y       z     vdW  Elec       q    Type
REMARK                         _______ _______ _______ _____ _____    ______ ____
ROOT
ATOM      1  O   UNL     1      12.184   8.964   3.065  0.00  0.00    -0.375 OA
ATOM      4  O   UNL     1      10.218   6.112  -0.414  0.00  0.00    -0.272 OA
ATOM      5  N   UNL     1      10.538   6.565   1.850  0.00  0.00    -0.293 N 
ATOM      7  C   UNL     1      11.233   7.059   4.262  0.00  0.00    +0.218 C 
ATOM      8  C   UNL     1      10.757   6.055   3.208  0.00  0.00    +0.154 C 
ATOM      9  C   UNL     1      10.430   8.012   1.653  0.00  0.00    +0.136 C 
ATOM     10  C   UNL     1      12.492   7.814   3.846  0.00  0.00    +0.206 C 
ATOM     11  C   UNL     1      11.794   8.685   1.725  0.00  0.00    +0.179 C 
ATOM     12  C   UNL     1      10.415   5.720   0.738  0.00  0.00    +0.253 C 
ENDROOT
BRANCH   7   2
ATOM      2  O   UNL     1      11.535   6.330   5.453  0.00  0.00    -0.469 OA
BRANCH   2  14
ATOM      6  N   UNL     1      10.499   5.389   7.300  0.00  0.00    -0.218 NA
ATOM     14  C   UNL     1      10.652   6.459   6.489  0.00  0.00    +0.215 A 
ATOM     15  C   UNL     1       9.973   7.657   6.648  0.00  0.00    +0.067 A 
ATOM     16  C   UNL     1       9.620   5.530   8.319  0.00  0.00    +0.042 A 
ATOM     18  C   UNL     1       9.078   7.763   7.707  0.00  0.00    +0.007 A 
ATOM     19  C   UNL     1       8.894   6.683   8.564  0.00  0.00    +0.023 A 
ATOM     20  C   UNL     1       9.445   4.350   9.216  0.00  0.00    +0.066 C 
ENDBRANCH   2  14
ENDBRANCH   7   2
BRANCH  12  13
ATOM     13  C   UNL     1      10.546   4.238   1.001  0.00  0.00    +0.324 C 
BRANCH  13   3
ATOM      3  O   UNL     1      11.382   3.725  -0.005  0.00  0.00    -0.483 OA
BRANCH   3  17
ATOM     17  C   UNL     1      12.740   3.754   0.224  0.00  0.00    +0.121 A 
ATOM     21  C   UNL     1      13.242   3.427   1.484  0.00  0.00    +0.045 A 
ATOM     22  C   UNL     1      13.613   4.112  -0.803  0.00  0.00    +0.045 A 
ATOM     23  C   UNL     1      14.617   3.457   1.716  0.00  0.00    +0.004 A 
ATOM     24  C   UNL     1      14.988   4.141  -0.571  0.00  0.00    +0.004 A 
ATOM     25  C   UNL     1      15.491   3.814   0.690  0.00  0.00    +0.000 A 
ENDBRANCH   3  17
ENDBRANCH  13   3
ENDBRANCH  12  13
TORSDOF 5
ENDMDL
MODEL 7
REMARK VINA RESULT:      -6.2     31.119     36.349
REMARK  Name = 75367635
REMARK  6 active torsions:
REMARK  status: ('A' for Active; 'I' for Inactive)
REMARK    1  A    between atoms: O_2  and  C_7
REMARK    2  A    between atoms: O_2  and  C_14
REMARK    3  A    between atoms: O_3  and  C_13
REMARK    4  A    between atoms: O_3  and  C_17
REMARK    5  A    between atoms: C_12  and  C_13
REMARK    6  A    between atoms: C_16  and  C_20
REMARK                            x       y       z     vdW  Elec       q    Type
REMARK                         _______ _______ _______ _____ _____    ______ ____
ROOT
ATOM      1  O   UNL     1      13.284   6.418   0.033  0.00  0.00    -0.375 OA
ATOM      4  O   UNL     1      12.217   6.751   4.814  0.00  0.00    -0.272 OA
ATOM      5  N   UNL     1      11.998   5.605   2.795  0.00  0.00    -0.293 N 
ATOM      7  C   UNL     1      11.646   4.654   0.446  0.00  0.00    +0.218 C 
ATOM      8  C   UNL     1      11.153   4.824   1.886  0.00  0.00    +0.154 C 
ATOM      9  C   UNL     1      13.388   5.863   2.412  0.00  0.00    +0.136 C 
ATOM     10  C   UNL     1      11.958   5.980  -0.241  0.00  0.00    +0.206 C 
ATOM     11  C   UNL     1      13.477   6.943   1.342  0.00  0.00    +0.179 C 
ATOM     12  C   UNL     1      11.532   6.102   4.020  0.00  0.00    +0.253 C 
ENDROOT
BRANCH   7   2
ATOM      2  O   UNL     1      10.610   4.010  -0.297  0.00  0.00    -0.469 OA
BRANCH   2  14
ATOM      6  N   UNL     1      10.014   3.906  -2.534  0.00  0.00    -0.218 NA
ATOM     14  C   UNL     1      10.920   3.626  -1.571  0.00  0.00    +0.215 A 
ATOM     15  C   UNL     1      12.125   2.979  -1.804  0.00  0.00    +0.067 A 
ATOM     16  C   UNL     1      10.333   3.517  -3.790  0.00  0.00    +0.042 A 
ATOM     18  C   UNL     1      12.417   2.596  -3.108  0.00  0.00    +0.007 A 
ATOM     19  C   UNL     1      11.509   2.867  -4.126  0.00  0.00    +0.023 A 
ATOM     20  C   UNL     1       9.334   3.822  -4.856  0.00  0.00    +0.066 C 
ENDBRANCH   2  14
ENDBRANCH   7   2
BRANCH  12  13
ATOM     13  C   UNL     1      10.088   5.813   4.356  0.00  0.00    +0.324 C 
BRANCH  13   3
ATOM      3  O   UNL     1      10.094   4.737   5.260  0.00  0.00    -0.483 OA
BRANCH   3  17
ATOM     17  C   UNL     1       9.777   5.010   6.572  0.00  0.00    +0.121 A 
ATOM     21  C   UNL     1       9.352   6.288   6.936  0.00  0.00    +0.045 A 
ATOM     22  C   UNL     1       9.882   4.009   7.538  0.00  0.00    +0.045 A 
ATOM     23  C   UNL     1       9.031   6.564   8.265  0.00  0.00    +0.004 A 
ATOM     24  C   UNL     1       9.561   4.285   8.867  0.00  0.00    +0.004 A 
ATOM     25  C   UNL     1       9.136   5.564   9.231  0.00  0.00    +0.000 A 
ENDBRANCH   3  17
ENDBRANCH  13   3
ENDBRANCH  12  13
TORSDOF 5
ENDMDL
MODEL 8
REMARK VINA RESULT:      -6.2     17.725     19.294
REMARK  Name = 75367635
REMARK  6 active torsions:
REMARK  status: ('A' for Active; 'I' for Inactive)
REMARK    1  A    between atoms: O_2  and  C_7
REMARK    2  A    between atoms: O_2  and  C_14
REMARK    3  A    between atoms: O_3  and  C_13
REMARK    4  A    between atoms: O_3  and  C_17
REMARK    5  A    between atoms: C_12  and  C_13
REMARK    6  A    between atoms: C_16  and  C_20
REMARK                            x       y       z     vdW  Elec       q    Type
REMARK                         _______ _______ _______ _____ _____    ______ ____
ROOT
ATOM      1  O   UNL     1      -5.663 -11.826  19.456  0.00  0.00    -0.375 OA
ATOM      4  O   UNL     1     -10.100 -10.149  18.187  0.00  0.00    -0.272 OA
ATOM      5  N   UNL     1      -7.865 -10.504  17.626  0.00  0.00    -0.293 N 
ATOM      7  C   UNL     1      -5.336 -10.717  17.304  0.00  0.00    +0.218 C 
ATOM      8  C   UNL     1      -6.656 -10.028  16.946  0.00  0.00    +0.154 C 
ATOM      9  C   UNL     1      -7.822 -11.799  18.308  0.00  0.00    +0.136 C 
ATOM     10  C   UNL     1      -5.049 -10.720  18.803  0.00  0.00    +0.206 C 
ATOM     11  C   UNL     1      -7.071 -11.705  19.630  0.00  0.00    +0.179 C 
ATOM     12  C   UNL     1      -9.062  -9.774  17.637  0.00  0.00    +0.253 C 
ENDROOT
BRANCH   7   2
ATOM      2  O   UNL     1      -4.282 -10.001  16.659  0.00  0.00    -0.469 OA
BRANCH   2  14
ATOM      6  N   UNL     1      -3.914 -11.771  15.210  0.00  0.00    -0.218 NA
ATOM     14  C   UNL     1      -3.402 -10.742  15.921  0.00  0.00    +0.215 A 
ATOM     15  C   UNL     1      -2.057 -10.407  15.942  0.00  0.00    +0.067 A 
ATOM     16  C   UNL     1      -3.032 -12.498  14.486  0.00  0.00    +0.042 A 
ATOM     18  C   UNL     1      -1.182 -11.177  15.185  0.00  0.00    +0.007 A 
ATOM     19  C   UNL     1      -1.671 -12.245  14.440  0.00  0.00    +0.023 A 
ATOM     20  C   UNL     1      -3.592 -13.637  13.701  0.00  0.00    +0.066 C 
ENDBRANCH   2  14
ENDBRANCH   7   2
BRANCH  12  13
ATOM     13  C   UNL     1      -9.043  -8.442  16.926  0.00  0.00    +0.324 C 
BRANCH  13   3
ATOM      3  O   UNL     1     -10.092  -7.682  17.473  0.00  0.00    -0.483 OA
BRANCH   3  17
ATOM     17  C   UNL     1     -11.080  -7.256  16.613  0.00  0.00    +0.121 A 
ATOM     21  C   UNL     1     -10.874  -6.129  15.816  0.00  0.00    +0.045 A 
ATOM     22  C   UNL     1     -12.288  -7.949  16.540  0.00  0.00    +0.045 A 
ATOM     23  C   UNL     1     -11.875  -5.698  14.945  0.00  0.00    +0.004 A 
ATOM     24  C   UNL     1     -13.289  -7.517  15.669  0.00  0.00    +0.004 A 
ATOM     25  C   UNL     1     -13.083  -6.391  14.872  0.00  0.00    +0.000 A 
ENDBRANCH   3  17
ENDBRANCH  13   3
ENDBRANCH  12  13
TORSDOF 5
ENDMDL
MODEL 9
REMARK VINA RESULT:      -6.1     27.994     30.097
REMARK  Name = 75367635
REMARK  6 active torsions:
REMARK  status: ('A' for Active; 'I' for Inactive)
REMARK    1  A    between atoms: O_2  and  C_7
REMARK    2  A    between atoms: O_2  and  C_14
REMARK    3  A    between atoms: O_3  and  C_13
REMARK    4  A    between atoms: O_3  and  C_17
REMARK    5  A    between atoms: C_12  and  C_13
REMARK    6  A    between atoms: C_16  and  C_20
REMARK                            x       y       z     vdW  Elec       q    Type
REMARK                         _______ _______ _______ _____ _____    ______ ____
ROOT
ATOM      1  O   UNL     1      15.002  12.340  20.436  0.00  0.00    -0.375 OA
ATOM      4  O   UNL     1      13.041   9.235  17.177  0.00  0.00    -0.272 OA
ATOM      5  N   UNL     1      12.891  10.334  19.228  0.00  0.00    -0.293 N 
ATOM      7  C   UNL     1      13.040  11.401  21.548  0.00  0.00    +0.218 C 
ATOM      8  C   UNL     1      12.489  10.299  20.638  0.00  0.00    +0.154 C 
ATOM      9  C   UNL     1      13.470  11.568  18.694  0.00  0.00    +0.136 C 
ATOM     10  C   UNL     1      14.562  11.509  21.506  0.00  0.00    +0.206 C 
ATOM     11  C   UNL     1      14.914  11.744  19.146  0.00  0.00    +0.179 C 
ATOM     12  C   UNL     1      12.728   9.237  18.370  0.00  0.00    +0.253 C 
ENDROOT
BRANCH   7   2
ATOM      2  O   UNL     1      12.663  11.088  22.890  0.00  0.00    -0.469 OA
BRANCH   2  14
ATOM      6  N   UNL     1      11.132  12.819  22.719  0.00  0.00    -0.218 NA
ATOM     14  C   UNL     1      11.826  11.972  23.511  0.00  0.00    +0.215 A 
ATOM     15  C   UNL     1      11.737  11.955  24.895  0.00  0.00    +0.067 A 
ATOM     16  C   UNL     1      10.309  13.690  23.347  0.00  0.00    +0.042 A 
ATOM     18  C   UNL     1      10.881  12.865  25.504  0.00  0.00    +0.007 A 
ATOM     19  C   UNL     1      10.149  13.753  24.721  0.00  0.00    +0.023 A 
ATOM     20  C   UNL     1       9.542  14.630  22.477  0.00  0.00    +0.066 C 
ENDBRANCH   2  14
ENDBRANCH   7   2
BRANCH  12  13
ATOM     13  C   UNL     1      12.134   7.989  18.979  0.00  0.00    +0.324 C 
BRANCH  13   3
ATOM      3  O   UNL     1      13.070   6.960  18.776  0.00  0.00    -0.483 OA
BRANCH   3  17
ATOM     17  C   UNL     1      14.201   6.969  19.561  0.00  0.00    +0.121 A 
ATOM     21  C   UNL     1      14.092   7.140  20.941  0.00  0.00    +0.045 A 
ATOM     22  C   UNL     1      15.458   6.809  18.977  0.00  0.00    +0.045 A 
ATOM     23  C   UNL     1      15.238   7.149  21.736  0.00  0.00    +0.004 A 
ATOM     24  C   UNL     1      16.604   6.818  19.772  0.00  0.00    +0.004 A 
ATOM     25  C   UNL     1      16.494   6.989  21.152  0.00  0.00    +0.000 A 
ENDBRANCH   3  17
ENDBRANCH  13   3
ENDBRANCH  12  13
TORSDOF 5
ENDMDL
MODEL 10
REMARK VINA RESULT:      -6.0     20.194     23.172
REMARK  Name = 75367635
REMARK  6 active torsions:
REMARK  status: ('A' for Active; 'I' for Inactive)
REMARK    1  A    between atoms: O_2  and  C_7
REMARK    2  A    between atoms: O_2  and  C_14
REMARK    3  A    between atoms: O_3  and  C_13
REMARK    4  A    between atoms: O_3  and  C_17
REMARK    5  A    between atoms: C_12  and  C_13
REMARK    6  A    between atoms: C_16  and  C_20
REMARK                            x       y       z     vdW  Elec       q    Type
REMARK                         _______ _______ _______ _____ _____    ______ ____
ROOT
ATOM      1  O   UNL     1      -3.344  -8.980   9.646  0.00  0.00    -0.375 OA
ATOM      4  O   UNL     1      -2.947 -11.140  14.038  0.00  0.00    -0.272 OA
ATOM      5  N   UNL     1      -4.291 -10.495  12.245  0.00  0.00    -0.293 N 
ATOM      7  C   UNL     1      -5.638  -9.465  10.330  0.00  0.00    +0.218 C 
ATOM      8  C   UNL     1      -5.581  -9.984  11.769  0.00  0.00    +0.154 C 
ATOM      9  C   UNL     1      -3.257 -10.817  11.258  0.00  0.00    +0.136 C 
ATOM     10  C   UNL     1      -4.586  -8.401  10.034  0.00  0.00    +0.206 C 
ATOM     11  C   UNL     1      -2.599  -9.556  10.714  0.00  0.00    +0.179 C 
ATOM     12  C   UNL     1      -4.014 -10.700  13.603  0.00  0.00    +0.253 C 
ENDROOT
BRANCH   7   2
ATOM      2  O   UNL     1      -6.924  -8.873  10.131  0.00  0.00    -0.469 OA
BRANCH   2  14
ATOM      6  N   UNL     1      -6.845  -9.330   7.861  0.00  0.00    -0.218 NA
ATOM     14  C   UNL     1      -7.233  -8.499   8.853  0.00  0.00    +0.215 A 
ATOM     15  C   UNL     1      -7.914  -7.309   8.647  0.00  0.00    +0.067 A 
ATOM     16  C   UNL     1      -7.155  -8.947   6.601  0.00  0.00    +0.042 A 
ATOM     18  C   UNL     1      -8.215  -6.949   7.339  0.00  0.00    +0.007 A 
ATOM     19  C   UNL     1      -7.832  -7.779   6.290  0.00  0.00    +0.023 A 
ATOM     20  C   UNL     1      -6.726  -9.860   5.501  0.00  0.00    +0.066 C 
ENDBRANCH   2  14
ENDBRANCH   7   2
BRANCH  12  13
ATOM     13  C   UNL     1      -5.114 -10.341  14.575  0.00  0.00    +0.324 C 
BRANCH  13   3
ATOM      3  O   UNL     1      -4.482  -9.941  15.765  0.00  0.00    -0.483 OA
BRANCH   3  17
ATOM     17  C   UNL     1      -4.942 -10.489  16.941  0.00  0.00    +0.121 A 
ATOM     21  C   UNL     1      -4.082 -11.242  17.743  0.00  0.00    +0.045 A 
ATOM     22  C   UNL     1      -6.266 -10.295  17.332  0.00  0.00    +0.045 A 
ATOM     23  C   UNL     1      -4.548 -11.797  18.935  0.00  0.00    +0.004 A 
ATOM     24  C   UNL     1      -6.732 -10.850  18.524  0.00  0.00    +0.004 A 
ATOM     25  C   UNL     1      -5.873 -11.603  19.325  0.00  0.00    +0.000 A 
ENDBRANCH   3  17
ENDBRANCH  13   3
ENDBRANCH  12  13
TORSDOF 5
ENDMDL
