MODEL 1
REMARK VINA RESULT:      -7.2      0.000      0.000
REMARK  Name = 45783476
REMARK  9 active torsions:
REMARK  status: ('A' for Active; 'I' for Inactive)
REMARK    1  A    between atoms: O_4  and  C_29
REMARK    2  A    between atoms: O_4  and  C_30
REMARK    3  A    between atoms: N_5  and  C_14
REMARK    4  A    between atoms: N_9  and  C_27
REMARK    5  A    between atoms: N_9  and  C_28
REMARK    6  A    between atoms: C_10  and  C_15
REMARK    7  A    between atoms: C_14  and  C_16
REMARK    8  A    between atoms: C_19  and  C_22
REMARK    9  A    between atoms: C_28  and  C_29
REMARK                            x       y       z     vdW  Elec       q    Type
REMARK                         _______ _______ _______ _____ _____    ______ ____
ROOT
ATOM      3  O   UNL     1      16.293   5.915  18.293  0.00  0.00    -0.336 OA
ATOM      6  N   UNL     1      16.857   6.975  20.184  0.00  0.00    -0.190 NA
ATOM      7  N   UNL     1      17.546   5.409  18.664  0.00  0.00    -0.056 NA
ATOM     15  C   UNL     1      15.961   6.830  19.241  0.00  0.00    +0.245 A 
ATOM     19  C   UNL     1      17.810   6.082  19.788  0.00  0.00    +0.204 A 
ENDROOT
BRANCH  19  22
ATOM      8  N   UNL     1      21.124   4.730  20.795  0.00  0.00    -0.240 NA
ATOM     22  C   UNL     1      19.018   5.888  20.537  0.00  0.00    +0.041 A 
ATOM     24  C   UNL     1      19.273   6.624  21.688  0.00  0.00    +0.016 A 
ATOM     25  C   UNL     1      19.967   4.962  20.135  0.00  0.00    +0.124 A 
ATOM     26  C   UNL     1      20.453   6.414  22.395  0.00  0.00    +0.044 A 
ATOM     27  C   UNL     1      21.338   5.464  21.911  0.00  0.00    +0.119 A 
BRANCH  27   9
ATOM      9  N   UNL     1      22.536   5.262  22.639  0.00  0.00    -0.327 N 
ATOM     31  H   UNL     1      22.872   6.047  23.183  0.00  0.00    +0.148 HD
BRANCH   9  28
ATOM     28  C   UNL     1      23.251   4.027  22.617  0.00  0.00    +0.131 C 
BRANCH  28  29
ATOM     29  C   UNL     1      22.825   3.159  23.788  0.00  0.00    +0.178 C 
BRANCH  29   4
ATOM      4  O   UNL     1      22.392   3.989  24.860  0.00  0.00    -0.381 OA
ATOM     30  C   UNL     1      22.857   3.508  26.113  0.00  0.00    +0.194 C 
ENDBRANCH  29   4
ENDBRANCH  28  29
ENDBRANCH   9  28
ENDBRANCH  27   9
ENDBRANCH  19  22
BRANCH  15  10
ATOM      5  N   UNL     1      14.661   8.933  19.524  0.00  0.00    -0.287 NA
ATOM     10  C   UNL     1      14.630   7.530  19.066  0.00  0.00    +0.146 C 
ATOM     11  C   UNL     1      14.190   7.611  17.592  0.00  0.00    +0.030 C 
ATOM     12  C   UNL     1      13.940   9.090  17.332  0.00  0.00    +0.017 C 
ATOM     13  C   UNL     1      13.682   9.656  18.714  0.00  0.00    +0.085 C 
BRANCH   5  14
ATOM     14  C   UNL     1      14.404   9.076  20.952  0.00  0.00    +0.120 C 
BRANCH  14  16
ATOM      1  F   UNL     1      11.334   5.353  21.680  0.00  0.00    -0.202 F 
ATOM      2  F   UNL     1       9.333   7.079  22.381  0.00  0.00    -0.202 F 
ATOM     16  C   UNL     1      13.049   8.543  21.334  0.00  0.00    -0.030 A 
ATOM     17  C   UNL     1      12.815   7.168  21.330  0.00  0.00    +0.046 A 
ATOM     18  C   UNL     1      12.028   9.424  21.692  0.00  0.00    +0.008 A 
ATOM     20  C   UNL     1      11.559   6.673  21.684  0.00  0.00    +0.159 A 
ATOM     21  C   UNL     1      10.773   8.929  22.046  0.00  0.00    +0.041 A 
ATOM     23  C   UNL     1      10.538   7.554  22.042  0.00  0.00    +0.158 A 
ENDBRANCH  14  16
ENDBRANCH   5  14
ENDBRANCH  15  10
TORSDOF 8
ENDMDL
MODEL 2
REMARK VINA RESULT:      -7.2      6.581      7.920
REMARK  Name = 45783476
REMARK  9 active torsions:
REMARK  status: ('A' for Active; 'I' for Inactive)
REMARK    1  A    between atoms: O_4  and  C_29
REMARK    2  A    between atoms: O_4  and  C_30
REMARK    3  A    between atoms: N_5  and  C_14
REMARK    4  A    between atoms: N_9  and  C_27
REMARK    5  A    between atoms: N_9  and  C_28
REMARK    6  A    between atoms: C_10  and  C_15
REMARK    7  A    between atoms: C_14  and  C_16
REMARK    8  A    between atoms: C_19  and  C_22
REMARK    9  A    between atoms: C_28  and  C_29
REMARK                            x       y       z     vdW  Elec       q    Type
REMARK                         _______ _______ _______ _____ _____    ______ ____
ROOT
ATOM      3  O   UNL     1      12.243   7.095  18.737  0.00  0.00    -0.336 OA
ATOM      6  N   UNL     1      13.525   8.901  19.072  0.00  0.00    -0.190 NA
ATOM      7  N   UNL     1      12.712   7.479  17.474  0.00  0.00    -0.056 NA
ATOM     15  C   UNL     1      12.768   7.984  19.620  0.00  0.00    +0.245 A 
ATOM     19  C   UNL     1      13.461   8.550  17.754  0.00  0.00    +0.204 A 
ENDROOT
BRANCH  19  22
ATOM      8  N   UNL     1      15.063   9.380  14.503  0.00  0.00    -0.240 NA
ATOM     22  C   UNL     1      14.156   9.292  16.742  0.00  0.00    +0.041 A 
ATOM     24  C   UNL     1      14.592  10.590  16.978  0.00  0.00    +0.016 A 
ATOM     25  C   UNL     1      14.414   8.737  15.500  0.00  0.00    +0.124 A 
ATOM     26  C   UNL     1      15.264  11.285  15.979  0.00  0.00    +0.044 A 
ATOM     27  C   UNL     1      15.473  10.641  14.770  0.00  0.00    +0.119 A 
BRANCH  27   9
ATOM      9  N   UNL     1      16.157  11.362  13.760  0.00  0.00    -0.327 N 
ATOM     31  H   UNL     1      16.124  10.972  12.826  0.00  0.00    +0.148 HD
BRANCH   9  28
ATOM     28  C   UNL     1      16.865  12.573  14.023  0.00  0.00    +0.131 C 
BRANCH  28  29
ATOM     29  C   UNL     1      18.354  12.361  13.809  0.00  0.00    +0.178 C 
BRANCH  29   4
ATOM      4  O   UNL     1      18.921  11.774  14.974  0.00  0.00    -0.381 OA
ATOM     30  C   UNL     1      18.895  12.672  16.075  0.00  0.00    +0.194 C 
ENDBRANCH  29   4
ENDBRANCH  28  29
ENDBRANCH   9  28
ENDBRANCH  27   9
ENDBRANCH  19  22
BRANCH  15  10
ATOM      5  N   UNL     1      11.672   8.931  21.643  0.00  0.00    -0.287 NA
ATOM     10  C   UNL     1      12.406   7.783  21.076  0.00  0.00    +0.146 C 
ATOM     11  C   UNL     1      11.474   6.577  21.295  0.00  0.00    +0.030 C 
ATOM     12  C   UNL     1      10.271   7.134  22.044  0.00  0.00    +0.017 C 
ATOM     13  C   UNL     1      10.809   8.394  22.694  0.00  0.00    +0.085 C 
BRANCH   5  14
ATOM     14  C   UNL     1      12.549   9.985  22.139  0.00  0.00    +0.120 C 
BRANCH  14  16
ATOM      1  F   UNL     1      10.490  12.492  25.785  0.00  0.00    -0.202 F 
ATOM      2  F   UNL     1       9.635  14.416  24.043  0.00  0.00    -0.202 F 
ATOM     16  C   UNL     1      11.770  11.169  22.647  0.00  0.00    -0.030 A 
ATOM     17  C   UNL     1      11.485  11.284  24.007  0.00  0.00    +0.046 A 
ATOM     18  C   UNL     1      11.334  12.151  21.758  0.00  0.00    +0.008 A 
ATOM     20  C   UNL     1      10.764  12.381  24.480  0.00  0.00    +0.159 A 
ATOM     21  C   UNL     1      10.613  13.249  22.229  0.00  0.00    +0.041 A 
ATOM     23  C   UNL     1      10.328  13.364  23.589  0.00  0.00    +0.158 A 
ENDBRANCH  14  16
ENDBRANCH   5  14
ENDBRANCH  15  10
TORSDOF 8
ENDMDL
MODEL 3
REMARK VINA RESULT:      -7.1      2.856      4.350
REMARK  Name = 45783476
REMARK  9 active torsions:
REMARK  status: ('A' for Active; 'I' for Inactive)
REMARK    1  A    between atoms: O_4  and  C_29
REMARK    2  A    between atoms: O_4  and  C_30
REMARK    3  A    between atoms: N_5  and  C_14
REMARK    4  A    between atoms: N_9  and  C_27
REMARK    5  A    between atoms: N_9  and  C_28
REMARK    6  A    between atoms: C_10  and  C_15
REMARK    7  A    between atoms: C_14  and  C_16
REMARK    8  A    between atoms: C_19  and  C_22
REMARK    9  A    between atoms: C_28  and  C_29
REMARK                            x       y       z     vdW  Elec       q    Type
REMARK                         _______ _______ _______ _____ _____    ______ ____
ROOT
ATOM      3  O   UNL     1      14.603   6.724  19.595  0.00  0.00    -0.336 OA
ATOM      6  N   UNL     1      15.861   7.545  21.257  0.00  0.00    -0.190 NA
ATOM      7  N   UNL     1      15.880   6.172  19.426  0.00  0.00    -0.056 NA
ATOM     15  C   UNL     1      14.679   7.519  20.695  0.00  0.00    +0.245 A 
ATOM     19  C   UNL     1      16.564   6.703  20.444  0.00  0.00    +0.204 A 
ENDROOT
BRANCH  19  22
ATOM      8  N   UNL     1      19.967   6.852  21.934  0.00  0.00    -0.240 NA
ATOM     22  C   UNL     1      17.950   6.415  20.675  0.00  0.00    +0.041 A 
ATOM     24  C   UNL     1      18.621   5.465  19.915  0.00  0.00    +0.016 A 
ATOM     25  C   UNL     1      18.661   7.075  21.664  0.00  0.00    +0.124 A 
ATOM     26  C   UNL     1      19.965   5.207  20.162  0.00  0.00    +0.044 A 
ATOM     27  C   UNL     1      20.587   5.921  21.173  0.00  0.00    +0.119 A 
BRANCH  27   9
ATOM      9  N   UNL     1      21.955   5.647  21.415  0.00  0.00    -0.327 N 
ATOM     31  H   UNL     1      22.615   6.366  21.143  0.00  0.00    +0.148 HD
BRANCH   9  28
ATOM     28  C   UNL     1      22.404   4.427  22.005  0.00  0.00    +0.131 C 
BRANCH  28  29
ATOM     29  C   UNL     1      23.410   3.748  21.093  0.00  0.00    +0.178 C 
BRANCH  29   4
ATOM      4  O   UNL     1      23.040   2.387  20.909  0.00  0.00    -0.381 OA
ATOM     30  C   UNL     1      24.144   1.515  21.113  0.00  0.00    +0.194 C 
ENDBRANCH  29   4
ENDBRANCH  28  29
ENDBRANCH   9  28
ENDBRANCH  27   9
ENDBRANCH  19  22
BRANCH  15  10
ATOM      5  N   UNL     1      12.748   8.901  19.953  0.00  0.00    -0.287 NA
ATOM     10  C   UNL     1      13.409   8.240  21.095  0.00  0.00    +0.146 C 
ATOM     11  C   UNL     1      12.342   7.289  21.668  0.00  0.00    +0.030 C 
ATOM     12  C   UNL     1      11.099   7.531  20.823  0.00  0.00    +0.017 C 
ATOM     13  C   UNL     1      11.317   8.921  20.257  0.00  0.00    +0.085 C 
BRANCH   5  14
ATOM     14  C   UNL     1      13.268  10.236  19.682  0.00  0.00    +0.120 C 
BRANCH  14  16
ATOM      1  F   UNL     1      14.238   8.312  15.302  0.00  0.00    -0.202 F 
ATOM      2  F   UNL     1      15.076  10.740  14.369  0.00  0.00    -0.202 F 
ATOM     16  C   UNL     1      13.752  10.371  18.262  0.00  0.00    -0.030 A 
ATOM     17  C   UNL     1      13.772   9.257  17.424  0.00  0.00    +0.046 A 
ATOM     18  C   UNL     1      14.179  11.610  17.786  0.00  0.00    +0.008 A 
ATOM     20  C   UNL     1      14.219   9.381  16.108  0.00  0.00    +0.159 A 
ATOM     21  C   UNL     1      14.626  11.736  16.470  0.00  0.00    +0.041 A 
ATOM     23  C   UNL     1      14.646  10.621  15.632  0.00  0.00    +0.158 A 
ENDBRANCH  14  16
ENDBRANCH   5  14
ENDBRANCH  15  10
TORSDOF 8
ENDMDL
MODEL 4
REMARK VINA RESULT:      -7.1     26.196     30.022
REMARK  Name = 45783476
REMARK  9 active torsions:
REMARK  status: ('A' for Active; 'I' for Inactive)
REMARK    1  A    between atoms: O_4  and  C_29
REMARK    2  A    between atoms: O_4  and  C_30
REMARK    3  A    between atoms: N_5  and  C_14
REMARK    4  A    between atoms: N_9  and  C_27
REMARK    5  A    between atoms: N_9  and  C_28
REMARK    6  A    between atoms: C_10  and  C_15
REMARK    7  A    between atoms: C_14  and  C_16
REMARK    8  A    between atoms: C_19  and  C_22
REMARK    9  A    between atoms: C_28  and  C_29
REMARK                            x       y       z     vdW  Elec       q    Type
REMARK                         _______ _______ _______ _____ _____    ______ ____
ROOT
ATOM      3  O   UNL     1      -5.056 -11.818  16.829  0.00  0.00    -0.336 OA
ATOM      6  N   UNL     1      -5.469 -10.082  15.475  0.00  0.00    -0.190 NA
ATOM      7  N   UNL     1      -6.357 -11.391  17.129  0.00  0.00    -0.056 NA
ATOM     15  C   UNL     1      -4.607 -10.994  15.846  0.00  0.00    +0.245 A 
ATOM     19  C   UNL     1      -6.527 -10.365  16.289  0.00  0.00    +0.204 A 
ENDROOT
BRANCH  19  22
ATOM      8  N   UNL     1      -9.361  -8.223  17.387  0.00  0.00    -0.240 NA
ATOM     22  C   UNL     1      -7.741  -9.602  16.239  0.00  0.00    +0.041 A 
ATOM     24  C   UNL     1      -8.467  -9.486  15.059  0.00  0.00    +0.016 A 
ATOM     25  C   UNL     1      -8.226  -8.957  17.365  0.00  0.00    +0.124 A 
ATOM     26  C   UNL     1      -9.640  -8.740  15.041  0.00  0.00    +0.044 A 
ATOM     27  C   UNL     1     -10.041  -8.134  16.221  0.00  0.00    +0.119 A 
BRANCH  27   9
ATOM      9  N   UNL     1     -11.237  -7.375  16.187  0.00  0.00    -0.327 N 
ATOM     31  H   UNL     1     -12.081  -7.849  16.486  0.00  0.00    +0.148 HD
BRANCH   9  28
ATOM     28  C   UNL     1     -11.274  -6.015  15.754  0.00  0.00    +0.131 C 
BRANCH  28  29
ATOM     29  C   UNL     1     -12.467  -5.793  14.842  0.00  0.00    +0.178 C 
BRANCH  29   4
ATOM      4  O   UNL     1     -12.011  -5.436  13.543  0.00  0.00    -0.381 OA
ATOM     30  C   UNL     1     -12.604  -4.225  13.096  0.00  0.00    +0.194 C 
ENDBRANCH  29   4
ENDBRANCH  28  29
ENDBRANCH   9  28
ENDBRANCH  27   9
ENDBRANCH  19  22
BRANCH  15  10
ATOM      5  N   UNL     1      -2.901 -10.506  14.102  0.00  0.00    -0.287 NA
ATOM     10  C   UNL     1      -3.204 -11.253  15.339  0.00  0.00    +0.146 C 
ATOM     11  C   UNL     1      -2.120 -10.810  16.339  0.00  0.00    +0.030 C 
ATOM     12  C   UNL     1      -1.220  -9.864  15.557  0.00  0.00    +0.017 C 
ATOM     13  C   UNL     1      -1.460 -10.256  14.112  0.00  0.00    +0.085 C 
BRANCH   5  14
ATOM     14  C   UNL     1      -3.328 -11.199  12.893  0.00  0.00    +0.120 C 
BRANCH  14  16
ATOM      1  F   UNL     1      -7.212  -8.678  11.351  0.00  0.00    -0.202 F 
ATOM      2  F   UNL     1      -5.793  -7.697   9.231  0.00  0.00    -0.202 F 
ATOM     16  C   UNL     1      -3.987 -10.264  11.914  0.00  0.00    -0.030 A 
ATOM     17  C   UNL     1      -5.321  -9.897  12.090  0.00  0.00    +0.046 A 
ATOM     18  C   UNL     1      -3.262  -9.763  10.833  0.00  0.00    +0.008 A 
ATOM     20  C   UNL     1      -5.932  -9.030  11.183  0.00  0.00    +0.159 A 
ATOM     21  C   UNL     1      -3.872  -8.895   9.926  0.00  0.00    +0.041 A 
ATOM     23  C   UNL     1      -5.206  -8.529  10.101  0.00  0.00    +0.158 A 
ENDBRANCH  14  16
ENDBRANCH   5  14
ENDBRANCH  15  10
TORSDOF 8
ENDMDL
MODEL 5
REMARK VINA RESULT:      -7.1     26.959     30.569
REMARK  Name = 45783476
REMARK  9 active torsions:
REMARK  status: ('A' for Active; 'I' for Inactive)
REMARK    1  A    between atoms: O_4  and  C_29
REMARK    2  A    between atoms: O_4  and  C_30
REMARK    3  A    between atoms: N_5  and  C_14
REMARK    4  A    between atoms: N_9  and  C_27
REMARK    5  A    between atoms: N_9  and  C_28
REMARK    6  A    between atoms: C_10  and  C_15
REMARK    7  A    between atoms: C_14  and  C_16
REMARK    8  A    between atoms: C_19  and  C_22
REMARK    9  A    between atoms: C_28  and  C_29
REMARK                            x       y       z     vdW  Elec       q    Type
REMARK                         _______ _______ _______ _____ _____    ______ ____
ROOT
ATOM      3  O   UNL     1      -5.507  -9.528  15.896  0.00  0.00    -0.336 OA
ATOM      6  N   UNL     1      -5.982 -11.259  17.236  0.00  0.00    -0.190 NA
ATOM      7  N   UNL     1      -6.720  -9.213  16.523  0.00  0.00    -0.056 NA
ATOM     15  C   UNL     1      -5.143 -10.748  16.371  0.00  0.00    +0.245 A 
ATOM     19  C   UNL     1      -6.933 -10.282  17.298  0.00  0.00    +0.204 A 
ENDROOT
BRANCH  19  22
ATOM      8  N   UNL     1      -9.095 -11.321  20.139  0.00  0.00    -0.240 NA
ATOM     22  C   UNL     1      -8.086 -10.404  18.142  0.00  0.00    +0.041 A 
ATOM     24  C   UNL     1      -9.279  -9.765  17.824  0.00  0.00    +0.016 A 
ATOM     25  C   UNL     1      -8.046 -11.164  19.300  0.00  0.00    +0.124 A 
ATOM     26  C   UNL     1     -10.381  -9.903  18.662  0.00  0.00    +0.044 A 
ATOM     27  C   UNL     1     -10.238 -10.685  19.797  0.00  0.00    +0.119 A 
BRANCH  27   9
ATOM      9  N   UNL     1     -11.368 -10.815  20.642  0.00  0.00    -0.327 N 
ATOM     31  H   UNL     1     -11.334 -11.557  21.330  0.00  0.00    +0.148 HD
BRANCH   9  28
ATOM     28  C   UNL     1     -12.506  -9.959  20.543  0.00  0.00    +0.131 C 
BRANCH  28  29
ATOM     29  C   UNL     1     -13.778 -10.760  20.760  0.00  0.00    +0.178 C 
BRANCH  29   4
ATOM      4  O   UNL     1     -13.662 -11.518  21.958  0.00  0.00    -0.381 OA
ATOM     30  C   UNL     1     -14.736 -12.438  22.098  0.00  0.00    +0.194 C 
ENDBRANCH  29   4
ENDBRANCH  28  29
ENDBRANCH   9  28
ENDBRANCH  27   9
ENDBRANCH  19  22
BRANCH  15  10
ATOM      5  N   UNL     1      -3.442 -10.711  14.556  0.00  0.00    -0.287 NA
ATOM     10  C   UNL     1      -3.846 -11.319  15.839  0.00  0.00    +0.146 C 
ATOM     11  C   UNL     1      -2.655 -11.068  16.783  0.00  0.00    +0.030 C 
ATOM     12  C   UNL     1      -1.609 -10.369  15.925  0.00  0.00    +0.017 C 
ATOM     13  C   UNL     1      -1.981 -10.770  14.512  0.00  0.00    +0.085 C 
BRANCH   5  14
ATOM     14  C   UNL     1      -4.052 -11.355  13.399  0.00  0.00    +0.120 C 
BRANCH  14  16
ATOM      1  F   UNL     1      -3.161  -8.834   9.316  0.00  0.00    -0.202 F 
ATOM      2  F   UNL     1      -5.597  -7.606   9.486  0.00  0.00    -0.202 F 
ATOM     16  C   UNL     1      -4.465 -10.353  12.353  0.00  0.00    -0.030 A 
ATOM     17  C   UNL     1      -3.604 -10.052  11.299  0.00  0.00    +0.046 A 
ATOM     18  C   UNL     1      -5.708  -9.728  12.440  0.00  0.00    +0.008 A 
ATOM     20  C   UNL     1      -3.987  -9.124  10.329  0.00  0.00    +0.159 A 
ATOM     21  C   UNL     1      -6.092  -8.800  11.471  0.00  0.00    +0.041 A 
ATOM     23  C   UNL     1      -5.231  -8.498  10.416  0.00  0.00    +0.158 A 
ENDBRANCH  14  16
ENDBRANCH   5  14
ENDBRANCH  15  10
TORSDOF 8
ENDMDL
MODEL 6
REMARK VINA RESULT:      -7.1      1.983      2.378
REMARK  Name = 45783476
REMARK  9 active torsions:
REMARK  status: ('A' for Active; 'I' for Inactive)
REMARK    1  A    between atoms: O_4  and  C_29
REMARK    2  A    between atoms: O_4  and  C_30
REMARK    3  A    between atoms: N_5  and  C_14
REMARK    4  A    between atoms: N_9  and  C_27
REMARK    5  A    between atoms: N_9  and  C_28
REMARK    6  A    between atoms: C_10  and  C_15
REMARK    7  A    between atoms: C_14  and  C_16
REMARK    8  A    between atoms: C_19  and  C_22
REMARK    9  A    between atoms: C_28  and  C_29
REMARK                            x       y       z     vdW  Elec       q    Type
REMARK                         _______ _______ _______ _____ _____    ______ ____
ROOT
ATOM      3  O   UNL     1      15.300   8.428  19.974  0.00  0.00    -0.336 OA
ATOM      6  N   UNL     1      16.199   6.542  19.166  0.00  0.00    -0.190 NA
ATOM      7  N   UNL     1      16.514   8.253  20.652  0.00  0.00    -0.056 NA
ATOM     15  C   UNL     1      15.193   7.377  19.119  0.00  0.00    +0.245 A 
ATOM     19  C   UNL     1      16.985   7.121  20.121  0.00  0.00    +0.204 A 
ENDROOT
BRANCH  19  22
ATOM      8  N   UNL     1      19.940   4.865  20.169  0.00  0.00    -0.240 NA
ATOM     22  C   UNL     1      18.234   6.542  20.522  0.00  0.00    +0.041 A 
ATOM     24  C   UNL     1      18.946   7.050  21.602  0.00  0.00    +0.016 A 
ATOM     25  C   UNL     1      18.769   5.459  19.844  0.00  0.00    +0.124 A 
ATOM     26  C   UNL     1      20.154   6.467  21.968  0.00  0.00    +0.044 A 
ATOM     27  C   UNL     1      20.604   5.387  21.226  0.00  0.00    +0.119 A 
BRANCH  27   9
ATOM      9  N   UNL     1      21.837   4.804  21.609  0.00  0.00    -0.327 N 
ATOM     31  H   UNL     1      22.390   4.388  20.869  0.00  0.00    +0.148 HD
BRANCH   9  28
ATOM     28  C   UNL     1      22.295   4.789  22.961  0.00  0.00    +0.131 C 
BRANCH  28  29
ATOM     29  C   UNL     1      23.003   3.478  23.255  0.00  0.00    +0.178 C 
BRANCH  29   4
ATOM      4  O   UNL     1      22.130   2.621  23.981  0.00  0.00    -0.381 OA
ATOM     30  C   UNL     1      22.814   1.948  25.030  0.00  0.00    +0.194 C 
ENDBRANCH  29   4
ENDBRANCH  28  29
ENDBRANCH   9  28
ENDBRANCH  27   9
ENDBRANCH  19  22
BRANCH  15  10
ATOM      5  N   UNL     1      12.871   8.202  18.772  0.00  0.00    -0.287 NA
ATOM     10  C   UNL     1      13.949   7.334  18.257  0.00  0.00    +0.146 C 
ATOM     11  C   UNL     1      14.201   7.834  16.823  0.00  0.00    +0.030 C 
ATOM     12  C   UNL     1      13.180   8.941  16.601  0.00  0.00    +0.017 C 
ATOM     13  C   UNL     1      12.092   8.628  17.610  0.00  0.00    +0.085 C 
BRANCH   5  14
ATOM     14  C   UNL     1      12.041   7.551  19.779  0.00  0.00    +0.120 C 
BRANCH  14  16
ATOM      1  F   UNL     1      11.900  12.040  21.688  0.00  0.00    -0.202 F 
ATOM      2  F   UNL     1      10.469  11.134  23.834  0.00  0.00    -0.202 F 
ATOM     16  C   UNL     1      11.621   8.508  20.863  0.00  0.00    -0.030 A 
ATOM     17  C   UNL     1      11.962   9.857  20.772  0.00  0.00    +0.046 A 
ATOM     18  C   UNL     1      10.891   8.045  21.957  0.00  0.00    +0.008 A 
ATOM     20  C   UNL     1      11.573  10.745  21.775  0.00  0.00    +0.159 A 
ATOM     21  C   UNL     1      10.501   8.932  22.961  0.00  0.00    +0.041 A 
ATOM     23  C   UNL     1      10.842  10.282  22.870  0.00  0.00    +0.158 A 
ENDBRANCH  14  16
ENDBRANCH   5  14
ENDBRANCH  15  10
TORSDOF 8
ENDMDL
MODEL 7
REMARK VINA RESULT:      -7.0      2.693      4.490
REMARK  Name = 45783476
REMARK  9 active torsions:
REMARK  status: ('A' for Active; 'I' for Inactive)
REMARK    1  A    between atoms: O_4  and  C_29
REMARK    2  A    between atoms: O_4  and  C_30
REMARK    3  A    between atoms: N_5  and  C_14
REMARK    4  A    between atoms: N_9  and  C_27
REMARK    5  A    between atoms: N_9  and  C_28
REMARK    6  A    between atoms: C_10  and  C_15
REMARK    7  A    between atoms: C_14  and  C_16
REMARK    8  A    between atoms: C_19  and  C_22
REMARK    9  A    between atoms: C_28  and  C_29
REMARK                            x       y       z     vdW  Elec       q    Type
REMARK                         _______ _______ _______ _____ _____    ______ ____
ROOT
ATOM      3  O   UNL     1      13.616   8.619  21.776  0.00  0.00    -0.336 OA
ATOM      6  N   UNL     1      15.612   9.513  21.293  0.00  0.00    -0.190 NA
ATOM      7  N   UNL     1      14.479   7.541  21.538  0.00  0.00    -0.056 NA
ATOM     15  C   UNL     1      14.363   9.742  21.610  0.00  0.00    +0.245 A 
ATOM     19  C   UNL     1      15.636   8.149  21.260  0.00  0.00    +0.204 A 
ENDROOT
BRANCH  19  22
ATOM      8  N   UNL     1      17.950   5.784  19.563  0.00  0.00    -0.240 NA
ATOM     22  C   UNL     1      16.833   7.424  20.945  0.00  0.00    +0.041 A 
ATOM     24  C   UNL     1      18.004   7.625  21.666  0.00  0.00    +0.016 A 
ATOM     25  C   UNL     1      16.857   6.501  19.912  0.00  0.00    +0.124 A 
ATOM     26  C   UNL     1      19.149   6.907  21.337  0.00  0.00    +0.044 A 
ATOM     27  C   UNL     1      19.070   6.007  20.287  0.00  0.00    +0.119 A 
BRANCH  27   9
ATOM      9  N   UNL     1      20.245   5.284  19.962  0.00  0.00    -0.327 N 
ATOM     31  H   UNL     1      20.139   4.524  19.300  0.00  0.00    +0.148 HD
BRANCH   9  28
ATOM     28  C   UNL     1      21.518   5.589  20.530  0.00  0.00    +0.131 C 
BRANCH  28  29
ATOM     29  C   UNL     1      21.989   4.437  21.399  0.00  0.00    +0.178 C 
BRANCH  29   4
ATOM      4  O   UNL     1      21.512   4.619  22.727  0.00  0.00    -0.381 OA
ATOM     30  C   UNL     1      22.230   5.641  23.403  0.00  0.00    +0.194 C 
ENDBRANCH  29   4
ENDBRANCH  28  29
ENDBRANCH   9  28
ENDBRANCH  27   9
ENDBRANCH  19  22
BRANCH  15  10
ATOM      5  N   UNL     1      12.677  11.354  20.746  0.00  0.00    -0.287 NA
ATOM     10  C   UNL     1      13.651  11.062  21.816  0.00  0.00    +0.146 C 
ATOM     11  C   UNL     1      12.826  11.096  23.116  0.00  0.00    +0.030 C 
ATOM     12  C   UNL     1      11.416  11.474  22.683  0.00  0.00    +0.017 C 
ATOM     13  C   UNL     1      11.627  12.172  21.353  0.00  0.00    +0.085 C 
BRANCH   5  14
ATOM     14  C   UNL     1      13.275  12.003  19.586  0.00  0.00    +0.120 C 
BRANCH  14  16
ATOM      1  F   UNL     1      12.367   7.755  17.361  0.00  0.00    -0.202 F 
ATOM      2  F   UNL     1      14.122   8.375  15.359  0.00  0.00    -0.202 F 
ATOM     16  C   UNL     1      13.502  11.034  18.456  0.00  0.00    -0.030 A 
ATOM     17  C   UNL     1      12.816   9.820  18.432  0.00  0.00    +0.046 A 
ATOM     18  C   UNL     1      14.397  11.351  17.435  0.00  0.00    +0.008 A 
ATOM     20  C   UNL     1      13.025   8.921  17.385  0.00  0.00    +0.159 A 
ATOM     21  C   UNL     1      14.606  10.453  16.387  0.00  0.00    +0.041 A 
ATOM     23  C   UNL     1      13.921   9.238  16.363  0.00  0.00    +0.158 A 
ENDBRANCH  14  16
ENDBRANCH   5  14
ENDBRANCH  15  10
TORSDOF 8
ENDMDL
MODEL 8
REMARK VINA RESULT:      -6.9      4.332     10.225
REMARK  Name = 45783476
REMARK  9 active torsions:
REMARK  status: ('A' for Active; 'I' for Inactive)
REMARK    1  A    between atoms: O_4  and  C_29
REMARK    2  A    between atoms: O_4  and  C_30
REMARK    3  A    between atoms: N_5  and  C_14
REMARK    4  A    between atoms: N_9  and  C_27
REMARK    5  A    between atoms: N_9  and  C_28
REMARK    6  A    between atoms: C_10  and  C_15
REMARK    7  A    between atoms: C_14  and  C_16
REMARK    8  A    between atoms: C_19  and  C_22
REMARK    9  A    between atoms: C_28  and  C_29
REMARK                            x       y       z     vdW  Elec       q    Type
REMARK                         _______ _______ _______ _____ _____    ______ ____
ROOT
ATOM      3  O   UNL     1      20.828   5.879  20.797  0.00  0.00    -0.336 OA
ATOM      6  N   UNL     1      19.268   6.944  22.000  0.00  0.00    -0.190 NA
ATOM      7  N   UNL     1      19.620   5.711  20.105  0.00  0.00    -0.056 NA
ATOM     15  C   UNL     1      20.530   6.616  21.899  0.00  0.00    +0.245 A 
ATOM     19  C   UNL     1      18.749   6.368  20.877  0.00  0.00    +0.204 A 
ENDROOT
BRANCH  19  22
ATOM      8  N   UNL     1      15.603   6.320  18.895  0.00  0.00    -0.240 NA
ATOM     22  C   UNL     1      17.354   6.465  20.556  0.00  0.00    +0.041 A 
ATOM     24  C   UNL     1      16.415   6.783  21.530  0.00  0.00    +0.016 A 
ATOM     25  C   UNL     1      16.902   6.245  19.265  0.00  0.00    +0.124 A 
ATOM     26  C   UNL     1      15.070   6.871  21.189  0.00  0.00    +0.044 A 
ATOM     27  C   UNL     1      14.718   6.632  19.870  0.00  0.00    +0.119 A 
BRANCH  27   9
ATOM      9  N   UNL     1      13.344   6.723  19.537  0.00  0.00    -0.327 N 
ATOM     31  H   UNL     1      12.698   6.242  20.151  0.00  0.00    +0.148 HD
BRANCH   9  28
ATOM     28  C   UNL     1      12.874   7.445  18.399  0.00  0.00    +0.131 C 
BRANCH  28  29
ATOM     29  C   UNL     1      12.158   8.708  18.844  0.00  0.00    +0.178 C 
BRANCH  29   4
ATOM      4  O   UNL     1      10.846   8.379  19.285  0.00  0.00    -0.381 OA
ATOM     30  C   UNL     1      10.775   8.310  20.703  0.00  0.00    +0.194 C 
ENDBRANCH  29   4
ENDBRANCH  28  29
ENDBRANCH   9  28
ENDBRANCH  27   9
ENDBRANCH  19  22
BRANCH  15  10
ATOM      5  N   UNL     1      22.782   5.957  22.728  0.00  0.00    -0.287 NA
ATOM     10  C   UNL     1      21.684   6.939  22.825  0.00  0.00    +0.146 C 
ATOM     11  C   UNL     1      22.342   8.294  22.504  0.00  0.00    +0.030 C 
ATOM     12  C   UNL     1      23.818   7.982  22.302  0.00  0.00    +0.017 C 
ATOM     13  C   UNL     1      24.013   6.679  23.052  0.00  0.00    +0.085 C 
BRANCH   5  14
ATOM     14  C   UNL     1      22.589   4.793  23.583  0.00  0.00    +0.120 C 
BRANCH  14  16
ATOM      1  F   UNL     1      24.314   2.317  19.746  0.00  0.00    -0.202 F 
ATOM      2  F   UNL     1      24.812   0.137  21.317  0.00  0.00    -0.202 F 
ATOM     16  C   UNL     1      23.183   3.548  22.978  0.00  0.00    -0.030 A 
ATOM     17  C   UNL     1      23.479   3.509  21.616  0.00  0.00    +0.046 A 
ATOM     18  C   UNL     1      23.437   2.436  23.780  0.00  0.00    +0.008 A 
ATOM     20  C   UNL     1      24.030   2.356  21.054  0.00  0.00    +0.159 A 
ATOM     21  C   UNL     1      23.989   1.283  23.220  0.00  0.00    +0.041 A 
ATOM     23  C   UNL     1      24.284   1.243  21.857  0.00  0.00    +0.158 A 
ENDBRANCH  14  16
ENDBRANCH   5  14
ENDBRANCH  15  10
TORSDOF 8
ENDMDL
MODEL 9
REMARK VINA RESULT:      -6.8     26.576     30.042
REMARK  Name = 45783476
REMARK  9 active torsions:
REMARK  status: ('A' for Active; 'I' for Inactive)
REMARK    1  A    between atoms: O_4  and  C_29
REMARK    2  A    between atoms: O_4  and  C_30
REMARK    3  A    between atoms: N_5  and  C_14
REMARK    4  A    between atoms: N_9  and  C_27
REMARK    5  A    between atoms: N_9  and  C_28
REMARK    6  A    between atoms: C_10  and  C_15
REMARK    7  A    between atoms: C_14  and  C_16
REMARK    8  A    between atoms: C_19  and  C_22
REMARK    9  A    between atoms: C_28  and  C_29
REMARK                            x       y       z     vdW  Elec       q    Type
REMARK                         _______ _______ _______ _____ _____    ______ ____
ROOT
ATOM      3  O   UNL     1      -4.266 -13.248  15.589  0.00  0.00    -0.336 OA
ATOM      6  N   UNL     1      -4.515 -11.255  16.580  0.00  0.00    -0.190 NA
ATOM      7  N   UNL     1      -5.452 -13.328  16.332  0.00  0.00    -0.056 NA
ATOM     15  C   UNL     1      -3.780 -11.996  15.791  0.00  0.00    +0.245 A 
ATOM     19  C   UNL     1      -5.530 -12.115  16.887  0.00  0.00    +0.204 A 
ENDROOT
BRANCH  19  22
ATOM      8  N   UNL     1      -8.391 -10.182  18.267  0.00  0.00    -0.240 NA
ATOM     22  C   UNL     1      -6.607 -11.730  17.753  0.00  0.00    +0.041 A 
ATOM     24  C   UNL     1      -6.924 -12.481  18.879  0.00  0.00    +0.016 A 
ATOM     25  C   UNL     1      -7.364 -10.600  17.493  0.00  0.00    +0.124 A 
ATOM     26  C   UNL     1      -7.973 -12.084  19.701  0.00  0.00    +0.044 A 
ATOM     27  C   UNL     1      -8.669 -10.937  19.354  0.00  0.00    +0.119 A 
BRANCH  27   9
ATOM      9  N   UNL     1      -9.737 -10.545  20.199  0.00  0.00    -0.327 N 
ATOM     31  H   UNL     1      -9.511  -9.892  20.939  0.00  0.00    +0.148 HD
BRANCH   9  28
ATOM     28  C   UNL     1     -11.067 -11.037  20.037  0.00  0.00    +0.131 C 
BRANCH  28  29
ATOM     29  C   UNL     1     -11.956  -9.951  19.457  0.00  0.00    +0.178 C 
BRANCH  29   4
ATOM      4  O   UNL     1     -12.942  -9.584  20.415  0.00  0.00    -0.381 OA
ATOM     30  C   UNL     1     -13.684 -10.712  20.857  0.00  0.00    +0.194 C 
ENDBRANCH  29   4
ENDBRANCH  28  29
ENDBRANCH   9  28
ENDBRANCH  27   9
ENDBRANCH  19  22
BRANCH  15  10
ATOM      5  N   UNL     1      -2.673 -10.674  13.996  0.00  0.00    -0.287 NA
ATOM     10  C   UNL     1      -2.485 -11.653  15.085  0.00  0.00    +0.146 C 
ATOM     11  C   UNL     1      -1.451 -11.002  16.021  0.00  0.00    +0.030 C 
ATOM     12  C   UNL     1      -1.073  -9.691  15.347  0.00  0.00    +0.017 C 
ATOM     13  C   UNL     1      -1.421  -9.926  13.891  0.00  0.00    +0.085 C 
BRANCH   5  14
ATOM     14  C   UNL     1      -3.053 -11.288  12.730  0.00  0.00    +0.120 C 
BRANCH  14  16
ATOM      1  F   UNL     1      -6.986  -8.624  11.610  0.00  0.00    -0.202 F 
ATOM      2  F   UNL     1      -5.755  -7.661   9.368  0.00  0.00    -0.202 F 
ATOM     16  C   UNL     1      -3.775 -10.319  11.831  0.00  0.00    -0.030 A 
ATOM     17  C   UNL     1      -5.072  -9.913  12.143  0.00  0.00    +0.046 A 
ATOM     18  C   UNL     1      -3.145  -9.828  10.688  0.00  0.00    +0.008 A 
ATOM     20  C   UNL     1      -5.741  -9.014  11.311  0.00  0.00    +0.159 A 
ATOM     21  C   UNL     1      -3.814  -8.929   9.856  0.00  0.00    +0.041 A 
ATOM     23  C   UNL     1      -5.111  -8.523  10.167  0.00  0.00    +0.158 A 
ENDBRANCH  14  16
ENDBRANCH   5  14
ENDBRANCH  15  10
TORSDOF 8
ENDMDL
MODEL 10
REMARK VINA RESULT:      -6.7     17.856     21.494
REMARK  Name = 45783476
REMARK  9 active torsions:
REMARK  status: ('A' for Active; 'I' for Inactive)
REMARK    1  A    between atoms: O_4  and  C_29
REMARK    2  A    between atoms: O_4  and  C_30
REMARK    3  A    between atoms: N_5  and  C_14
REMARK    4  A    between atoms: N_9  and  C_27
REMARK    5  A    between atoms: N_9  and  C_28
REMARK    6  A    between atoms: C_10  and  C_15
REMARK    7  A    between atoms: C_14  and  C_16
REMARK    8  A    between atoms: C_19  and  C_22
REMARK    9  A    between atoms: C_28  and  C_29
REMARK                            x       y       z     vdW  Elec       q    Type
REMARK                         _______ _______ _______ _____ _____    ______ ____
ROOT
ATOM      3  O   UNL     1      10.934   7.055  -1.017  0.00  0.00    -0.336 OA
ATOM      6  N   UNL     1      10.340   5.112  -0.074  0.00  0.00    -0.190 NA
ATOM      7  N   UNL     1      10.827   7.306   0.357  0.00  0.00    -0.056 NA
ATOM     15  C   UNL     1      10.631   5.741  -1.184  0.00  0.00    +0.245 A 
ATOM     19  C   UNL     1      10.474   6.112   0.845  0.00  0.00    +0.204 A 
ENDROOT
BRANCH  19  22
ATOM      8  N   UNL     1       9.421   6.712   4.360  0.00  0.00    -0.240 NA
ATOM     22  C   UNL     1      10.246   5.887   2.243  0.00  0.00    +0.041 A 
ATOM     24  C   UNL     1      10.603   4.684   2.842  0.00  0.00    +0.016 A 
ATOM     25  C   UNL     1       9.663   6.860   3.038  0.00  0.00    +0.124 A 
ATOM     26  C   UNL     1      10.371   4.494   4.200  0.00  0.00    +0.044 A 
ATOM     27  C   UNL     1       9.782   5.530   4.908  0.00  0.00    +0.119 A 
BRANCH  27   9
ATOM      9  N   UNL     1       9.549   5.321   6.290  0.00  0.00    -0.327 N 
ATOM     31  H   UNL     1       9.377   4.366   6.580  0.00  0.00    +0.148 HD
BRANCH   9  28
ATOM     28  C   UNL     1       9.547   6.387   7.240  0.00  0.00    +0.131 C 
BRANCH  28  29
ATOM     29  C   UNL     1      10.310   5.974   8.486  0.00  0.00    +0.178 C 
BRANCH  29   4
ATOM      4  O   UNL     1      10.094   4.590   8.737  0.00  0.00    -0.381 OA
ATOM     30  C   UNL     1       9.230   4.390   9.847  0.00  0.00    +0.194 C 
ENDBRANCH  29   4
ENDBRANCH  28  29
ENDBRANCH   9  28
ENDBRANCH  27   9
ENDBRANCH  19  22
BRANCH  15  10
ATOM      5  N   UNL     1      11.292   3.875  -2.692  0.00  0.00    -0.287 NA
ATOM     10  C   UNL     1      10.676   5.214  -2.603  0.00  0.00    +0.146 C 
ATOM     11  C   UNL     1       9.275   5.041  -3.217  0.00  0.00    +0.030 C 
ATOM     12  C   UNL     1       9.218   3.590  -3.677  0.00  0.00    +0.017 C 
ATOM     13  C   UNL     1      10.677   3.211  -3.841  0.00  0.00    +0.085 C 
BRANCH   5  14
ATOM     14  C   UNL     1      12.745   3.917  -2.797  0.00  0.00    +0.120 C 
BRANCH  14  16
ATOM      1  F   UNL     1      16.429   4.956   0.232  0.00  0.00    -0.202 F 
ATOM      2  F   UNL     1      15.225   3.562   2.251  0.00  0.00    -0.202 F 
ATOM     16  C   UNL     1      13.408   3.821  -1.448  0.00  0.00    -0.030 A 
ATOM     17  C   UNL     1      14.636   4.445  -1.229  0.00  0.00    +0.046 A 
ATOM     18  C   UNL     1      12.792   3.110  -0.418  0.00  0.00    +0.008 A 
ATOM     20  C   UNL     1      15.250   4.358   0.022  0.00  0.00    +0.159 A 
ATOM     21  C   UNL     1      13.406   3.023   0.833  0.00  0.00    +0.041 A 
ATOM     23  C   UNL     1      14.634   3.646   1.052  0.00  0.00    +0.158 A 
ENDBRANCH  14  16
ENDBRANCH   5  14
ENDBRANCH  15  10
TORSDOF 8
ENDMDL
