MODEL 1
REMARK VINA RESULT:      -7.8      0.000      0.000
REMARK  Name = 9424610
REMARK  6 active torsions:
REMARK  status: ('A' for Active; 'I' for Inactive)
REMARK    1  A    between atoms: O_4  and  C_28
REMARK    2  A    between atoms: O_4  and  C_29
REMARK    3  A    between atoms: N_5  and  C_14
REMARK    4  A    between atoms: N_8  and  C_21
REMARK    5  A    between atoms: C_25  and  C_26
REMARK    6  A    between atoms: C_27  and  C_28
REMARK                            x       y       z     vdW  Elec       q    Type
REMARK                         _______ _______ _______ _____ _____    ______ ____
ROOT
ATOM      1  O   UNL     1      11.618   9.206  16.824  0.00  0.00    -0.268 OA
ATOM      5  N   UNL     1      12.719   9.570  21.707  0.00  0.00    -0.298 NA
ATOM      6  N   UNL     1      12.269   8.223  18.848  0.00  0.00    -0.310 N 
ATOM      9  C   UNL     1      10.757   8.225  20.917  0.00  0.00    +0.024 C 
ATOM     10  C   UNL     1      12.968   7.181  21.027  0.00  0.00    +0.052 C 
ATOM     11  C   UNL     1      11.479   6.933  21.258  0.00  0.00    +0.017 C 
ATOM     12  C   UNL     1      11.269   9.375  21.811  0.00  0.00    +0.090 C 
ATOM     13  C   UNL     1      13.450   8.319  21.956  0.00  0.00    +0.094 C 
ATOM     15  C   UNL     1      10.948   8.507  19.424  0.00  0.00    +0.130 C 
ATOM     16  C   UNL     1      13.258   7.528  19.568  0.00  0.00    +0.047 A 
ATOM     21  C   UNL     1      14.428   7.215  18.967  0.00  0.00    +0.054 A 
ATOM     22  C   UNL     1      12.451   8.611  17.507  0.00  0.00    +0.252 A 
ATOM     23  C   UNL     1      14.663   7.588  17.593  0.00  0.00    +0.030 A 
ATOM     24  C   UNL     1      13.750   8.256  16.885  0.00  0.00    +0.072 A 
ENDROOT
BRANCH   5  14
ATOM      2  O   UNL     1      16.120  14.026  20.423  0.00  0.00    -0.276 OA
ATOM      7  N   UNL     1      14.247  12.732  20.890  0.00  0.00    -0.302 N 
ATOM     14  C   UNL     1      13.172  10.631  22.610  0.00  0.00    +0.060 C 
ATOM     17  C   UNL     1      12.407  11.933  22.330  0.00  0.00    +0.038 C 
ATOM     18  C   UNL     1      14.681  10.865  22.446  0.00  0.00    +0.038 C 
ATOM     19  C   UNL     1      12.791  12.563  20.991  0.00  0.00    +0.109 C 
ATOM     20  C   UNL     1      15.028  11.511  21.104  0.00  0.00    +0.109 C 
ATOM     25  C   UNL     1      14.898  13.920  20.556  0.00  0.00    +0.212 C 
ATOM     26  C   UNL     1      14.027  15.135  20.357  0.00  0.00    +0.109 C 
ENDBRANCH   5  14
BRANCH  21   8
ATOM      3  O   UNL     1      16.678   8.438  20.259  0.00  0.00    -0.272 OA
ATOM      8  N   UNL     1      15.456   6.566  19.597  0.00  0.00    -0.281 N 
ATOM     27  C   UNL     1      16.516   7.222  20.203  0.00  0.00    +0.255 C 
ATOM     35  H   UNL     1      15.545   5.565  19.452  0.00  0.00    +0.155 HD
BRANCH  27  28
ATOM     28  C   UNL     1      17.495   6.239  20.813  0.00  0.00    +0.324 C 
BRANCH  28   4
ATOM      4  O   UNL     1      18.765   6.360  20.207  0.00  0.00    -0.483 OA
BRANCH   4  29
ATOM     29  C   UNL     1      19.837   5.836  20.889  0.00  0.00    +0.121 A 
ATOM     30  C   UNL     1      20.273   6.450  22.055  0.00  0.00    +0.045 A 
ATOM     31  C   UNL     1      20.468   4.700  20.401  0.00  0.00    +0.045 A 
ATOM     32  C   UNL     1      21.361   5.918  22.746  0.00  0.00    +0.004 A 
ATOM     33  C   UNL     1      21.556   4.167  21.093  0.00  0.00    +0.004 A 
ATOM     34  C   UNL     1      22.003   4.777  22.265  0.00  0.00    +0.000 A 
ENDBRANCH   4  29
ENDBRANCH  28   4
ENDBRANCH  27  28
ENDBRANCH  21   8
TORSDOF 5
ENDMDL
MODEL 2
REMARK VINA RESULT:      -7.4      2.667      6.569
REMARK  Name = 9424610
REMARK  6 active torsions:
REMARK  status: ('A' for Active; 'I' for Inactive)
REMARK    1  A    between atoms: O_4  and  C_28
REMARK    2  A    between atoms: O_4  and  C_29
REMARK    3  A    between atoms: N_5  and  C_14
REMARK    4  A    between atoms: N_8  and  C_21
REMARK    5  A    between atoms: C_25  and  C_26
REMARK    6  A    between atoms: C_27  and  C_28
REMARK                            x       y       z     vdW  Elec       q    Type
REMARK                         _______ _______ _______ _____ _____    ______ ____
ROOT
ATOM      1  O   UNL     1      17.379   6.267  19.495  0.00  0.00    -0.268 OA
ATOM      5  N   UNL     1      13.355   9.256  19.257  0.00  0.00    -0.298 NA
ATOM      6  N   UNL     1      15.689   7.501  20.547  0.00  0.00    -0.310 N 
ATOM      9  C   UNL     1      13.205   6.955  20.240  0.00  0.00    +0.024 C 
ATOM     10  C   UNL     1      13.870   8.831  21.662  0.00  0.00    +0.052 C 
ATOM     11  C   UNL     1      13.061   7.537  21.635  0.00  0.00    +0.017 C 
ATOM     12  C   UNL     1      12.681   7.955  19.187  0.00  0.00    +0.090 C 
ATOM     13  C   UNL     1      13.302   9.817  20.615  0.00  0.00    +0.094 C 
ATOM     15  C   UNL     1      14.673   6.581  20.020  0.00  0.00    +0.130 C 
ATOM     16  C   UNL     1      15.352   8.570  21.398  0.00  0.00    +0.047 A 
ATOM     21  C   UNL     1      16.330   9.340  21.926  0.00  0.00    +0.054 A 
ATOM     22  C   UNL     1      17.024   7.196  20.219  0.00  0.00    +0.252 A 
ATOM     23  C   UNL     1      17.714   9.067  21.622  0.00  0.00    +0.030 A 
ATOM     24  C   UNL     1      18.067   8.067  20.813  0.00  0.00    +0.072 A 
ENDROOT
BRANCH   5  14
ATOM      2  O   UNL     1      16.239  12.720  15.686  0.00  0.00    -0.276 OA
ATOM      7  N   UNL     1      15.007  10.939  16.530  0.00  0.00    -0.302 N 
ATOM     14  C   UNL     1      12.793  10.193  18.281  0.00  0.00    +0.060 C 
ATOM     17  C   UNL     1      12.938   9.632  16.859  0.00  0.00    +0.038 C 
ATOM     18  C   UNL     1      13.495  11.555  18.381  0.00  0.00    +0.038 C 
ATOM     19  C   UNL     1      14.390   9.615  16.381  0.00  0.00    +0.109 C 
ATOM     20  C   UNL     1      14.939  11.505  17.880  0.00  0.00    +0.109 C 
ATOM     25  C   UNL     1      15.680  11.632  15.523  0.00  0.00    +0.212 C 
ATOM     26  C   UNL     1      15.704  10.989  14.160  0.00  0.00    +0.109 C 
ENDBRANCH   5  14
BRANCH  21   8
ATOM      3  O   UNL     1      16.210  12.090  21.121  0.00  0.00    -0.272 OA
ATOM      8  N   UNL     1      16.094  10.416  22.738  0.00  0.00    -0.281 N 
ATOM     27  C   UNL     1      16.050  11.724  22.282  0.00  0.00    +0.255 C 
ATOM     35  H   UNL     1      16.141  10.272  23.743  0.00  0.00    +0.155 HD
BRANCH  27  28
ATOM     28  C   UNL     1      15.772  12.693  23.413  0.00  0.00    +0.324 C 
BRANCH  28   4
ATOM      4  O   UNL     1      14.660  13.509  23.108  0.00  0.00    -0.483 OA
BRANCH   4  29
ATOM     29  C   UNL     1      13.432  12.895  23.039  0.00  0.00    +0.121 A 
ATOM     30  C   UNL     1      13.058  11.999  24.031  0.00  0.00    +0.045 A 
ATOM     31  C   UNL     1      12.584  13.181  21.978  0.00  0.00    +0.045 A 
ATOM     32  C   UNL     1      11.813  11.376  23.959  0.00  0.00    +0.004 A 
ATOM     33  C   UNL     1      11.337  12.559  21.907  0.00  0.00    +0.004 A 
ATOM     34  C   UNL     1      10.952  11.656  22.899  0.00  0.00    +0.000 A 
ENDBRANCH   4  29
ENDBRANCH  28   4
ENDBRANCH  27  28
ENDBRANCH  21   8
TORSDOF 5
ENDMDL
MODEL 3
REMARK VINA RESULT:      -7.4     13.670     17.513
REMARK  Name = 9424610
REMARK  6 active torsions:
REMARK  status: ('A' for Active; 'I' for Inactive)
REMARK    1  A    between atoms: O_4  and  C_28
REMARK    2  A    between atoms: O_4  and  C_29
REMARK    3  A    between atoms: N_5  and  C_14
REMARK    4  A    between atoms: N_8  and  C_21
REMARK    5  A    between atoms: C_25  and  C_26
REMARK    6  A    between atoms: C_27  and  C_28
REMARK                            x       y       z     vdW  Elec       q    Type
REMARK                         _______ _______ _______ _____ _____    ______ ____
ROOT
ATOM      1  O   UNL     1      13.137  10.546   7.339  0.00  0.00    -0.268 OA
ATOM      5  N   UNL     1       9.734   7.848   4.827  0.00  0.00    -0.298 NA
ATOM      6  N   UNL     1      12.409   9.502   5.374  0.00  0.00    -0.310 N 
ATOM      9  C   UNL     1      10.262  10.207   4.167  0.00  0.00    +0.024 C 
ATOM     10  C   UNL     1      11.614   8.375   3.271  0.00  0.00    +0.052 C 
ATOM     11  C   UNL     1      10.982   9.721   2.922  0.00  0.00    +0.017 C 
ATOM     12  C   UNL     1       9.184   9.188   4.593  0.00  0.00    +0.090 C 
ATOM     13  C   UNL     1      10.504   7.374   3.668  0.00  0.00    +0.094 C 
ATOM     15  C   UNL     1      11.302  10.461   5.261  0.00  0.00    +0.130 C 
ATOM     16  C   UNL     1      12.634   8.512   4.399  0.00  0.00    +0.047 A 
ATOM     21  C   UNL     1      13.715   7.705   4.501  0.00  0.00    +0.054 A 
ATOM     22  C   UNL     1      13.275   9.689   6.467  0.00  0.00    +0.252 A 
ATOM     23  C   UNL     1      14.635   7.859   5.602  0.00  0.00    +0.030 A 
ATOM     24  C   UNL     1      14.445   8.781   6.548  0.00  0.00    +0.072 A 
ENDROOT
BRANCH   5  14
ATOM      2  O   UNL     1      10.019   3.543   8.628  0.00  0.00    -0.276 OA
ATOM      7  N   UNL     1       9.555   5.591   7.633  0.00  0.00    -0.302 N 
ATOM     14  C   UNL     1       8.674   6.899   5.175  0.00  0.00    +0.060 C 
ATOM     17  C   UNL     1       8.077   7.245   6.547  0.00  0.00    +0.038 C 
ATOM     18  C   UNL     1       9.223   5.465   5.190  0.00  0.00    +0.038 C 
ATOM     19  C   UNL     1       9.048   6.968   7.695  0.00  0.00    +0.109 C 
ATOM     20  C   UNL     1      10.177   5.218   6.359  0.00  0.00    +0.109 C 
ATOM     25  C   UNL     1       9.537   4.678   8.687  0.00  0.00    +0.212 C 
ATOM     26  C   UNL     1       8.875   5.132   9.963  0.00  0.00    +0.109 C 
ENDBRANCH   5  14
BRANCH  21   8
ATOM      3  O   UNL     1      15.321   7.917   2.135  0.00  0.00    -0.272 OA
ATOM      8  N   UNL     1      13.998   6.699   3.618  0.00  0.00    -0.281 N 
ATOM     27  C   UNL     1      14.785   6.871   2.490  0.00  0.00    +0.255 C 
ATOM     35  H   UNL     1      13.459   5.841   3.688  0.00  0.00    +0.155 HD
BRANCH  27  28
ATOM     28  C   UNL     1      14.917   5.580   1.709  0.00  0.00    +0.324 C 
BRANCH  28   4
ATOM      4  O   UNL     1      13.977   5.537   0.655  0.00  0.00    -0.483 OA
BRANCH   4  29
ATOM     29  C   UNL     1      12.709   5.106   0.963  0.00  0.00    +0.121 A 
ATOM     30  C   UNL     1      12.539   4.084   1.887  0.00  0.00    +0.045 A 
ATOM     31  C   UNL     1      11.616   5.699   0.345  0.00  0.00    +0.045 A 
ATOM     32  C   UNL     1      11.252   3.646   2.198  0.00  0.00    +0.004 A 
ATOM     33  C   UNL     1      10.329   5.262   0.658  0.00  0.00    +0.004 A 
ATOM     34  C   UNL     1      10.147   4.235   1.584  0.00  0.00    +0.000 A 
ENDBRANCH   4  29
ENDBRANCH  28   4
ENDBRANCH  27  28
ENDBRANCH  21   8
TORSDOF 5
ENDMDL
MODEL 4
REMARK VINA RESULT:      -6.8     12.426     15.697
REMARK  Name = 9424610
REMARK  6 active torsions:
REMARK  status: ('A' for Active; 'I' for Inactive)
REMARK    1  A    between atoms: O_4  and  C_28
REMARK    2  A    between atoms: O_4  and  C_29
REMARK    3  A    between atoms: N_5  and  C_14
REMARK    4  A    between atoms: N_8  and  C_21
REMARK    5  A    between atoms: C_25  and  C_26
REMARK    6  A    between atoms: C_27  and  C_28
REMARK                            x       y       z     vdW  Elec       q    Type
REMARK                         _______ _______ _______ _____ _____    ______ ____
ROOT
ATOM      1  O   UNL     1      19.753  -5.248  21.438  0.00  0.00    -0.268 OA
ATOM      5  N   UNL     1      18.470  -2.149  25.170  0.00  0.00    -0.298 NA
ATOM      6  N   UNL     1      18.167  -4.426  22.953  0.00  0.00    -0.310 N 
ATOM      9  C   UNL     1      17.381  -1.987  22.919  0.00  0.00    +0.024 C 
ATOM     10  C   UNL     1      16.477  -3.533  24.586  0.00  0.00    +0.052 C 
ATOM     11  C   UNL     1      16.089  -2.555  23.479  0.00  0.00    +0.017 C 
ATOM     12  C   UNL     1      18.177  -1.272  24.031  0.00  0.00    +0.090 C 
ATOM     13  C   UNL     1      17.248  -2.778  25.693  0.00  0.00    +0.094 C 
ATOM     15  C   UNL     1      18.168  -3.127  22.267  0.00  0.00    +0.130 C 
ATOM     16  C   UNL     1      17.318  -4.686  24.044  0.00  0.00    +0.047 A 
ATOM     21  C   UNL     1      17.291  -5.923  24.591  0.00  0.00    +0.054 A 
ATOM     22  C   UNL     1      19.002  -5.414  22.399  0.00  0.00    +0.252 A 
ATOM     23  C   UNL     1      18.126  -6.972  24.057  0.00  0.00    +0.030 A 
ATOM     24  C   UNL     1      18.949  -6.755  23.030  0.00  0.00    +0.072 A 
ENDROOT
BRANCH   5  14
ATOM      2  O   UNL     1      23.251  -3.767  27.926  0.00  0.00    -0.276 OA
ATOM      7  N   UNL     1      21.789  -2.703  26.466  0.00  0.00    -0.302 N 
ATOM     14  C   UNL     1      19.177  -1.419  26.226  0.00  0.00    +0.060 C 
ATOM     17  C   UNL     1      20.458  -0.781  25.669  0.00  0.00    +0.038 C 
ATOM     18  C   UNL     1      19.524  -2.362  27.387  0.00  0.00    +0.038 C 
ATOM     19  C   UNL     1      21.527  -1.819  25.323  0.00  0.00    +0.109 C 
ATOM     20  C   UNL     1      20.607  -3.375  27.012  0.00  0.00    +0.109 C 
ATOM     25  C   UNL     1      23.048  -2.977  26.999  0.00  0.00    +0.212 C 
ATOM     26  C   UNL     1      24.215  -2.244  26.388  0.00  0.00    +0.109 C 
ENDBRANCH   5  14
BRANCH  21   8
ATOM      3  O   UNL     1      18.087  -5.857  27.345  0.00  0.00    -0.272 OA
ATOM      8  N   UNL     1      16.518  -6.261  25.669  0.00  0.00    -0.281 N 
ATOM     27  C   UNL     1      16.968  -6.205  26.979  0.00  0.00    +0.255 C 
ATOM     35  H   UNL     1      15.645  -6.750  25.493  0.00  0.00    +0.155 HD
BRANCH  27  28
ATOM     28  C   UNL     1      15.889  -6.638  27.950  0.00  0.00    +0.324 C 
BRANCH  28   4
ATOM      4  O   UNL     1      16.110  -6.072  29.225  0.00  0.00    -0.483 OA
BRANCH   4  29
ATOM     29  C   UNL     1      15.008  -5.875  30.023  0.00  0.00    +0.121 A 
ATOM     30  C   UNL     1      13.889  -6.679  29.855  0.00  0.00    +0.045 A 
ATOM     31  C   UNL     1      15.031  -4.874  30.985  0.00  0.00    +0.045 A 
ATOM     32  C   UNL     1      12.772  -6.477  30.664  0.00  0.00    +0.004 A 
ATOM     33  C   UNL     1      13.914  -4.673  31.795  0.00  0.00    +0.004 A 
ATOM     34  C   UNL     1      12.783  -5.475  31.634  0.00  0.00    +0.000 A 
ENDBRANCH   4  29
ENDBRANCH  28   4
ENDBRANCH  27  28
ENDBRANCH  21   8
TORSDOF 5
ENDMDL
MODEL 5
REMARK VINA RESULT:      -6.7     27.468     30.446
REMARK  Name = 9424610
REMARK  6 active torsions:
REMARK  status: ('A' for Active; 'I' for Inactive)
REMARK    1  A    between atoms: O_4  and  C_28
REMARK    2  A    between atoms: O_4  and  C_29
REMARK    3  A    between atoms: N_5  and  C_14
REMARK    4  A    between atoms: N_8  and  C_21
REMARK    5  A    between atoms: C_25  and  C_26
REMARK    6  A    between atoms: C_27  and  C_28
REMARK                            x       y       z     vdW  Elec       q    Type
REMARK                         _______ _______ _______ _____ _____    ______ ____
ROOT
ATOM      1  O   UNL     1      -3.967  -9.481   9.345  0.00  0.00    -0.268 OA
ATOM      5  N   UNL     1      -3.652 -12.982  12.926  0.00  0.00    -0.298 NA
ATOM      6  N   UNL     1      -3.852 -10.083  11.606  0.00  0.00    -0.310 N 
ATOM      9  C   UNL     1      -1.825 -11.299  12.595  0.00  0.00    +0.024 C 
ATOM     10  C   UNL     1      -3.728 -10.744  14.028  0.00  0.00    +0.052 C 
ATOM     11  C   UNL     1      -2.217 -10.589  13.878  0.00  0.00    +0.017 C 
ATOM     12  C   UNL     1      -2.220 -12.789  12.666  0.00  0.00    +0.090 C 
ATOM     13  C   UNL     1      -4.085 -12.245  14.122  0.00  0.00    +0.094 C 
ATOM     15  C   UNL     1      -2.478 -10.568  11.419  0.00  0.00    +0.130 C 
ATOM     16  C   UNL     1      -4.476 -10.092  12.867  0.00  0.00    +0.047 A 
ATOM     21  C   UNL     1      -5.710  -9.557  13.007  0.00  0.00    +0.054 A 
ATOM     22  C   UNL     1      -4.469  -9.531  10.467  0.00  0.00    +0.252 A 
ATOM     23  C   UNL     1      -6.384  -8.976  11.871  0.00  0.00    +0.030 A 
ATOM     24  C   UNL     1      -5.824  -8.960  10.661  0.00  0.00    +0.072 A 
ENDROOT
BRANCH   5  14
ATOM      2  O   UNL     1      -7.774 -15.854  10.130  0.00  0.00    -0.276 OA
ATOM      7  N   UNL     1      -5.704 -15.012  10.766  0.00  0.00    -0.302 N 
ATOM     14  C   UNL     1      -3.976 -14.406  13.041  0.00  0.00    +0.060 C 
ATOM     17  C   UNL     1      -3.471 -15.170  11.809  0.00  0.00    +0.038 C 
ATOM     18  C   UNL     1      -5.493 -14.598  13.190  0.00  0.00    +0.038 C 
ATOM     19  C   UNL     1      -4.263 -14.834  10.544  0.00  0.00    +0.109 C 
ATOM     20  C   UNL     1      -6.251 -14.269  11.904  0.00  0.00    +0.109 C 
ATOM     25  C   UNL     1      -6.556 -15.763   9.956  0.00  0.00    +0.212 C 
ATOM     26  C   UNL     1      -5.918 -16.504   8.808  0.00  0.00    +0.109 C 
ENDBRANCH   5  14
BRANCH  21   8
ATOM      3  O   UNL     1      -7.597 -11.527  13.891  0.00  0.00    -0.272 OA
ATOM      8  N   UNL     1      -6.404  -9.547  14.187  0.00  0.00    -0.281 N 
ATOM     27  C   UNL     1      -7.304 -10.535  14.553  0.00  0.00    +0.255 C 
ATOM     35  H   UNL     1      -6.402  -8.689  14.732  0.00  0.00    +0.155 HD
BRANCH  27  28
ATOM     28  C   UNL     1      -7.914 -10.249  15.910  0.00  0.00    +0.324 C 
BRANCH  28   4
ATOM      4  O   UNL     1      -7.001  -9.546  16.728  0.00  0.00    -0.483 OA
BRANCH   4  29
ATOM     29  C   UNL     1      -6.261 -10.286  17.619  0.00  0.00    +0.121 A 
ATOM     30  C   UNL     1      -4.946 -10.611  17.313  0.00  0.00    +0.045 A 
ATOM     31  C   UNL     1      -6.838 -10.697  18.812  0.00  0.00    +0.045 A 
ATOM     32  C   UNL     1      -4.196 -11.362  18.217  0.00  0.00    +0.004 A 
ATOM     33  C   UNL     1      -6.088 -11.447  19.717  0.00  0.00    +0.004 A 
ATOM     34  C   UNL     1      -4.766 -11.781  19.419  0.00  0.00    +0.000 A 
ENDBRANCH   4  29
ENDBRANCH  28   4
ENDBRANCH  27  28
ENDBRANCH  21   8
TORSDOF 5
ENDMDL
MODEL 6
REMARK VINA RESULT:      -6.7     27.200     30.154
REMARK  Name = 9424610
REMARK  6 active torsions:
REMARK  status: ('A' for Active; 'I' for Inactive)
REMARK    1  A    between atoms: O_4  and  C_28
REMARK    2  A    between atoms: O_4  and  C_29
REMARK    3  A    between atoms: N_5  and  C_14
REMARK    4  A    between atoms: N_8  and  C_21
REMARK    5  A    between atoms: C_25  and  C_26
REMARK    6  A    between atoms: C_27  and  C_28
REMARK                            x       y       z     vdW  Elec       q    Type
REMARK                         _______ _______ _______ _____ _____    ______ ____
ROOT
ATOM      1  O   UNL     1      -6.988 -15.173  16.953  0.00  0.00    -0.268 OA
ATOM      5  N   UNL     1      -7.328 -10.186  17.396  0.00  0.00    -0.298 NA
ATOM      6  N   UNL     1      -5.981 -13.062  17.067  0.00  0.00    -0.310 N 
ATOM      9  C   UNL     1      -6.172 -11.567  19.139  0.00  0.00    +0.024 C 
ATOM     10  C   UNL     1      -4.914 -10.788  17.190  0.00  0.00    +0.052 C 
ATOM     11  C   UNL     1      -4.821 -11.036  18.694  0.00  0.00    +0.017 C 
ATOM     12  C   UNL     1      -7.281 -10.542  18.819  0.00  0.00    +0.090 C 
ATOM     13  C   UNL     1      -6.015  -9.739  16.909  0.00  0.00    +0.094 C 
ATOM     15  C   UNL     1      -6.406 -12.922  18.466  0.00  0.00    +0.130 C 
ATOM     16  C   UNL     1      -5.203 -12.079  16.427  0.00  0.00    +0.047 A 
ATOM     21  C   UNL     1      -4.764 -12.289  15.165  0.00  0.00    +0.054 A 
ATOM     22  C   UNL     1      -6.325 -14.273  16.438  0.00  0.00    +0.252 A 
ATOM     23  C   UNL     1      -5.087 -13.516  14.478  0.00  0.00    +0.030 A 
ATOM     24  C   UNL     1      -5.830 -14.464  15.053  0.00  0.00    +0.072 A 
ENDROOT
BRANCH   5  14
ATOM      2  O   UNL     1     -11.814 -10.584  13.820  0.00  0.00    -0.276 OA
ATOM      7  N   UNL     1     -10.512 -10.558  15.745  0.00  0.00    -0.302 N 
ATOM     14  C   UNL     1      -8.354  -9.172  17.142  0.00  0.00    +0.060 C 
ATOM     17  C   UNL     1      -9.668  -9.557  17.839  0.00  0.00    +0.038 C 
ATOM     18  C   UNL     1      -8.589  -9.014  15.633  0.00  0.00    +0.038 C 
ATOM     19  C   UNL     1     -10.344 -10.765  17.189  0.00  0.00    +0.109 C 
ATOM     20  C   UNL     1      -9.281 -10.232  15.020  0.00  0.00    +0.109 C 
ATOM     25  C   UNL     1     -11.708 -10.709  15.044  0.00  0.00    +0.212 C 
ATOM     26  C   UNL     1     -12.933 -11.039  15.859  0.00  0.00    +0.109 C 
ENDBRANCH   5  14
BRANCH  21   8
ATOM      3  O   UNL     1      -1.915 -12.286  14.838  0.00  0.00    -0.272 OA
ATOM      8  N   UNL     1      -4.028 -11.380  14.455  0.00  0.00    -0.281 N 
ATOM     27  C   UNL     1      -2.648 -11.438  14.338  0.00  0.00    +0.255 C 
ATOM     35  H   UNL     1      -4.488 -10.524  14.160  0.00  0.00    +0.155 HD
BRANCH  27  28
ATOM     28  C   UNL     1      -2.119 -10.296  13.494  0.00  0.00    +0.324 C 
BRANCH  28   4
ATOM      4  O   UNL     1      -1.735 -10.759  12.216  0.00  0.00    -0.483 OA
BRANCH   4  29
ATOM     29  C   UNL     1      -2.636 -10.592  11.191  0.00  0.00    +0.121 A 
ATOM     30  C   UNL     1      -2.792  -9.340  10.614  0.00  0.00    +0.045 A 
ATOM     31  C   UNL     1      -3.378 -11.680  10.750  0.00  0.00    +0.045 A 
ATOM     32  C   UNL     1      -3.707  -9.171   9.575  0.00  0.00    +0.004 A 
ATOM     33  C   UNL     1      -4.293 -11.511   9.710  0.00  0.00    +0.004 A 
ATOM     34  C   UNL     1      -4.458 -10.256   9.123  0.00  0.00    +0.000 A 
ENDBRANCH   4  29
ENDBRANCH  28   4
ENDBRANCH  27  28
ENDBRANCH  21   8
TORSDOF 5
ENDMDL
MODEL 7
REMARK VINA RESULT:      -6.7     27.023     30.203
REMARK  Name = 9424610
REMARK  6 active torsions:
REMARK  status: ('A' for Active; 'I' for Inactive)
REMARK    1  A    between atoms: O_4  and  C_28
REMARK    2  A    between atoms: O_4  and  C_29
REMARK    3  A    between atoms: N_5  and  C_14
REMARK    4  A    between atoms: N_8  and  C_21
REMARK    5  A    between atoms: C_25  and  C_26
REMARK    6  A    between atoms: C_27  and  C_28
REMARK                            x       y       z     vdW  Elec       q    Type
REMARK                         _______ _______ _______ _____ _____    ______ ____
ROOT
ATOM      1  O   UNL     1      -1.091 -12.591  13.851  0.00  0.00    -0.268 OA
ATOM      5  N   UNL     1      -6.078 -12.420  13.320  0.00  0.00    -0.298 NA
ATOM      6  N   UNL     1      -3.246 -12.778  14.749  0.00  0.00    -0.310 N 
ATOM      9  C   UNL     1      -4.913 -14.550  13.943  0.00  0.00    +0.024 C 
ATOM     10  C   UNL     1      -5.566 -12.975  15.699  0.00  0.00    +0.052 C 
ATOM     11  C   UNL     1      -5.459 -14.460  15.357  0.00  0.00    +0.017 C 
ATOM     12  C   UNL     1      -5.855 -13.825  12.959  0.00  0.00    +0.090 C 
ATOM     13  C   UNL     1      -6.536 -12.288  14.710  0.00  0.00    +0.094 C 
ATOM     15  C   UNL     1      -3.494 -13.976  13.935  0.00  0.00    +0.130 C 
ATOM     16  C   UNL     1      -4.200 -12.293  15.663  0.00  0.00    +0.047 A 
ATOM     21  C   UNL     1      -3.895 -11.238  16.452  0.00  0.00    +0.054 A 
ATOM     22  C   UNL     1      -1.969 -12.201  14.621  0.00  0.00    +0.252 A 
ATOM     23  C   UNL     1      -2.598 -10.612  16.361  0.00  0.00    +0.030 A 
ATOM     24  C   UNL     1      -1.675 -11.042  15.499  0.00  0.00    +0.072 A 
ENDROOT
BRANCH   5  14
ATOM      2  O   UNL     1      -5.194  -7.713  10.137  0.00  0.00    -0.276 OA
ATOM      7  N   UNL     1      -5.429  -9.930  10.795  0.00  0.00    -0.302 N 
ATOM     14  C   UNL     1      -7.019 -11.783  12.395  0.00  0.00    +0.060 C 
ATOM     17  C   UNL     1      -6.626 -12.085  10.941  0.00  0.00    +0.038 C 
ATOM     18  C   UNL     1      -7.051 -10.265  12.625  0.00  0.00    +0.038 C 
ATOM     19  C   UNL     1      -5.340 -11.370  10.522  0.00  0.00    +0.109 C 
ATOM     20  C   UNL     1      -5.758  -9.582  12.179  0.00  0.00    +0.109 C 
ATOM     25  C   UNL     1      -5.168  -8.918   9.870  0.00  0.00    +0.212 C 
ATOM     26  C   UNL     1      -4.841  -9.354   8.464  0.00  0.00    +0.109 C 
ENDBRANCH   5  14
BRANCH  21   8
ATOM      3  O   UNL     1      -4.226 -11.990  19.200  0.00  0.00    -0.272 OA
ATOM      8  N   UNL     1      -4.768 -10.682  17.348  0.00  0.00    -0.281 N 
ATOM     27  C   UNL     1      -4.877 -11.095  18.667  0.00  0.00    +0.255 C 
ATOM     35  H   UNL     1      -5.496 -10.073  16.986  0.00  0.00    +0.155 HD
BRANCH  27  28
ATOM     28  C   UNL     1      -5.926 -10.295  19.410  0.00  0.00    +0.324 C 
BRANCH  28   4
ATOM      4  O   UNL     1      -6.978 -11.133  19.841  0.00  0.00    -0.483 OA
BRANCH   4  29
ATOM     29  C   UNL     1      -7.820 -11.630  18.875  0.00  0.00    +0.121 A 
ATOM     30  C   UNL     1      -8.498 -10.753  18.039  0.00  0.00    +0.045 A 
ATOM     31  C   UNL     1      -7.979 -13.004  18.748  0.00  0.00    +0.045 A 
ATOM     32  C   UNL     1      -9.352 -11.259  17.060  0.00  0.00    +0.004 A 
ATOM     33  C   UNL     1      -8.832 -13.509  17.768  0.00  0.00    +0.004 A 
ATOM     34  C   UNL     1      -9.519 -12.636  16.924  0.00  0.00    +0.000 A 
ENDBRANCH   4  29
ENDBRANCH  28   4
ENDBRANCH  27  28
ENDBRANCH  21   8
TORSDOF 5
ENDMDL
MODEL 8
REMARK VINA RESULT:      -6.6     14.793     17.754
REMARK  Name = 9424610
REMARK  6 active torsions:
REMARK  status: ('A' for Active; 'I' for Inactive)
REMARK    1  A    between atoms: O_4  and  C_28
REMARK    2  A    between atoms: O_4  and  C_29
REMARK    3  A    between atoms: N_5  and  C_14
REMARK    4  A    between atoms: N_8  and  C_21
REMARK    5  A    between atoms: C_25  and  C_26
REMARK    6  A    between atoms: C_27  and  C_28
REMARK                            x       y       z     vdW  Elec       q    Type
REMARK                         _______ _______ _______ _____ _____    ______ ____
ROOT
ATOM      1  O   UNL     1       7.685   9.927   5.485  0.00  0.00    -0.268 OA
ATOM      5  N   UNL     1      11.660   6.871   5.686  0.00  0.00    -0.298 NA
ATOM      6  N   UNL     1       8.723   7.894   4.963  0.00  0.00    -0.310 N 
ATOM      9  C   UNL     1       9.488   6.246   6.771  0.00  0.00    +0.024 C 
ATOM     10  C   UNL     1       9.852   5.716   4.410  0.00  0.00    +0.052 C 
ATOM     11  C   UNL     1       9.234   5.195   5.705  0.00  0.00    +0.017 C 
ATOM     12  C   UNL     1      11.004   6.480   6.940  0.00  0.00    +0.090 C 
ATOM     13  C   UNL     1      11.372   5.913   4.608  0.00  0.00    +0.094 C 
ATOM     15  C   UNL     1       8.732   7.520   6.384  0.00  0.00    +0.130 C 
ATOM     16  C   UNL     1       9.200   7.024   3.965  0.00  0.00    +0.047 A 
ATOM     21  C   UNL     1       9.094   7.375   2.664  0.00  0.00    +0.054 A 
ATOM     22  C   UNL     1       8.132   9.134   4.657  0.00  0.00    +0.252 A 
ATOM     23  C   UNL     1       8.493   8.635   2.298  0.00  0.00    +0.030 A 
ATOM     24  C   UNL     1       8.039   9.487   3.220  0.00  0.00    +0.072 A 
ENDROOT
BRANCH   5  14
ATOM      2  O   UNL     1      14.953  11.233   3.901  0.00  0.00    -0.276 OA
ATOM      7  N   UNL     1      13.687   9.819   5.241  0.00  0.00    -0.302 N 
ATOM     14  C   UNL     1      13.104   7.029   5.876  0.00  0.00    +0.060 C 
ATOM     17  C   UNL     1      13.387   8.075   6.964  0.00  0.00    +0.038 C 
ATOM     18  C   UNL     1      13.773   7.448   4.560  0.00  0.00    +0.038 C 
ATOM     19  C   UNL     1      13.037   9.495   6.518  0.00  0.00    +0.109 C 
ATOM     20  C   UNL     1      13.414   8.878   4.152  0.00  0.00    +0.109 C 
ATOM     25  C   UNL     1      14.462  10.953   4.998  0.00  0.00    +0.212 C 
ATOM     26  C   UNL     1      14.703  11.872   6.169  0.00  0.00    +0.109 C 
ENDBRANCH   5  14
BRANCH  21   8
ATOM      3  O   UNL     1      11.647   7.600   1.378  0.00  0.00    -0.272 OA
ATOM      8  N   UNL     1       9.554   6.607   1.629  0.00  0.00    -0.281 N 
ATOM     27  C   UNL     1      10.804   6.770   1.053  0.00  0.00    +0.255 C 
ATOM     35  H   UNL     1       8.885   6.020   1.139  0.00  0.00    +0.155 HD
BRANCH  27  28
ATOM     28  C   UNL     1      11.027   5.775  -0.068  0.00  0.00    +0.324 C 
BRANCH  28   4
ATOM      4  O   UNL     1      11.454   4.532   0.448  0.00  0.00    -0.483 OA
BRANCH   4  29
ATOM     29  C   UNL     1      12.809   4.299   0.480  0.00  0.00    +0.121 A 
ATOM     30  C   UNL     1      13.402   3.874   1.661  0.00  0.00    +0.045 A 
ATOM     31  C   UNL     1      13.563   4.492  -0.669  0.00  0.00    +0.045 A 
ATOM     32  C   UNL     1      14.776   3.639   1.693  0.00  0.00    +0.004 A 
ATOM     33  C   UNL     1      14.937   4.255  -0.637  0.00  0.00    +0.004 A 
ATOM     34  C   UNL     1      15.544   3.829   0.545  0.00  0.00    +0.000 A 
ENDBRANCH   4  29
ENDBRANCH  28   4
ENDBRANCH  27  28
ENDBRANCH  21   8
TORSDOF 5
ENDMDL
MODEL 9
REMARK VINA RESULT:      -6.3     28.186     30.537
REMARK  Name = 9424610
REMARK  6 active torsions:
REMARK  status: ('A' for Active; 'I' for Inactive)
REMARK    1  A    between atoms: O_4  and  C_28
REMARK    2  A    between atoms: O_4  and  C_29
REMARK    3  A    between atoms: N_5  and  C_14
REMARK    4  A    between atoms: N_8  and  C_21
REMARK    5  A    between atoms: C_25  and  C_26
REMARK    6  A    between atoms: C_27  and  C_28
REMARK                            x       y       z     vdW  Elec       q    Type
REMARK                         _______ _______ _______ _____ _____    ______ ____
ROOT
ATOM      1  O   UNL     1      -3.265 -16.251  14.535  0.00  0.00    -0.268 OA
ATOM      5  N   UNL     1      -3.903 -11.277  14.721  0.00  0.00    -0.298 NA
ATOM      6  N   UNL     1      -3.510 -14.184  13.461  0.00  0.00    -0.310 N 
ATOM      9  C   UNL     1      -1.819 -12.282  13.757  0.00  0.00    +0.024 C 
ATOM     10  C   UNL     1      -3.774 -11.958  12.323  0.00  0.00    +0.052 C 
ATOM     11  C   UNL     1      -2.250 -11.885  12.357  0.00  0.00    +0.017 C 
ATOM     12  C   UNL     1      -2.438 -11.326  14.798  0.00  0.00    +0.090 C 
ATOM     13  C   UNL     1      -4.360 -10.970  13.358  0.00  0.00    +0.094 C 
ATOM     15  C   UNL     1      -2.212 -13.743  13.989  0.00  0.00    +0.130 C 
ATOM     16  C   UNL     1      -4.273 -13.375  12.599  0.00  0.00    +0.047 A 
ATOM     21  C   UNL     1      -5.421 -13.856  12.071  0.00  0.00    +0.054 A 
ATOM     22  C   UNL     1      -3.899 -15.494  13.800  0.00  0.00    +0.252 A 
ATOM     23  C   UNL     1      -5.862 -15.193  12.385  0.00  0.00    +0.030 A 
ATOM     24  C   UNL     1      -5.166 -15.983  13.206  0.00  0.00    +0.072 A 
ENDROOT
BRANCH   5  14
ATOM      2  O   UNL     1      -8.759 -11.771  17.761  0.00  0.00    -0.276 OA
ATOM      7  N   UNL     1      -6.515 -11.764  17.159  0.00  0.00    -0.302 N 
ATOM     14  C   UNL     1      -4.448 -10.319  15.685  0.00  0.00    +0.060 C 
ATOM     17  C   UNL     1      -4.232 -10.823  17.120  0.00  0.00    +0.038 C 
ATOM     18  C   UNL     1      -5.946 -10.096  15.430  0.00  0.00    +0.038 C 
ATOM     19  C   UNL     1      -5.102 -12.036  17.453  0.00  0.00    +0.109 C 
ATOM     20  C   UNL     1      -6.787 -11.322  15.788  0.00  0.00    +0.109 C 
ATOM     25  C   UNL     1      -7.573 -11.953  18.047  0.00  0.00    +0.212 C 
ATOM     26  C   UNL     1      -7.213 -12.404  19.441  0.00  0.00    +0.109 C 
ENDBRANCH   5  14
BRANCH  21   8
ATOM      3  O   UNL     1      -5.535 -14.015   9.210  0.00  0.00    -0.272 OA
ATOM      8  N   UNL     1      -6.240 -13.131  11.248  0.00  0.00    -0.281 N 
ATOM     27  C   UNL     1      -6.244 -13.259   9.868  0.00  0.00    +0.255 C 
ATOM     35  H   UNL     1      -6.731 -12.336  11.646  0.00  0.00    +0.155 HD
BRANCH  27  28
ATOM     28  C   UNL     1      -7.255 -12.328   9.231  0.00  0.00    +0.324 C 
BRANCH  28   4
ATOM      4  O   UNL     1      -6.605 -11.336   8.464  0.00  0.00    -0.483 OA
BRANCH   4  29
ATOM     29  C   UNL     1      -5.843 -10.416   9.144  0.00  0.00    +0.121 A 
ATOM     30  C   UNL     1      -4.479 -10.341   8.898  0.00  0.00    +0.045 A 
ATOM     31  C   UNL     1      -6.449  -9.577  10.069  0.00  0.00    +0.045 A 
ATOM     32  C   UNL     1      -3.706  -9.408   9.589  0.00  0.00    +0.004 A 
ATOM     33  C   UNL     1      -5.677  -8.643  10.760  0.00  0.00    +0.004 A 
ATOM     34  C   UNL     1      -4.304  -8.559  10.520  0.00  0.00    +0.000 A 
ENDBRANCH   4  29
ENDBRANCH  28   4
ENDBRANCH  27  28
ENDBRANCH  21   8
TORSDOF 5
ENDMDL
MODEL 10
REMARK VINA RESULT:      -6.3     27.947     30.795
REMARK  Name = 9424610
REMARK  6 active torsions:
REMARK  status: ('A' for Active; 'I' for Inactive)
REMARK    1  A    between atoms: O_4  and  C_28
REMARK    2  A    between atoms: O_4  and  C_29
REMARK    3  A    between atoms: N_5  and  C_14
REMARK    4  A    between atoms: N_8  and  C_21
REMARK    5  A    between atoms: C_25  and  C_26
REMARK    6  A    between atoms: C_27  and  C_28
REMARK                            x       y       z     vdW  Elec       q    Type
REMARK                         _______ _______ _______ _____ _____    ______ ____
ROOT
ATOM      1  O   UNL     1      -8.646  -9.065  10.280  0.00  0.00    -0.268 OA
ATOM      5  N   UNL     1      -4.532 -11.797   9.388  0.00  0.00    -0.298 NA
ATOM      6  N   UNL     1      -6.358  -9.466  10.581  0.00  0.00    -0.310 N 
ATOM      9  C   UNL     1      -4.693  -9.412   8.634  0.00  0.00    +0.024 C 
ATOM     10  C   UNL     1      -3.903  -9.910  10.896  0.00  0.00    +0.052 C 
ATOM     11  C   UNL     1      -3.696  -8.986   9.698  0.00  0.00    +0.017 C 
ATOM     12  C   UNL     1      -4.457 -10.885   8.240  0.00  0.00    +0.090 C 
ATOM     13  C   UNL     1      -3.634 -11.372  10.471  0.00  0.00    +0.094 C 
ATOM     15  C   UNL     1      -6.106  -9.160   9.167  0.00  0.00    +0.130 C 
ATOM     16  C   UNL     1      -5.312  -9.775  11.470  0.00  0.00    +0.047 A 
ATOM     21  C   UNL     1      -5.582  -9.966  12.782  0.00  0.00    +0.054 A 
ATOM     22  C   UNL     1      -7.694  -9.347  11.008  0.00  0.00    +0.252 A 
ATOM     23  C   UNL     1      -6.935  -9.852  13.269  0.00  0.00    +0.030 A 
ATOM     24  C   UNL     1      -7.951  -9.570  12.451  0.00  0.00    +0.072 A 
ENDROOT
BRANCH   5  14
ATOM      2  O   UNL     1      -7.549 -16.510  10.710  0.00  0.00    -0.276 OA
ATOM      7  N   UNL     1      -6.679 -14.688   9.559  0.00  0.00    -0.302 N 
ATOM     14  C   UNL     1      -4.249 -13.176   8.982  0.00  0.00    +0.060 C 
ATOM     17  C   UNL     1      -5.220 -13.618   7.878  0.00  0.00    +0.038 C 
ATOM     18  C   UNL     1      -4.360 -14.121  10.187  0.00  0.00    +0.038 C 
ATOM     19  C   UNL     1      -6.650 -13.797   8.392  0.00  0.00    +0.109 C 
ATOM     20  C   UNL     1      -5.803 -14.290  10.664  0.00  0.00    +0.109 C 
ATOM     25  C   UNL     1      -7.501 -15.807   9.697  0.00  0.00    +0.212 C 
ATOM     26  C   UNL     1      -8.371 -16.156   8.516  0.00  0.00    +0.109 C 
ENDBRANCH   5  14
BRANCH  21   8
ATOM      3  O   UNL     1      -4.964 -12.604  13.721  0.00  0.00    -0.272 OA
ATOM      8  N   UNL     1      -4.634 -10.297  13.712  0.00  0.00    -0.281 N 
ATOM     27  C   UNL     1      -4.386 -11.597  14.122  0.00  0.00    +0.255 C 
ATOM     35  H   UNL     1      -4.227  -9.546  14.262  0.00  0.00    +0.155 HD
BRANCH  27  28
ATOM     28  C   UNL     1      -3.284 -11.646  15.160  0.00  0.00    +0.324 C 
BRANCH  28   4
ATOM      4  O   UNL     1      -3.434 -10.598  16.096  0.00  0.00    -0.483 OA
BRANCH   4  29
ATOM     29  C   UNL     1      -4.207 -10.853  17.204  0.00  0.00    +0.121 A 
ATOM     30  C   UNL     1      -3.708 -11.661  18.215  0.00  0.00    +0.045 A 
ATOM     31  C   UNL     1      -5.475 -10.297  17.294  0.00  0.00    +0.045 A 
ATOM     32  C   UNL     1      -4.493 -11.920  19.338  0.00  0.00    +0.004 A 
ATOM     33  C   UNL     1      -6.260 -10.554  18.418  0.00  0.00    +0.004 A 
ATOM     34  C   UNL     1      -5.769 -11.366  19.441  0.00  0.00    +0.000 A 
ENDBRANCH   4  29
ENDBRANCH  28   4
ENDBRANCH  27  28
ENDBRANCH  21   8
TORSDOF 5
ENDMDL
