MODEL 1
REMARK VINA RESULT:      -6.3      0.000      0.000
REMARK  Name = 45784365
REMARK  17 active torsions:
REMARK  status: ('A' for Active; 'I' for Inactive)
REMARK    1  A    between atoms: O_1  and  C_11
REMARK    2  A    between atoms: O_4  and  C_28
REMARK    3  A    between atoms: O_4  and  C_35
REMARK    4  A    between atoms: O_5  and  C_29
REMARK    5  A    between atoms: O_5  and  C_36
REMARK    6  A    between atoms: N_6  and  C_15
REMARK    7  A    between atoms: N_7  and  C_25
REMARK    8  A    between atoms: N_7  and  C_26
REMARK    9  A    between atoms: C_8  and  C_18
REMARK   10  A    between atoms: C_10  and  C_20
REMARK   11  A    between atoms: C_13  and  C_19
REMARK   12  A    between atoms: C_19  and  C_21
REMARK   13  A    between atoms: C_19  and  C_22
REMARK   14  A    between atoms: C_23  and  C_24
REMARK   15  A    between atoms: C_24  and  C_27
REMARK   16  A    between atoms: C_25  and  C_28
REMARK   17  A    between atoms: C_26  and  C_29
REMARK                            x       y       z     vdW  Elec       q    Type
REMARK                         _______ _______ _______ _____ _____    ______ ____
ROOT
ATOM      8  C   UNL     1      -3.616 -10.734  10.758  0.00  0.00    -0.027 C 
ATOM      9  C   UNL     1      -4.989 -10.323  11.384  0.00  0.00    +0.028 C 
ATOM     10  C   UNL     1      -5.699  -9.229  10.508  0.00  0.00    +0.012 C 
ATOM     11  C   UNL     1      -4.838  -9.975  12.894  0.00  0.00    +0.122 C 
ATOM     12  C   UNL     1      -2.998 -11.889  11.580  0.00  0.00    +0.007 C 
ATOM     13  C   UNL     1      -4.125 -11.091  13.693  0.00  0.00    +0.029 C 
ATOM     14  C   UNL     1      -3.853 -11.255   9.321  0.00  0.00    +0.009 C 
ATOM     15  C   UNL     1      -5.865  -9.735   9.047  0.00  0.00    +0.076 C 
ATOM     16  C   UNL     1      -2.812 -11.539  13.051  0.00  0.00    +0.007 C 
ATOM     17  C   UNL     1      -4.563 -10.246   8.430  0.00  0.00    +0.023 C 
ATOM     18  C   UNL     1      -2.606  -9.559  10.714  0.00  0.00    +0.011 C 
ATOM     20  C   UNL     1      -7.070  -8.798  11.053  0.00  0.00    +0.010 C 
ENDROOT
BRANCH  15   6
ATOM      3  O   UNL     1      -8.051 -10.021   7.198  0.00  0.00    -0.275 OA
ATOM      6  N   UNL     1      -6.410  -8.708   8.184  0.00  0.00    -0.312 N 
ATOM     23  C   UNL     1      -7.470  -8.946   7.323  0.00  0.00    +0.218 C 
ATOM     37  H   UNL     1      -5.948  -7.804   8.176  0.00  0.00    +0.149 HD
BRANCH  23  24
ATOM     24  C   UNL     1      -7.840  -7.698   6.544  0.00  0.00    +0.130 C 
BRANCH  24  27
ATOM     27  C   UNL     1      -8.864  -6.842   7.241  0.00  0.00    -0.039 A 
ATOM     30  C   UNL     1     -10.225  -7.077   7.036  0.00  0.00    +0.004 A 
ATOM     31  C   UNL     1      -8.455  -5.815   8.090  0.00  0.00    +0.004 A 
ATOM     32  C   UNL     1     -11.174  -6.283   7.681  0.00  0.00    +0.000 A 
ATOM     33  C   UNL     1      -9.404  -5.022   8.734  0.00  0.00    +0.000 A 
ATOM     34  C   UNL     1     -10.763  -5.257   8.530  0.00  0.00    +0.000 A 
ENDBRANCH  24  27
ENDBRANCH  23  24
ENDBRANCH  15   6
BRANCH  11   1
ATOM      1  O   UNL     1      -6.131  -9.817  13.478  0.00  0.00    -0.391 OA
ATOM     38  H   UNL     1      -6.469  -8.940  13.230  0.00  0.00    +0.210 HD
ENDBRANCH  11   1
BRANCH  13  19
ATOM     19  C   UNL     1      -3.868 -10.675  15.147  0.00  0.00    +0.078 C 
ATOM     21  C   UNL     1      -2.362 -10.664  15.415  0.00  0.00    +0.017 C 
BRANCH  19  22
ATOM      2  O   UNL     1      -4.302 -12.839  16.075  0.00  0.00    -0.275 OA
ATOM      7  N   UNL     1      -5.568 -11.107  16.942  0.00  0.00    -0.297 N 
ATOM     22  C   UNL     1      -4.589 -11.637  16.095  0.00  0.00    +0.219 C 
BRANCH   7  25
ATOM     25  C   UNL     1      -6.288 -12.001  17.842  0.00  0.00    +0.136 C 
BRANCH  25  28
ATOM     28  C   UNL     1      -5.874 -11.791  19.287  0.00  0.00    +0.178 C 
BRANCH  28   4
ATOM      4  O   UNL     1      -7.034 -11.612  20.089  0.00  0.00    -0.381 OA
ATOM     35  C   UNL     1      -8.131 -12.369  19.596  0.00  0.00    +0.194 C 
ENDBRANCH  28   4
ENDBRANCH  25  28
ENDBRANCH   7  25
BRANCH   7  26
ATOM     26  C   UNL     1      -5.941  -9.698  17.052  0.00  0.00    +0.136 C 
BRANCH  26  29
ATOM     29  C   UNL     1      -7.448  -9.519  17.044  0.00  0.00    +0.178 C 
BRANCH  29   5
ATOM      5  O   UNL     1      -7.925  -9.593  15.706  0.00  0.00    -0.381 OA
ATOM     36  C   UNL     1      -8.941 -10.577  15.568  0.00  0.00    +0.194 C 
ENDBRANCH  29   5
ENDBRANCH  26  29
ENDBRANCH   7  26
ENDBRANCH  19  22
ENDBRANCH  13  19
TORSDOF 12
ENDMDL
MODEL 2
REMARK VINA RESULT:      -5.8      1.593      2.239
REMARK  Name = 45784365
REMARK  17 active torsions:
REMARK  status: ('A' for Active; 'I' for Inactive)
REMARK    1  A    between atoms: O_1  and  C_11
REMARK    2  A    between atoms: O_4  and  C_28
REMARK    3  A    between atoms: O_4  and  C_35
REMARK    4  A    between atoms: O_5  and  C_29
REMARK    5  A    between atoms: O_5  and  C_36
REMARK    6  A    between atoms: N_6  and  C_15
REMARK    7  A    between atoms: N_7  and  C_25
REMARK    8  A    between atoms: N_7  and  C_26
REMARK    9  A    between atoms: C_8  and  C_18
REMARK   10  A    between atoms: C_10  and  C_20
REMARK   11  A    between atoms: C_13  and  C_19
REMARK   12  A    between atoms: C_19  and  C_21
REMARK   13  A    between atoms: C_19  and  C_22
REMARK   14  A    between atoms: C_23  and  C_24
REMARK   15  A    between atoms: C_24  and  C_27
REMARK   16  A    between atoms: C_25  and  C_28
REMARK   17  A    between atoms: C_26  and  C_29
REMARK                            x       y       z     vdW  Elec       q    Type
REMARK                         _______ _______ _______ _____ _____    ______ ____
ROOT
ATOM      8  C   UNL     1      -4.038 -10.463  10.045  0.00  0.00    -0.027 C 
ATOM      9  C   UNL     1      -5.384 -10.180  10.790  0.00  0.00    +0.028 C 
ATOM     10  C   UNL     1      -6.218  -9.079  10.041  0.00  0.00    +0.012 C 
ATOM     11  C   UNL     1      -5.145  -9.922  12.306  0.00  0.00    +0.122 C 
ATOM     12  C   UNL     1      -3.297 -11.627  10.743  0.00  0.00    +0.007 C 
ATOM     13  C   UNL     1      -4.314 -11.040  12.976  0.00  0.00    +0.029 C 
ATOM     14  C   UNL     1      -4.347 -10.904   8.595  0.00  0.00    +0.009 C 
ATOM     15  C   UNL     1      -6.458  -9.498   8.564  0.00  0.00    +0.076 C 
ATOM     16  C   UNL     1      -3.026 -11.362  12.218  0.00  0.00    +0.007 C 
ATOM     17  C   UNL     1      -5.177  -9.885   7.826  0.00  0.00    +0.023 C 
ATOM     18  C   UNL     1      -3.104  -9.226  10.014  0.00  0.00    +0.011 C 
ATOM     20  C   UNL     1      -7.569  -8.770  10.706  0.00  0.00    +0.010 C 
ENDROOT
BRANCH  15   6
ATOM      3  O   UNL     1      -8.778  -9.793   6.886  0.00  0.00    -0.275 OA
ATOM      6  N   UNL     1      -7.123  -8.454   7.812  0.00  0.00    -0.312 N 
ATOM     23  C   UNL     1      -8.239  -8.698   7.028  0.00  0.00    +0.218 C 
ATOM     37  H   UNL     1      -6.706  -7.528   7.821  0.00  0.00    +0.149 HD
BRANCH  23  24
ATOM     24  C   UNL     1      -8.733  -7.429   6.359  0.00  0.00    +0.130 C 
BRANCH  24  27
ATOM     27  C   UNL     1      -8.835  -7.546   4.862  0.00  0.00    -0.039 A 
ATOM     30  C   UNL     1      -9.986  -7.108   4.205  0.00  0.00    +0.004 A 
ATOM     31  C   UNL     1      -7.781  -8.092   4.130  0.00  0.00    +0.004 A 
ATOM     32  C   UNL     1     -10.081  -7.217   2.817  0.00  0.00    +0.000 A 
ATOM     33  C   UNL     1      -7.877  -8.201   2.743  0.00  0.00    +0.000 A 
ATOM     34  C   UNL     1      -9.027  -7.762   2.087  0.00  0.00    +0.000 A 
ENDBRANCH  24  27
ENDBRANCH  23  24
ENDBRANCH  15   6
BRANCH  11   1
ATOM      1  O   UNL     1      -6.400  -9.883  12.987  0.00  0.00    -0.391 OA
ATOM     38  H   UNL     1      -6.473 -10.684  13.533  0.00  0.00    +0.210 HD
ENDBRANCH  11   1
BRANCH  13  19
ATOM     19  C   UNL     1      -3.978 -10.704  14.435  0.00  0.00    +0.078 C 
ATOM     21  C   UNL     1      -2.459 -10.655  14.610  0.00  0.00    +0.017 C 
BRANCH  19  22
ATOM      2  O   UNL     1      -4.304 -12.938  15.232  0.00  0.00    -0.275 OA
ATOM      7  N   UNL     1      -5.519 -11.299  16.324  0.00  0.00    -0.297 N 
ATOM     22  C   UNL     1      -4.605 -11.746  15.363  0.00  0.00    +0.219 C 
BRANCH   7  25
ATOM     25  C   UNL     1      -6.150 -12.270  17.210  0.00  0.00    +0.136 C 
BRANCH  25  28
ATOM     28  C   UNL     1      -5.411 -12.385  18.531  0.00  0.00    +0.178 C 
BRANCH  28   4
ATOM      4  O   UNL     1      -6.219 -11.855  19.572  0.00  0.00    -0.381 OA
ATOM     35  C   UNL     1      -7.551 -12.348  19.502  0.00  0.00    +0.194 C 
ENDBRANCH  28   4
ENDBRANCH  25  28
ENDBRANCH   7  25
BRANCH   7  26
ATOM     26  C   UNL     1      -5.901  -9.910  16.569  0.00  0.00    +0.136 C 
BRANCH  26  29
ATOM     29  C   UNL     1      -7.406  -9.759  16.694  0.00  0.00    +0.178 C 
BRANCH  29   5
ATOM      5  O   UNL     1      -7.996  -9.833  15.403  0.00  0.00    -0.381 OA
ATOM     36  C   UNL     1      -9.217  -9.107  15.344  0.00  0.00    +0.194 C 
ENDBRANCH  29   5
ENDBRANCH  26  29
ENDBRANCH   7  26
ENDBRANCH  19  22
ENDBRANCH  13  19
TORSDOF 12
ENDMDL
MODEL 3
REMARK VINA RESULT:      -5.8     24.171     27.282
REMARK  Name = 45784365
REMARK  17 active torsions:
REMARK  status: ('A' for Active; 'I' for Inactive)
REMARK    1  A    between atoms: O_1  and  C_11
REMARK    2  A    between atoms: O_4  and  C_28
REMARK    3  A    between atoms: O_4  and  C_35
REMARK    4  A    between atoms: O_5  and  C_29
REMARK    5  A    between atoms: O_5  and  C_36
REMARK    6  A    between atoms: N_6  and  C_15
REMARK    7  A    between atoms: N_7  and  C_25
REMARK    8  A    between atoms: N_7  and  C_26
REMARK    9  A    between atoms: C_8  and  C_18
REMARK   10  A    between atoms: C_10  and  C_20
REMARK   11  A    between atoms: C_13  and  C_19
REMARK   12  A    between atoms: C_19  and  C_21
REMARK   13  A    between atoms: C_19  and  C_22
REMARK   14  A    between atoms: C_23  and  C_24
REMARK   15  A    between atoms: C_24  and  C_27
REMARK   16  A    between atoms: C_25  and  C_28
REMARK   17  A    between atoms: C_26  and  C_29
REMARK                            x       y       z     vdW  Elec       q    Type
REMARK                         _______ _______ _______ _____ _____    ______ ____
ROOT
ATOM      8  C   UNL     1       9.527   6.130   6.001  0.00  0.00    -0.027 C 
ATOM      9  C   UNL     1      10.538   7.198   5.466  0.00  0.00    +0.028 C 
ATOM     10  C   UNL     1      10.090   8.647   5.875  0.00  0.00    +0.012 C 
ATOM     11  C   UNL     1      10.826   6.991   3.951  0.00  0.00    +0.122 C 
ATOM     12  C   UNL     1      10.056   4.712   5.679  0.00  0.00    +0.007 C 
ATOM     13  C   UNL     1      11.255   5.542   3.619  0.00  0.00    +0.029 C 
ATOM     14  C   UNL     1       9.428   6.257   7.539  0.00  0.00    +0.009 C 
ATOM     15  C   UNL     1       9.920   8.742   7.418  0.00  0.00    +0.076 C 
ATOM     16  C   UNL     1      10.303   4.493   4.193  0.00  0.00    +0.007 C 
ATOM     17  C   UNL     1       9.022   7.650   7.998  0.00  0.00    +0.023 C 
ATOM     18  C   UNL     1       8.115   6.286   5.384  0.00  0.00    +0.011 C 
ATOM     20  C   UNL     1      11.055   9.747   5.404  0.00  0.00    +0.010 C 
ENDROOT
BRANCH  15   6
ATOM      3  O   UNL     1      11.227  10.689   9.086  0.00  0.00    -0.275 OA
ATOM      6  N   UNL     1       9.395  10.030   7.820  0.00  0.00    -0.312 N 
ATOM     23  C   UNL     1      10.105  10.901   8.631  0.00  0.00    +0.218 C 
ATOM     37  H   UNL     1       8.447  10.261   7.542  0.00  0.00    +0.149 HD
BRANCH  23  24
ATOM     24  C   UNL     1       9.324  12.176   8.890  0.00  0.00    +0.130 C 
BRANCH  24  27
ATOM     27  C   UNL     1       9.423  12.657  10.313  0.00  0.00    -0.039 A 
ATOM     30  C   UNL     1       8.736  11.987  11.326  0.00  0.00    +0.004 A 
ATOM     31  C   UNL     1      10.201  13.774  10.620  0.00  0.00    +0.004 A 
ATOM     32  C   UNL     1       8.828  12.434  12.645  0.00  0.00    +0.000 A 
ATOM     33  C   UNL     1      10.293  14.220  11.938  0.00  0.00    +0.000 A 
ATOM     34  C   UNL     1       9.607  13.549  12.950  0.00  0.00    +0.000 A 
ENDBRANCH  24  27
ENDBRANCH  23  24
ENDBRANCH  15   6
BRANCH  11   1
ATOM      1  O   UNL     1      11.905   7.837   3.551  0.00  0.00    -0.391 OA
ATOM     38  H   UNL     1      12.438   7.357   2.894  0.00  0.00    +0.210 HD
ENDBRANCH  11   1
BRANCH  13  19
ATOM     19  C   UNL     1      11.407   5.325   2.108  0.00  0.00    +0.078 C 
ATOM     21  C   UNL     1      10.102   4.763   1.541  0.00  0.00    +0.017 C 
BRANCH  19  22
ATOM      2  O   UNL     1      12.441   3.167   2.044  0.00  0.00    -0.275 OA
ATOM      7  N   UNL     1      13.776   4.936   1.378  0.00  0.00    -0.297 N 
ATOM     22  C   UNL     1      12.578   4.377   1.838  0.00  0.00    +0.219 C 
BRANCH   7  25
ATOM     25  C   UNL     1      14.917   4.062   1.131  0.00  0.00    +0.136 C 
BRANCH  25  28
ATOM     28  C   UNL     1      15.243   3.974  -0.349  0.00  0.00    +0.178 C 
BRANCH  28   4
ATOM      4  O   UNL     1      16.653   3.961  -0.522  0.00  0.00    -0.381 OA
ATOM     35  C   UNL     1      17.083   4.998  -1.393  0.00  0.00    +0.194 C 
ENDBRANCH  28   4
ENDBRANCH  25  28
ENDBRANCH   7  25
BRANCH   7  26
ATOM     26  C   UNL     1      14.009   6.346   1.076  0.00  0.00    +0.136 C 
BRANCH  26  29
ATOM     29  C   UNL     1      15.035   6.955   2.014  0.00  0.00    +0.178 C 
BRANCH  29   5
ATOM      5  O   UNL     1      14.582   6.827   3.356  0.00  0.00    -0.381 OA
ATOM     36  C   UNL     1      15.590   7.201   4.285  0.00  0.00    +0.194 C 
ENDBRANCH  29   5
ENDBRANCH  26  29
ENDBRANCH   7  26
ENDBRANCH  19  22
ENDBRANCH  13  19
TORSDOF 12
ENDMDL
MODEL 4
REMARK VINA RESULT:      -5.6      2.030      9.345
REMARK  Name = 45784365
REMARK  17 active torsions:
REMARK  status: ('A' for Active; 'I' for Inactive)
REMARK    1  A    between atoms: O_1  and  C_11
REMARK    2  A    between atoms: O_4  and  C_28
REMARK    3  A    between atoms: O_4  and  C_35
REMARK    4  A    between atoms: O_5  and  C_29
REMARK    5  A    between atoms: O_5  and  C_36
REMARK    6  A    between atoms: N_6  and  C_15
REMARK    7  A    between atoms: N_7  and  C_25
REMARK    8  A    between atoms: N_7  and  C_26
REMARK    9  A    between atoms: C_8  and  C_18
REMARK   10  A    between atoms: C_10  and  C_20
REMARK   11  A    between atoms: C_13  and  C_19
REMARK   12  A    between atoms: C_19  and  C_21
REMARK   13  A    between atoms: C_19  and  C_22
REMARK   14  A    between atoms: C_23  and  C_24
REMARK   15  A    between atoms: C_24  and  C_27
REMARK   16  A    between atoms: C_25  and  C_28
REMARK   17  A    between atoms: C_26  and  C_29
REMARK                            x       y       z     vdW  Elec       q    Type
REMARK                         _______ _______ _______ _____ _____    ______ ____
ROOT
ATOM      8  C   UNL     1      -3.768 -10.166  10.792  0.00  0.00    -0.027 C 
ATOM      9  C   UNL     1      -5.020  -9.735  11.625  0.00  0.00    +0.028 C 
ATOM     10  C   UNL     1      -5.190 -10.649  12.892  0.00  0.00    +0.012 C 
ATOM     11  C   UNL     1      -6.281  -9.604  10.722  0.00  0.00    +0.122 C 
ATOM     12  C   UNL     1      -3.565  -9.179   9.618  0.00  0.00    +0.007 C 
ATOM     13  C   UNL     1      -6.040  -8.698   9.492  0.00  0.00    +0.029 C 
ATOM     14  C   UNL     1      -2.513 -10.090  11.692  0.00  0.00    +0.009 C 
ATOM     15  C   UNL     1      -3.895 -10.624  13.751  0.00  0.00    +0.076 C 
ATOM     16  C   UNL     1      -4.783  -9.077   8.709  0.00  0.00    +0.007 C 
ATOM     17  C   UNL     1      -2.630 -10.937  12.951  0.00  0.00    +0.023 C 
ATOM     18  C   UNL     1      -3.899 -11.599  10.219  0.00  0.00    +0.011 C 
ATOM     20  C   UNL     1      -6.389 -10.263  13.774  0.00  0.00    +0.010 C 
ENDROOT
BRANCH  15   6
ATOM      3  O   UNL     1      -4.018  -9.943  16.544  0.00  0.00    -0.275 OA
ATOM      6  N   UNL     1      -3.973 -11.545  14.865  0.00  0.00    -0.312 N 
ATOM     23  C   UNL     1      -4.028 -11.117  16.182  0.00  0.00    +0.218 C 
ATOM     37  H   UNL     1      -3.922 -12.539  14.660  0.00  0.00    +0.149 HD
BRANCH  23  24
ATOM     24  C   UNL     1      -4.110 -12.289  17.141  0.00  0.00    +0.130 C 
BRANCH  24  27
ATOM     27  C   UNL     1      -5.320 -12.243  18.036  0.00  0.00    -0.039 A 
ATOM     30  C   UNL     1      -6.479 -12.933  17.678  0.00  0.00    +0.004 A 
ATOM     31  C   UNL     1      -5.284 -11.510  19.222  0.00  0.00    +0.004 A 
ATOM     32  C   UNL     1      -7.601 -12.890  18.507  0.00  0.00    +0.000 A 
ATOM     33  C   UNL     1      -6.405 -11.467  20.050  0.00  0.00    +0.000 A 
ATOM     34  C   UNL     1      -7.563 -12.158  19.693  0.00  0.00    +0.000 A 
ENDBRANCH  24  27
ENDBRANCH  23  24
ENDBRANCH  15   6
BRANCH  11   1
ATOM      1  O   UNL     1      -7.342  -9.007  11.467  0.00  0.00    -0.391 OA
ATOM     38  H   UNL     1      -7.419  -9.478  12.314  0.00  0.00    +0.210 HD
ENDBRANCH  11   1
BRANCH  13  19
ATOM     19  C   UNL     1      -7.248  -8.687   8.547  0.00  0.00    +0.078 C 
ATOM     21  C   UNL     1      -6.837  -9.256   7.188  0.00  0.00    +0.017 C 
BRANCH  19  22
ATOM      2  O   UNL     1      -6.990  -6.311   8.404  0.00  0.00    -0.275 OA
ATOM      7  N   UNL     1      -9.167  -7.088   8.305  0.00  0.00    -0.297 N 
ATOM     22  C   UNL     1      -7.782  -7.260   8.407  0.00  0.00    +0.219 C 
BRANCH   7  25
ATOM     25  C   UNL     1      -9.709  -5.739   8.192  0.00  0.00    +0.136 C 
BRANCH  25  28
ATOM     28  C   UNL     1     -10.734  -5.456   9.276  0.00  0.00    +0.178 C 
BRANCH  28   4
ATOM      4  O   UNL     1     -11.000  -4.061   9.322  0.00  0.00    -0.381 OA
ATOM     35  C   UNL     1     -11.801  -3.719  10.444  0.00  0.00    +0.194 C 
ENDBRANCH  28   4
ENDBRANCH  25  28
ENDBRANCH   7  25
BRANCH   7  26
ATOM     26  C   UNL     1     -10.167  -8.154   8.265  0.00  0.00    +0.136 C 
BRANCH  26  29
ATOM     29  C   UNL     1     -10.862  -8.215   6.917  0.00  0.00    +0.178 C 
BRANCH  29   5
ATOM      5  O   UNL     1     -10.006  -8.846   5.973  0.00  0.00    -0.381 OA
ATOM     36  C   UNL     1      -9.738  -7.999   4.864  0.00  0.00    +0.194 C 
ENDBRANCH  29   5
ENDBRANCH  26  29
ENDBRANCH   7  26
ENDBRANCH  19  22
ENDBRANCH  13  19
TORSDOF 12
ENDMDL
MODEL 5
REMARK VINA RESULT:      -5.4     24.225     27.235
REMARK  Name = 45784365
REMARK  17 active torsions:
REMARK  status: ('A' for Active; 'I' for Inactive)
REMARK    1  A    between atoms: O_1  and  C_11
REMARK    2  A    between atoms: O_4  and  C_28
REMARK    3  A    between atoms: O_4  and  C_35
REMARK    4  A    between atoms: O_5  and  C_29
REMARK    5  A    between atoms: O_5  and  C_36
REMARK    6  A    between atoms: N_6  and  C_15
REMARK    7  A    between atoms: N_7  and  C_25
REMARK    8  A    between atoms: N_7  and  C_26
REMARK    9  A    between atoms: C_8  and  C_18
REMARK   10  A    between atoms: C_10  and  C_20
REMARK   11  A    between atoms: C_13  and  C_19
REMARK   12  A    between atoms: C_19  and  C_21
REMARK   13  A    between atoms: C_19  and  C_22
REMARK   14  A    between atoms: C_23  and  C_24
REMARK   15  A    between atoms: C_24  and  C_27
REMARK   16  A    between atoms: C_25  and  C_28
REMARK   17  A    between atoms: C_26  and  C_29
REMARK                            x       y       z     vdW  Elec       q    Type
REMARK                         _______ _______ _______ _____ _____    ______ ____
ROOT
ATOM      8  C   UNL     1       9.478   6.072   5.999  0.00  0.00    -0.027 C 
ATOM      9  C   UNL     1      10.494   7.159   5.515  0.00  0.00    +0.028 C 
ATOM     10  C   UNL     1      10.042   8.592   5.973  0.00  0.00    +0.012 C 
ATOM     11  C   UNL     1      10.800   7.007   3.996  0.00  0.00    +0.122 C 
ATOM     12  C   UNL     1      10.010   4.667   5.631  0.00  0.00    +0.007 C 
ATOM     13  C   UNL     1      11.231   5.572   3.616  0.00  0.00    +0.029 C 
ATOM     14  C   UNL     1       9.362   6.142   7.540  0.00  0.00    +0.009 C 
ATOM     15  C   UNL     1       9.856   8.630   7.515  0.00  0.00    +0.076 C 
ATOM     16  C   UNL     1      10.273   4.503   4.140  0.00  0.00    +0.007 C 
ATOM     17  C   UNL     1       8.951   7.518   8.045  0.00  0.00    +0.023 C 
ATOM     18  C   UNL     1       8.072   6.252   5.373  0.00  0.00    +0.011 C 
ATOM     20  C   UNL     1      11.013   9.708   5.552  0.00  0.00    +0.010 C 
ENDROOT
BRANCH  15   6
ATOM      3  O   UNL     1      11.236  10.622   9.067  0.00  0.00    -0.275 OA
ATOM      6  N   UNL     1       9.327   9.903   7.960  0.00  0.00    -0.312 N 
ATOM     23  C   UNL     1      10.075  10.798   8.707  0.00  0.00    +0.218 C 
ATOM     37  H   UNL     1       8.352  10.103   7.761  0.00  0.00    +0.149 HD
BRANCH  23  24
ATOM     24  C   UNL     1       9.279  12.049   9.030  0.00  0.00    +0.130 C 
BRANCH  24  27
ATOM     27  C   UNL     1       9.052  12.936   7.834  0.00  0.00    -0.039 A 
ATOM     30  C   UNL     1       7.797  13.504   7.616  0.00  0.00    +0.004 A 
ATOM     31  C   UNL     1      10.096  13.189   6.944  0.00  0.00    +0.004 A 
ATOM     32  C   UNL     1       7.586  14.326   6.508  0.00  0.00    +0.000 A 
ATOM     33  C   UNL     1       9.885  14.010   5.837  0.00  0.00    +0.000 A 
ATOM     34  C   UNL     1       8.630  14.579   5.619  0.00  0.00    +0.000 A 
ENDBRANCH  24  27
ENDBRANCH  23  24
ENDBRANCH  15   6
BRANCH  11   1
ATOM      1  O   UNL     1      11.883   7.867   3.640  0.00  0.00    -0.391 OA
ATOM     38  H   UNL     1      12.693   7.332   3.602  0.00  0.00    +0.210 HD
ENDBRANCH  11   1
BRANCH  13  19
ATOM     19  C   UNL     1      11.400   5.410   2.100  0.00  0.00    +0.078 C 
ATOM     21  C   UNL     1      10.115   4.832   1.503  0.00  0.00    +0.017 C 
BRANCH  19  22
ATOM      2  O   UNL     1      12.477   3.280   1.916  0.00  0.00    -0.275 OA
ATOM      7  N   UNL     1      13.802   5.116   1.439  0.00  0.00    -0.297 N 
ATOM     22  C   UNL     1      12.598   4.505   1.807  0.00  0.00    +0.219 C 
BRANCH   7  25
ATOM     25  C   UNL     1      14.969   4.282   1.174  0.00  0.00    +0.136 C 
BRANCH  25  28
ATOM     28  C   UNL     1      15.345   4.298  -0.297  0.00  0.00    +0.178 C 
BRANCH  28   4
ATOM      4  O   UNL     1      16.646   3.751  -0.458  0.00  0.00    -0.381 OA
ATOM     35  C   UNL     1      17.341   4.365  -1.535  0.00  0.00    +0.194 C 
ENDBRANCH  28   4
ENDBRANCH  25  28
ENDBRANCH   7  25
BRANCH   7  26
ATOM     26  C   UNL     1      14.021   6.549   1.254  0.00  0.00    +0.136 C 
BRANCH  26  29
ATOM     29  C   UNL     1      15.069   7.082   2.213  0.00  0.00    +0.178 C 
BRANCH  29   5
ATOM      5  O   UNL     1      14.640   6.863   3.551  0.00  0.00    -0.381 OA
ATOM     36  C   UNL     1      15.463   7.552   4.482  0.00  0.00    +0.194 C 
ENDBRANCH  29   5
ENDBRANCH  26  29
ENDBRANCH   7  26
ENDBRANCH  19  22
ENDBRANCH  13  19
TORSDOF 12
ENDMDL
MODEL 6
REMARK VINA RESULT:      -5.3     19.168     22.521
REMARK  Name = 45784365
REMARK  17 active torsions:
REMARK  status: ('A' for Active; 'I' for Inactive)
REMARK    1  A    between atoms: O_1  and  C_11
REMARK    2  A    between atoms: O_4  and  C_28
REMARK    3  A    between atoms: O_4  and  C_35
REMARK    4  A    between atoms: O_5  and  C_29
REMARK    5  A    between atoms: O_5  and  C_36
REMARK    6  A    between atoms: N_6  and  C_15
REMARK    7  A    between atoms: N_7  and  C_25
REMARK    8  A    between atoms: N_7  and  C_26
REMARK    9  A    between atoms: C_8  and  C_18
REMARK   10  A    between atoms: C_10  and  C_20
REMARK   11  A    between atoms: C_13  and  C_19
REMARK   12  A    between atoms: C_19  and  C_21
REMARK   13  A    between atoms: C_19  and  C_22
REMARK   14  A    between atoms: C_23  and  C_24
REMARK   15  A    between atoms: C_24  and  C_27
REMARK   16  A    between atoms: C_25  and  C_28
REMARK   17  A    between atoms: C_26  and  C_29
REMARK                            x       y       z     vdW  Elec       q    Type
REMARK                         _______ _______ _______ _____ _____    ______ ____
ROOT
ATOM      8  C   UNL     1     -17.941   4.422  21.444  0.00  0.00    -0.027 C 
ATOM      9  C   UNL     1     -16.613   4.607  22.251  0.00  0.00    +0.028 C 
ATOM     10  C   UNL     1     -16.810   4.195  23.754  0.00  0.00    +0.012 C 
ATOM     11  C   UNL     1     -16.006   6.022  22.020  0.00  0.00    +0.122 C 
ATOM     12  C   UNL     1     -17.684   4.728  19.950  0.00  0.00    +0.007 C 
ATOM     13  C   UNL     1     -15.849   6.364  20.520  0.00  0.00    +0.029 C 
ATOM     14  C   UNL     1     -18.394   2.947  21.551  0.00  0.00    +0.009 C 
ATOM     15  C   UNL     1     -17.337   2.736  23.847  0.00  0.00    +0.076 C 
ATOM     16  C   UNL     1     -17.127   6.125  19.716  0.00  0.00    +0.007 C 
ATOM     17  C   UNL     1     -18.576   2.482  22.989  0.00  0.00    +0.023 C 
ATOM     18  C   UNL     1     -19.079   5.344  21.952  0.00  0.00    +0.011 C 
ATOM     20  C   UNL     1     -15.533   4.327  24.601  0.00  0.00    +0.010 C 
ENDROOT
BRANCH  15   6
ATOM      3  O   UNL     1     -16.164   0.574  25.342  0.00  0.00    -0.275 OA
ATOM      6  N   UNL     1     -17.640   2.362  25.213  0.00  0.00    -0.312 N 
ATOM     23  C   UNL     1     -17.018   1.299  25.848  0.00  0.00    +0.218 C 
ATOM     37  H   UNL     1     -18.382   2.868  25.687  0.00  0.00    +0.149 HD
BRANCH  23  24
ATOM     24  C   UNL     1     -17.519   1.135  27.270  0.00  0.00    +0.130 C 
BRANCH  24  27
ATOM     27  C   UNL     1     -16.541   1.621  28.307  0.00  0.00    -0.039 A 
ATOM     30  C   UNL     1     -16.159   2.963  28.331  0.00  0.00    +0.004 A 
ATOM     31  C   UNL     1     -16.016   0.731  29.243  0.00  0.00    +0.004 A 
ATOM     32  C   UNL     1     -15.252   3.413  29.291  0.00  0.00    +0.000 A 
ATOM     33  C   UNL     1     -15.109   1.181  30.202  0.00  0.00    +0.000 A 
ATOM     34  C   UNL     1     -14.728   2.522  30.226  0.00  0.00    +0.000 A 
ENDBRANCH  24  27
ENDBRANCH  23  24
ENDBRANCH  15   6
BRANCH  11   1
ATOM      1  O   UNL     1     -14.699   6.079  22.591  0.00  0.00    -0.391 OA
ATOM     38  H   UNL     1     -14.439   7.013  22.659  0.00  0.00    +0.210 HD
ENDBRANCH  11   1
BRANCH  13  19
ATOM     19  C   UNL     1     -15.373   7.807  20.311  0.00  0.00    +0.078 C 
ATOM     21  C   UNL     1     -16.580   8.747  20.322  0.00  0.00    +0.017 C 
BRANCH  19  22
ATOM      2  O   UNL     1     -15.227   7.907  17.924  0.00  0.00    -0.275 OA
ATOM      7  N   UNL     1     -13.210   7.996  19.054  0.00  0.00    -0.297 N 
ATOM     22  C   UNL     1     -14.606   7.913  18.992  0.00  0.00    +0.219 C 
BRANCH   7  25
ATOM     25  C   UNL     1     -12.448   8.077  17.813  0.00  0.00    +0.136 C 
BRANCH  25  28
ATOM     28  C   UNL     1     -11.031   7.564  17.994  0.00  0.00    +0.178 C 
BRANCH  28   4
ATOM      4  O   UNL     1     -10.179   8.182  17.038  0.00  0.00    -0.381 OA
ATOM     35  C   UNL     1     -10.555   9.531  16.799  0.00  0.00    +0.194 C 
ENDBRANCH  28   4
ENDBRANCH  25  28
ENDBRANCH   7  25
BRANCH   7  26
ATOM     26  C   UNL     1     -12.403   8.046  20.271  0.00  0.00    +0.136 C 
BRANCH  26  29
ATOM     29  C   UNL     1     -12.410   9.432  20.889  0.00  0.00    +0.178 C 
BRANCH  29   5
ATOM      5  O   UNL     1     -11.447  10.246  20.233  0.00  0.00    -0.381 OA
ATOM     36  C   UNL     1     -12.020  11.458  19.763  0.00  0.00    +0.194 C 
ENDBRANCH  29   5
ENDBRANCH  26  29
ENDBRANCH   7  26
ENDBRANCH  19  22
ENDBRANCH  13  19
TORSDOF 12
ENDMDL
MODEL 7
REMARK VINA RESULT:      -5.3     24.832     27.720
REMARK  Name = 45784365
REMARK  17 active torsions:
REMARK  status: ('A' for Active; 'I' for Inactive)
REMARK    1  A    between atoms: O_1  and  C_11
REMARK    2  A    between atoms: O_4  and  C_28
REMARK    3  A    between atoms: O_4  and  C_35
REMARK    4  A    between atoms: O_5  and  C_29
REMARK    5  A    between atoms: O_5  and  C_36
REMARK    6  A    between atoms: N_6  and  C_15
REMARK    7  A    between atoms: N_7  and  C_25
REMARK    8  A    between atoms: N_7  and  C_26
REMARK    9  A    between atoms: C_8  and  C_18
REMARK   10  A    between atoms: C_10  and  C_20
REMARK   11  A    between atoms: C_13  and  C_19
REMARK   12  A    between atoms: C_19  and  C_21
REMARK   13  A    between atoms: C_19  and  C_22
REMARK   14  A    between atoms: C_23  and  C_24
REMARK   15  A    between atoms: C_24  and  C_27
REMARK   16  A    between atoms: C_25  and  C_28
REMARK   17  A    between atoms: C_26  and  C_29
REMARK                            x       y       z     vdW  Elec       q    Type
REMARK                         _______ _______ _______ _____ _____    ______ ____
ROOT
ATOM      8  C   UNL     1       9.619   6.869   6.657  0.00  0.00    -0.027 C 
ATOM      9  C   UNL     1      10.644   7.574   5.709  0.00  0.00    +0.028 C 
ATOM     10  C   UNL     1      11.535   6.516   4.964  0.00  0.00    +0.012 C 
ATOM     11  C   UNL     1      11.422   8.696   6.454  0.00  0.00    +0.122 C 
ATOM     12  C   UNL     1       8.685   7.930   7.286  0.00  0.00    +0.007 C 
ATOM     13  C   UNL     1      10.484   9.696   7.169  0.00  0.00    +0.029 C 
ATOM     14  C   UNL     1       8.741   5.906   5.825  0.00  0.00    +0.009 C 
ATOM     15  C   UNL     1      10.640   5.507   4.191  0.00  0.00    +0.076 C 
ATOM     16  C   UNL     1       9.440   9.010   8.050  0.00  0.00    +0.007 C 
ATOM     17  C   UNL     1       9.553   4.871   5.058  0.00  0.00    +0.023 C 
ATOM     18  C   UNL     1      10.309   6.076   7.796  0.00  0.00    +0.011 C 
ATOM     20  C   UNL     1      12.550   7.140   3.992  0.00  0.00    +0.010 C 
ENDROOT
BRANCH  15   6
ATOM      3  O   UNL     1      10.342   4.442   1.534  0.00  0.00    -0.275 OA
ATOM      6  N   UNL     1      11.423   4.448   3.588  0.00  0.00    -0.312 N 
ATOM     23  C   UNL     1      11.201   4.003   2.295  0.00  0.00    +0.218 C 
ATOM     37  H   UNL     1      12.114   3.983   4.169  0.00  0.00    +0.149 HD
BRANCH  23  24
ATOM     24  C   UNL     1      12.166   2.895   1.918  0.00  0.00    +0.130 C 
BRANCH  24  27
ATOM     27  C   UNL     1      13.268   3.350   0.999  0.00  0.00    -0.039 A 
ATOM     30  C   UNL     1      13.011   3.536  -0.360  0.00  0.00    +0.004 A 
ATOM     31  C   UNL     1      14.546   3.586   1.505  0.00  0.00    +0.004 A 
ATOM     32  C   UNL     1      14.033   3.958  -1.211  0.00  0.00    +0.000 A 
ATOM     33  C   UNL     1      15.567   4.007   0.654  0.00  0.00    +0.000 A 
ATOM     34  C   UNL     1      15.310   4.194  -0.705  0.00  0.00    +0.000 A 
ENDBRANCH  24  27
ENDBRANCH  23  24
ENDBRANCH  15   6
BRANCH  11   1
ATOM      1  O   UNL     1      12.185   9.453   5.513  0.00  0.00    -0.391 OA
ATOM     38  H   UNL     1      12.659   8.830   4.938  0.00  0.00    +0.210 HD
ENDBRANCH  11   1
BRANCH  13  19
ATOM     19  C   UNL     1      11.268  10.716   8.005  0.00  0.00    +0.078 C 
ATOM     21  C   UNL     1      10.525  10.980   9.315  0.00  0.00    +0.017 C 
BRANCH  19  22
ATOM      2  O   UNL     1      10.456  12.613   6.791  0.00  0.00    -0.275 OA
ATOM      7  N   UNL     1      12.757  12.445   6.961  0.00  0.00    -0.297 N 
ATOM     22  C   UNL     1      11.451  12.008   7.206  0.00  0.00    +0.219 C 
BRANCH   7  25
ATOM     25  C   UNL     1      12.966  13.662   6.185  0.00  0.00    +0.136 C 
BRANCH  25  28
ATOM     28  C   UNL     1      13.639  13.368   4.856  0.00  0.00    +0.178 C 
BRANCH  28   4
ATOM      4  O   UNL     1      12.954  12.308   4.204  0.00  0.00    -0.381 OA
ATOM     35  C   UNL     1      13.764  11.698   3.208  0.00  0.00    +0.194 C 
ENDBRANCH  28   4
ENDBRANCH  25  28
ENDBRANCH   7  25
BRANCH   7  26
ATOM     26  C   UNL     1      13.983  11.812   7.444  0.00  0.00    +0.136 C 
BRANCH  26  29
ATOM     29  C   UNL     1      14.661  12.651   8.511  0.00  0.00    +0.178 C 
BRANCH  29   5
ATOM      5  O   UNL     1      16.001  12.919   8.120  0.00  0.00    -0.381 OA
ATOM     36  C   UNL     1      16.914  12.671   9.180  0.00  0.00    +0.194 C 
ENDBRANCH  29   5
ENDBRANCH  26  29
ENDBRANCH   7  26
ENDBRANCH  19  22
ENDBRANCH  13  19
TORSDOF 12
ENDMDL
MODEL 8
REMARK VINA RESULT:      -5.3     19.519     21.730
REMARK  Name = 45784365
REMARK  17 active torsions:
REMARK  status: ('A' for Active; 'I' for Inactive)
REMARK    1  A    between atoms: O_1  and  C_11
REMARK    2  A    between atoms: O_4  and  C_28
REMARK    3  A    between atoms: O_4  and  C_35
REMARK    4  A    between atoms: O_5  and  C_29
REMARK    5  A    between atoms: O_5  and  C_36
REMARK    6  A    between atoms: N_6  and  C_15
REMARK    7  A    between atoms: N_7  and  C_25
REMARK    8  A    between atoms: N_7  and  C_26
REMARK    9  A    between atoms: C_8  and  C_18
REMARK   10  A    between atoms: C_10  and  C_20
REMARK   11  A    between atoms: C_13  and  C_19
REMARK   12  A    between atoms: C_19  and  C_21
REMARK   13  A    between atoms: C_19  and  C_22
REMARK   14  A    between atoms: C_23  and  C_24
REMARK   15  A    between atoms: C_24  and  C_27
REMARK   16  A    between atoms: C_25  and  C_28
REMARK   17  A    between atoms: C_26  and  C_29
REMARK                            x       y       z     vdW  Elec       q    Type
REMARK                         _______ _______ _______ _____ _____    ______ ____
ROOT
ATOM      8  C   UNL     1     -16.956   6.485  22.865  0.00  0.00    -0.027 C 
ATOM      9  C   UNL     1     -15.709   5.758  23.469  0.00  0.00    +0.028 C 
ATOM     10  C   UNL     1     -14.608   5.530  22.371  0.00  0.00    +0.012 C 
ATOM     11  C   UNL     1     -16.128   4.490  24.268  0.00  0.00    +0.122 C 
ATOM     12  C   UNL     1     -17.969   6.794  23.993  0.00  0.00    +0.007 C 
ATOM     13  C   UNL     1     -17.218   4.785  25.324  0.00  0.00    +0.029 C 
ATOM     14  C   UNL     1     -16.507   7.833  22.255  0.00  0.00    +0.009 C 
ATOM     15  C   UNL     1     -14.219   6.883  21.711  0.00  0.00    +0.076 C 
ATOM     16  C   UNL     1     -18.412   5.550  24.752  0.00  0.00    +0.007 C 
ATOM     17  C   UNL     1     -15.421   7.678  21.200  0.00  0.00    +0.023 C 
ATOM     18  C   UNL     1     -17.666   5.642  21.776  0.00  0.00    +0.011 C 
ATOM     20  C   UNL     1     -13.340   4.843  22.903  0.00  0.00    +0.010 C 
ENDROOT
BRANCH  15   6
ATOM      3  O   UNL     1     -12.028   8.607  20.996  0.00  0.00    -0.275 OA
ATOM      6  N   UNL     1     -13.292   6.697  20.615  0.00  0.00    -0.312 N 
ATOM     23  C   UNL     1     -12.264   7.588  20.350  0.00  0.00    +0.218 C 
ATOM     37  H   UNL     1     -13.453   5.914  19.989  0.00  0.00    +0.149 HD
BRANCH  23  24
ATOM     24  C   UNL     1     -11.445   7.148  19.152  0.00  0.00    +0.130 C 
BRANCH  24  27
ATOM     27  C   UNL     1     -11.311   8.214  18.097  0.00  0.00    -0.039 A 
ATOM     30  C   UNL     1     -10.160   9.000  18.042  0.00  0.00    +0.004 A 
ATOM     31  C   UNL     1     -12.338   8.416  17.175  0.00  0.00    +0.004 A 
ATOM     32  C   UNL     1     -10.036   9.988  17.064  0.00  0.00    +0.000 A 
ATOM     33  C   UNL     1     -12.213   9.404  16.198  0.00  0.00    +0.000 A 
ATOM     34  C   UNL     1     -11.062  10.189  16.143  0.00  0.00    +0.000 A 
ENDBRANCH  24  27
ENDBRANCH  23  24
ENDBRANCH  15   6
BRANCH  11   1
ATOM      1  O   UNL     1     -14.999   3.979  24.978  0.00  0.00    -0.391 OA
ATOM     38  H   UNL     1     -14.686   4.671  25.586  0.00  0.00    +0.210 HD
ENDBRANCH  11   1
BRANCH  13  19
ATOM     19  C   UNL     1     -17.710   3.504  26.009  0.00  0.00    +0.078 C 
ATOM     21  C   UNL     1     -18.995   3.025  25.329  0.00  0.00    +0.017 C 
BRANCH  19  22
ATOM      2  O   UNL     1     -18.901   4.466  27.850  0.00  0.00    -0.275 OA
ATOM      7  N   UNL     1     -17.034   3.218  28.408  0.00  0.00    -0.297 N 
ATOM     22  C   UNL     1     -17.942   3.770  27.498  0.00  0.00    +0.219 C 
BRANCH   7  25
ATOM     25  C   UNL     1     -17.214   3.470  29.833  0.00  0.00    +0.136 C 
BRANCH  25  28
ATOM     28  C   UNL     1     -16.017   4.188  30.430  0.00  0.00    +0.178 C 
BRANCH  28   4
ATOM      4  O   UNL     1     -16.161   4.253  31.842  0.00  0.00    -0.381 OA
ATOM     35  C   UNL     1     -15.496   3.174  32.485  0.00  0.00    +0.194 C 
ENDBRANCH  28   4
ENDBRANCH  25  28
ENDBRANCH   7  25
BRANCH   7  26
ATOM     26  C   UNL     1     -15.899   2.358  28.079  0.00  0.00    +0.136 C 
BRANCH  26  29
ATOM     29  C   UNL     1     -16.210   0.897  28.351  0.00  0.00    +0.178 C 
BRANCH  29   5
ATOM      5  O   UNL     1     -15.158   0.325  29.118  0.00  0.00    -0.381 OA
ATOM     36  C   UNL     1     -15.577   0.035  30.444  0.00  0.00    +0.194 C 
ENDBRANCH  29   5
ENDBRANCH  26  29
ENDBRANCH   7  26
ENDBRANCH  19  22
ENDBRANCH  13  19
TORSDOF 12
ENDMDL
MODEL 9
REMARK VINA RESULT:      -5.1     18.748     22.026
REMARK  Name = 45784365
REMARK  17 active torsions:
REMARK  status: ('A' for Active; 'I' for Inactive)
REMARK    1  A    between atoms: O_1  and  C_11
REMARK    2  A    between atoms: O_4  and  C_28
REMARK    3  A    between atoms: O_4  and  C_35
REMARK    4  A    between atoms: O_5  and  C_29
REMARK    5  A    between atoms: O_5  and  C_36
REMARK    6  A    between atoms: N_6  and  C_15
REMARK    7  A    between atoms: N_7  and  C_25
REMARK    8  A    between atoms: N_7  and  C_26
REMARK    9  A    between atoms: C_8  and  C_18
REMARK   10  A    between atoms: C_10  and  C_20
REMARK   11  A    between atoms: C_13  and  C_19
REMARK   12  A    between atoms: C_19  and  C_21
REMARK   13  A    between atoms: C_19  and  C_22
REMARK   14  A    between atoms: C_23  and  C_24
REMARK   15  A    between atoms: C_24  and  C_27
REMARK   16  A    between atoms: C_25  and  C_28
REMARK   17  A    between atoms: C_26  and  C_29
REMARK                            x       y       z     vdW  Elec       q    Type
REMARK                         _______ _______ _______ _____ _____    ______ ____
ROOT
ATOM      8  C   UNL     1     -12.846   8.274  20.688  0.00  0.00    -0.027 C 
ATOM      9  C   UNL     1     -13.982   8.157  19.618  0.00  0.00    +0.028 C 
ATOM     10  C   UNL     1     -15.048   7.085  20.048  0.00  0.00    +0.012 C 
ATOM     11  C   UNL     1     -13.393   7.977  18.189  0.00  0.00    +0.122 C 
ATOM     12  C   UNL     1     -11.878   9.413  20.290  0.00  0.00    +0.007 C 
ATOM     13  C   UNL     1     -12.348   9.059  17.835  0.00  0.00    +0.029 C 
ATOM     14  C   UNL     1     -13.475   8.646  22.051  0.00  0.00    +0.009 C 
ATOM     15  C   UNL     1     -15.618   7.428  21.453  0.00  0.00    +0.076 C 
ATOM     16  C   UNL     1     -11.270   9.220  18.907  0.00  0.00    +0.007 C 
ATOM     17  C   UNL     1     -14.536   7.656  22.509  0.00  0.00    +0.023 C 
ATOM     18  C   UNL     1     -12.035   6.962  20.840  0.00  0.00    +0.011 C 
ATOM     20  C   UNL     1     -16.210   6.938  19.053  0.00  0.00    +0.010 C 
ENDROOT
BRANCH  15   6
ATOM      3  O   UNL     1     -14.970   4.668  21.950  0.00  0.00    -0.275 OA
ATOM      6  N   UNL     1     -16.517   6.399  21.932  0.00  0.00    -0.312 N 
ATOM     23  C   UNL     1     -16.107   5.092  22.141  0.00  0.00    +0.218 C 
ATOM     37  H   UNL     1     -17.494   6.647  22.055  0.00  0.00    +0.149 HD
BRANCH  23  24
ATOM     24  C   UNL     1     -17.248   4.230  22.648  0.00  0.00    +0.130 C 
BRANCH  24  27
ATOM     27  C   UNL     1     -16.997   3.654  24.016  0.00  0.00    -0.039 A 
ATOM     30  C   UNL     1     -16.693   4.499  25.084  0.00  0.00    +0.004 A 
ATOM     31  C   UNL     1     -17.068   2.275  24.217  0.00  0.00    +0.004 A 
ATOM     32  C   UNL     1     -16.460   3.965  26.352  0.00  0.00    +0.000 A 
ATOM     33  C   UNL     1     -16.835   1.742  25.485  0.00  0.00    +0.000 A 
ATOM     34  C   UNL     1     -16.532   2.587  26.552  0.00  0.00    +0.000 A 
ENDBRANCH  24  27
ENDBRANCH  23  24
ENDBRANCH  15   6
BRANCH  11   1
ATOM      1  O   UNL     1     -14.440   8.090  17.224  0.00  0.00    -0.391 OA
ATOM     38  H   UNL     1     -14.062   7.913  16.346  0.00  0.00    +0.210 HD
ENDBRANCH  11   1
BRANCH  13  19
ATOM     19  C   UNL     1     -11.685   8.790  16.479  0.00  0.00    +0.078 C 
ATOM     21  C   UNL     1     -10.169   8.949  16.612  0.00  0.00    +0.017 C 
BRANCH  19  22
ATOM      2  O   UNL     1     -12.416  10.939  15.718  0.00  0.00    -0.275 OA
ATOM      7  N   UNL     1     -12.570   9.225  14.171  0.00  0.00    -0.297 N 
ATOM     22  C   UNL     1     -12.248   9.750  15.428  0.00  0.00    +0.219 C 
BRANCH   7  25
ATOM     25  C   UNL     1     -13.129  10.109  13.155  0.00  0.00    +0.136 C 
BRANCH  25  28
ATOM     28  C   UNL     1     -12.127  10.396  12.051  0.00  0.00    +0.178 C 
BRANCH  28   4
ATOM      4  O   UNL     1     -12.647   9.938  10.811  0.00  0.00    -0.381 OA
ATOM     35  C   UNL     1     -12.083  10.646   9.715  0.00  0.00    +0.194 C 
ENDBRANCH  28   4
ENDBRANCH  25  28
ENDBRANCH   7  25
BRANCH   7  26
ATOM     26  C   UNL     1     -12.370   7.844  13.737  0.00  0.00    +0.136 C 
BRANCH  26  29
ATOM     29  C   UNL     1     -13.681   7.187  13.346  0.00  0.00    +0.178 C 
BRANCH  29   5
ATOM      5  O   UNL     1     -14.475   6.990  14.509  0.00  0.00    -0.381 OA
ATOM     36  C   UNL     1     -15.791   6.568  14.177  0.00  0.00    +0.194 C 
ENDBRANCH  29   5
ENDBRANCH  26  29
ENDBRANCH   7  26
ENDBRANCH  19  22
ENDBRANCH  13  19
TORSDOF 12
ENDMDL
MODEL 10
REMARK VINA RESULT:      -5.1      4.470      8.022
REMARK  Name = 45784365
REMARK  17 active torsions:
REMARK  status: ('A' for Active; 'I' for Inactive)
REMARK    1  A    between atoms: O_1  and  C_11
REMARK    2  A    between atoms: O_4  and  C_28
REMARK    3  A    between atoms: O_4  and  C_35
REMARK    4  A    between atoms: O_5  and  C_29
REMARK    5  A    between atoms: O_5  and  C_36
REMARK    6  A    between atoms: N_6  and  C_15
REMARK    7  A    between atoms: N_7  and  C_25
REMARK    8  A    between atoms: N_7  and  C_26
REMARK    9  A    between atoms: C_8  and  C_18
REMARK   10  A    between atoms: C_10  and  C_20
REMARK   11  A    between atoms: C_13  and  C_19
REMARK   12  A    between atoms: C_19  and  C_21
REMARK   13  A    between atoms: C_19  and  C_22
REMARK   14  A    between atoms: C_23  and  C_24
REMARK   15  A    between atoms: C_24  and  C_27
REMARK   16  A    between atoms: C_25  and  C_28
REMARK   17  A    between atoms: C_26  and  C_29
REMARK                            x       y       z     vdW  Elec       q    Type
REMARK                         _______ _______ _______ _____ _____    ______ ____
ROOT
ATOM      8  C   UNL     1      -4.280 -10.981  16.230  0.00  0.00    -0.027 C 
ATOM      9  C   UNL     1      -4.929 -10.354  14.951  0.00  0.00    +0.028 C 
ATOM     10  C   UNL     1      -6.483 -10.586  14.941  0.00  0.00    +0.012 C 
ATOM     11  C   UNL     1      -4.179 -10.800  13.663  0.00  0.00    +0.122 C 
ATOM     12  C   UNL     1      -2.772 -10.637  16.264  0.00  0.00    +0.007 C 
ATOM     13  C   UNL     1      -2.655 -10.550  13.745  0.00  0.00    +0.029 C 
ATOM     14  C   UNL     1      -4.933 -10.355  17.484  0.00  0.00    +0.009 C 
ATOM     15  C   UNL     1      -7.119 -10.020  16.242  0.00  0.00    +0.076 C 
ATOM     16  C   UNL     1      -2.027 -11.107  15.022  0.00  0.00    +0.007 C 
ATOM     17  C   UNL     1      -6.446 -10.526  17.518  0.00  0.00    +0.023 C 
ATOM     18  C   UNL     1      -4.441 -12.521  16.285  0.00  0.00    +0.011 C 
ATOM     20  C   UNL     1      -7.190  -9.970  13.723  0.00  0.00    +0.010 C 
ENDROOT
BRANCH  15   6
ATOM      3  O   UNL     1      -9.243  -8.166  16.819  0.00  0.00    -0.275 OA
ATOM      6  N   UNL     1      -8.534 -10.320  16.320  0.00  0.00    -0.312 N 
ATOM     23  C   UNL     1      -9.484  -9.352  16.607  0.00  0.00    +0.218 C 
ATOM     37  H   UNL     1      -8.816 -11.290  16.221  0.00  0.00    +0.149 HD
BRANCH  23  24
ATOM     24  C   UNL     1     -10.883  -9.939  16.620  0.00  0.00    +0.130 C 
BRANCH  24  27
ATOM     27  C   UNL     1     -11.528  -9.912  17.980  0.00  0.00    -0.039 A 
ATOM     30  C   UNL     1     -12.893  -9.649  18.100  0.00  0.00    +0.004 A 
ATOM     31  C   UNL     1     -10.761 -10.148  19.121  0.00  0.00    +0.004 A 
ATOM     32  C   UNL     1     -13.490  -9.624  19.361  0.00  0.00    +0.000 A 
ATOM     33  C   UNL     1     -11.359 -10.122  20.381  0.00  0.00    +0.000 A 
ATOM     34  C   UNL     1     -12.723  -9.860  20.501  0.00  0.00    +0.000 A 
ENDBRANCH  24  27
ENDBRANCH  23  24
ENDBRANCH  15   6
BRANCH  11   1
ATOM      1  O   UNL     1      -4.657 -10.047  12.548  0.00  0.00    -0.391 OA
ATOM     38  H   UNL     1      -5.171  -9.296  12.889  0.00  0.00    +0.210 HD
ENDBRANCH  11   1
BRANCH  13  19
ATOM     19  C   UNL     1      -1.918 -11.114  12.523  0.00  0.00    +0.078 C 
ATOM     21  C   UNL     1      -1.652  -9.988  11.523  0.00  0.00    +0.017 C 
BRANCH  19  22
ATOM      2  O   UNL     1      -3.545 -11.955  10.981  0.00  0.00    -0.275 OA
ATOM      7  N   UNL     1      -2.584 -13.529  12.378  0.00  0.00    -0.297 N 
ATOM     22  C   UNL     1      -2.750 -12.230  11.887  0.00  0.00    +0.219 C 
BRANCH   7  25
ATOM     25  C   UNL     1      -3.378 -14.611  11.807  0.00  0.00    +0.136 C 
BRANCH  25  28
ATOM     28  C   UNL     1      -4.653 -14.845  12.596  0.00  0.00    +0.178 C 
BRANCH  28   4
ATOM      4  O   UNL     1      -4.569 -16.093  13.270  0.00  0.00    -0.381 OA
ATOM     35  C   UNL     1      -4.797 -15.950  14.666  0.00  0.00    +0.194 C 
ENDBRANCH  28   4
ENDBRANCH  25  28
ENDBRANCH   7  25
BRANCH   7  26
ATOM     26  C   UNL     1      -1.644 -13.944  13.417  0.00  0.00    +0.136 C 
BRANCH  26  29
ATOM     29  C   UNL     1      -1.024 -15.293  13.102  0.00  0.00    +0.178 C 
BRANCH  29   5
ATOM      5  O   UNL     1      -0.960 -16.073  14.289  0.00  0.00    -0.381 OA
ATOM     36  C   UNL     1      -1.360 -17.416  14.053  0.00  0.00    +0.194 C 
ENDBRANCH  29   5
ENDBRANCH  26  29
ENDBRANCH   7  26
ENDBRANCH  19  22
ENDBRANCH  13  19
TORSDOF 12
ENDMDL
