MODEL 1
REMARK VINA RESULT:      -7.7      0.000      0.000
REMARK  Name = 71693828
REMARK  6 active torsions:
REMARK  status: ('A' for Active; 'I' for Inactive)
REMARK    1  A    between atoms: O_1  and  C_6
REMARK    2  A    between atoms: O_2  and  C_8
REMARK    3  A    between atoms: N_3  and  C_4
REMARK    4  A    between atoms: N_3  and  C_10
REMARK    5  A    between atoms: C_5  and  C_15
REMARK    6  A    between atoms: C_9  and  C_10
REMARK                            x       y       z     vdW  Elec       q    Type
REMARK                         _______ _______ _______ _____ _____    ______ ____
ROOT
ATOM      4  C   UNL     1      13.025   7.137  20.918  0.00  0.00    +0.092 C 
ATOM      5  C   UNL     1      12.432   8.513  20.483  0.00  0.00    +0.041 C 
ATOM      6  C   UNL     1      11.834   6.347  21.484  0.00  0.00    +0.160 C 
ATOM      7  C   UNL     1      10.933   8.455  20.836  0.00  0.00    +0.043 C 
ATOM      8  C   UNL     1      10.868   7.428  21.957  0.00  0.00    +0.145 C 
ENDROOT
BRANCH   5  15
ATOM     15  C   UNL     1      12.690   8.867  19.034  0.00  0.00    -0.043 A 
ATOM     16  C   UNL     1      13.886   9.484  18.668  0.00  0.00    +0.004 A 
ATOM     17  C   UNL     1      11.731   8.575  18.064  0.00  0.00    +0.004 A 
ATOM     18  C   UNL     1      14.123   9.810  17.332  0.00  0.00    +0.000 A 
ATOM     19  C   UNL     1      11.968   8.901  16.729  0.00  0.00    +0.000 A 
ATOM     20  C   UNL     1      13.164   9.518  16.363  0.00  0.00    +0.000 A 
ENDBRANCH   5  15
BRANCH   6   1
ATOM      1  O   UNL     1      11.258   5.582  20.426  0.00  0.00    -0.388 OA
ATOM     22  H   UNL     1      11.954   4.999  20.076  0.00  0.00    +0.210 HD
ENDBRANCH   6   1
BRANCH   8   2
ATOM      2  O   UNL     1       9.553   6.942  22.136  0.00  0.00    -0.389 OA
ATOM     23  H   UNL     1       9.613   5.982  22.277  0.00  0.00    +0.210 HD
ENDBRANCH   8   2
BRANCH   4   3
ATOM      3  N   UNL     1      14.029   7.343  21.963  0.00  0.00    -0.310 NA
ATOM     21  H   UNL     1      14.226   6.459  22.432  0.00  0.00    +0.122 HD
BRANCH   3  10
ATOM     10  C   UNL     1      15.267   7.863  21.400  0.00  0.00    +0.084 C 
BRANCH  10   9
ATOM      9  C   UNL     1      16.145   6.741  20.875  0.00  0.00    +0.003 C 
ATOM     11  C   UNL     1      17.632   6.977  21.122  0.00  0.00    +0.005 C 
ATOM     12  C   UNL     1      16.088   6.591  19.359  0.00  0.00    +0.005 C 
ATOM     13  C   UNL     1      18.322   6.016  20.160  0.00  0.00    +0.000 C 
ATOM     14  C   UNL     1      17.332   5.776  19.019  0.00  0.00    +0.000 C 
ENDBRANCH  10   9
ENDBRANCH   3  10
ENDBRANCH   4   3
TORSDOF 6
ENDMDL
MODEL 2
REMARK VINA RESULT:      -6.7      1.100      2.010
REMARK  Name = 71693828
REMARK  6 active torsions:
REMARK  status: ('A' for Active; 'I' for Inactive)
REMARK    1  A    between atoms: O_1  and  C_6
REMARK    2  A    between atoms: O_2  and  C_8
REMARK    3  A    between atoms: N_3  and  C_4
REMARK    4  A    between atoms: N_3  and  C_10
REMARK    5  A    between atoms: C_5  and  C_15
REMARK    6  A    between atoms: C_9  and  C_10
REMARK                            x       y       z     vdW  Elec       q    Type
REMARK                         _______ _______ _______ _____ _____    ______ ____
ROOT
ATOM      4  C   UNL     1      13.014   7.105  20.749  0.00  0.00    +0.092 C 
ATOM      5  C   UNL     1      12.389   8.451  20.269  0.00  0.00    +0.041 C 
ATOM      6  C   UNL     1      11.864   6.349  21.433  0.00  0.00    +0.160 C 
ATOM      7  C   UNL     1      10.914   8.412  20.715  0.00  0.00    +0.043 C 
ATOM      8  C   UNL     1      10.921   7.455  21.897  0.00  0.00    +0.145 C 
ENDROOT
BRANCH   5  15
ATOM     15  C   UNL     1      12.557   8.717  18.789  0.00  0.00    -0.043 A 
ATOM     16  C   UNL     1      11.457   8.639  17.935  0.00  0.00    +0.004 A 
ATOM     17  C   UNL     1      13.814   9.040  18.278  0.00  0.00    +0.004 A 
ATOM     18  C   UNL     1      11.614   8.884  16.571  0.00  0.00    +0.000 A 
ATOM     19  C   UNL     1      13.970   9.285  16.914  0.00  0.00    +0.000 A 
ATOM     20  C   UNL     1      12.870   9.208  16.061  0.00  0.00    +0.000 A 
ENDBRANCH   5  15
BRANCH   6   1
ATOM      1  O   UNL     1      11.229   5.520  20.460  0.00  0.00    -0.388 OA
ATOM     22  H   UNL     1      10.414   5.971  20.180  0.00  0.00    +0.210 HD
ENDBRANCH   6   1
BRANCH   8   2
ATOM      2  O   UNL     1       9.622   6.977  22.184  0.00  0.00    -0.389 OA
ATOM     23  H   UNL     1       9.239   6.655  21.351  0.00  0.00    +0.210 HD
ENDBRANCH   8   2
BRANCH   4   3
ATOM      3  N   UNL     1      14.077   7.376  21.718  0.00  0.00    -0.310 NA
ATOM     21  H   UNL     1      13.967   6.769  22.531  0.00  0.00    +0.122 HD
BRANCH   3  10
ATOM     10  C   UNL     1      15.389   7.140  21.131  0.00  0.00    +0.084 C 
BRANCH  10   9
ATOM      9  C   UNL     1      16.380   8.210  21.551  0.00  0.00    +0.003 C 
ATOM     11  C   UNL     1      16.343   9.447  20.660  0.00  0.00    +0.005 C 
ATOM     12  C   UNL     1      17.834   7.766  21.429  0.00  0.00    +0.005 C 
ATOM     13  C   UNL     1      17.660  10.156  20.957  0.00  0.00    +0.000 C 
ATOM     14  C   UNL     1      18.624   9.071  21.442  0.00  0.00    +0.000 C 
ENDBRANCH  10   9
ENDBRANCH   3  10
ENDBRANCH   4   3
TORSDOF 6
ENDMDL
MODEL 3
REMARK VINA RESULT:      -6.7      2.436      5.825
REMARK  Name = 71693828
REMARK  6 active torsions:
REMARK  status: ('A' for Active; 'I' for Inactive)
REMARK    1  A    between atoms: O_1  and  C_6
REMARK    2  A    between atoms: O_2  and  C_8
REMARK    3  A    between atoms: N_3  and  C_4
REMARK    4  A    between atoms: N_3  and  C_10
REMARK    5  A    between atoms: C_5  and  C_15
REMARK    6  A    between atoms: C_9  and  C_10
REMARK                            x       y       z     vdW  Elec       q    Type
REMARK                         _______ _______ _______ _____ _____    ______ ____
ROOT
ATOM      4  C   UNL     1      13.537   8.350  20.214  0.00  0.00    +0.092 C 
ATOM      5  C   UNL     1      14.654   8.235  19.130  0.00  0.00    +0.041 C 
ATOM      6  C   UNL     1      12.298   7.696  19.583  0.00  0.00    +0.160 C 
ATOM      7  C   UNL     1      13.998   7.538  17.923  0.00  0.00    +0.043 C 
ATOM      8  C   UNL     1      12.519   7.858  18.083  0.00  0.00    +0.145 C 
ENDROOT
BRANCH   5  15
ATOM     15  C   UNL     1      15.911   7.541  19.609  0.00  0.00    -0.043 A 
ATOM     16  C   UNL     1      16.329   6.357  19.002  0.00  0.00    +0.004 A 
ATOM     17  C   UNL     1      16.651   8.086  20.659  0.00  0.00    +0.004 A 
ATOM     18  C   UNL     1      17.488   5.718  19.445  0.00  0.00    +0.000 A 
ATOM     19  C   UNL     1      17.808   7.447  21.101  0.00  0.00    +0.000 A 
ATOM     20  C   UNL     1      18.227   6.263  20.494  0.00  0.00    +0.000 A 
ENDBRANCH   5  15
BRANCH   6   1
ATOM      1  O   UNL     1      12.283   6.316  19.945  0.00  0.00    -0.388 OA
ATOM     22  H   UNL     1      12.820   6.221  20.751  0.00  0.00    +0.210 HD
ENDBRANCH   6   1
BRANCH   8   2
ATOM      2  O   UNL     1      11.715   6.984  17.316  0.00  0.00    -0.389 OA
ATOM     23  H   UNL     1      11.517   6.209  17.869  0.00  0.00    +0.210 HD
ENDBRANCH   8   2
BRANCH   4   3
ATOM      3  N   UNL     1      13.269   9.761  20.494  0.00  0.00    -0.310 NA
ATOM     21  H   UNL     1      13.396  10.312  19.646  0.00  0.00    +0.122 HD
BRANCH   3  10
ATOM     10  C   UNL     1      11.907   9.946  20.974  0.00  0.00    +0.084 C 
BRANCH  10   9
ATOM      9  C   UNL     1      11.868  10.874  22.175  0.00  0.00    +0.003 C 
ATOM     11  C   UNL     1      10.985  10.355  23.306  0.00  0.00    +0.005 C 
ATOM     12  C   UNL     1      11.239  12.229  21.869  0.00  0.00    +0.005 C 
ATOM     13  C   UNL     1      10.732  11.586  24.170  0.00  0.00    +0.000 C 
ATOM     14  C   UNL     1      10.884  12.793  23.241  0.00  0.00    +0.000 C 
ENDBRANCH  10   9
ENDBRANCH   3  10
ENDBRANCH   4   3
TORSDOF 6
ENDMDL
MODEL 4
REMARK VINA RESULT:      -6.2     29.996     31.637
REMARK  Name = 71693828
REMARK  6 active torsions:
REMARK  status: ('A' for Active; 'I' for Inactive)
REMARK    1  A    between atoms: O_1  and  C_6
REMARK    2  A    between atoms: O_2  and  C_8
REMARK    3  A    between atoms: N_3  and  C_4
REMARK    4  A    between atoms: N_3  and  C_10
REMARK    5  A    between atoms: C_5  and  C_15
REMARK    6  A    between atoms: C_9  and  C_10
REMARK                            x       y       z     vdW  Elec       q    Type
REMARK                         _______ _______ _______ _____ _____    ______ ____
ROOT
ATOM      4  C   UNL     1     -15.956   0.718  29.996  0.00  0.00    +0.092 C 
ATOM      5  C   UNL     1     -14.927   1.889  29.937  0.00  0.00    +0.041 C 
ATOM      6  C   UNL     1     -15.112  -0.550  30.201  0.00  0.00    +0.160 C 
ATOM      7  C   UNL     1     -13.539   1.236  30.093  0.00  0.00    +0.043 C 
ATOM      8  C   UNL     1     -13.755  -0.188  29.605  0.00  0.00    +0.145 C 
ENDROOT
BRANCH   5  15
ATOM     15  C   UNL     1     -15.185   2.989  30.943  0.00  0.00    -0.043 A 
ATOM     16  C   UNL     1     -15.369   4.303  30.511  0.00  0.00    +0.004 A 
ATOM     17  C   UNL     1     -15.240   2.690  32.305  0.00  0.00    +0.004 A 
ATOM     18  C   UNL     1     -15.607   5.316  31.440  0.00  0.00    +0.000 A 
ATOM     19  C   UNL     1     -15.478   3.703  33.232  0.00  0.00    +0.000 A 
ATOM     20  C   UNL     1     -15.661   5.016  32.800  0.00  0.00    +0.000 A 
ENDBRANCH   5  15
BRANCH   6   1
ATOM      1  O   UNL     1     -14.999  -0.793  31.602  0.00  0.00    -0.388 OA
ATOM     22  H   UNL     1     -14.167  -1.276  31.748  0.00  0.00    +0.210 HD
ENDBRANCH   6   1
BRANCH   8   2
ATOM      2  O   UNL     1     -12.721  -1.047  30.043  0.00  0.00    -0.389 OA
ATOM     23  H   UNL     1     -13.138  -1.864  30.365  0.00  0.00    +0.210 HD
ENDBRANCH   8   2
BRANCH   4   3
ATOM      3  N   UNL     1     -16.679   0.635  28.725  0.00  0.00    -0.310 NA
ATOM     21  H   UNL     1     -17.237  -0.218  28.700  0.00  0.00    +0.122 HD
BRANCH   3  10
ATOM     10  C   UNL     1     -17.563   1.779  28.555  0.00  0.00    +0.084 C 
BRANCH  10   9
ATOM      9  C   UNL     1     -17.435   2.370  27.162  0.00  0.00    +0.003 C 
ATOM     11  C   UNL     1     -16.753   1.432  26.171  0.00  0.00    +0.005 C 
ATOM     12  C   UNL     1     -16.540   3.603  27.110  0.00  0.00    +0.005 C 
ATOM     13  C   UNL     1     -16.333   2.346  25.026  0.00  0.00    +0.000 C 
ATOM     14  C   UNL     1     -16.185   3.743  25.633  0.00  0.00    +0.000 C 
ENDBRANCH  10   9
ENDBRANCH   3  10
ENDBRANCH   4   3
TORSDOF 6
ENDMDL
MODEL 5
REMARK VINA RESULT:      -6.2     30.141     31.155
REMARK  Name = 71693828
REMARK  6 active torsions:
REMARK  status: ('A' for Active; 'I' for Inactive)
REMARK    1  A    between atoms: O_1  and  C_6
REMARK    2  A    between atoms: O_2  and  C_8
REMARK    3  A    between atoms: N_3  and  C_4
REMARK    4  A    between atoms: N_3  and  C_10
REMARK    5  A    between atoms: C_5  and  C_15
REMARK    6  A    between atoms: C_9  and  C_10
REMARK                            x       y       z     vdW  Elec       q    Type
REMARK                         _______ _______ _______ _____ _____    ______ ____
ROOT
ATOM      4  C   UNL     1     -13.998   1.337  29.714  0.00  0.00    +0.092 C 
ATOM      5  C   UNL     1     -15.521   1.665  29.627  0.00  0.00    +0.041 C 
ATOM      6  C   UNL     1     -13.927  -0.102  30.247  0.00  0.00    +0.160 C 
ATOM      7  C   UNL     1     -16.251   0.404  30.129  0.00  0.00    +0.043 C 
ATOM      8  C   UNL     1     -15.226  -0.271  31.028  0.00  0.00    +0.145 C 
ENDROOT
BRANCH   5  15
ATOM     15  C   UNL     1     -15.979   2.111  28.255  0.00  0.00    -0.043 A 
ATOM     16  C   UNL     1     -16.381   1.167  27.311  0.00  0.00    +0.004 A 
ATOM     17  C   UNL     1     -15.997   3.469  27.934  0.00  0.00    +0.004 A 
ATOM     18  C   UNL     1     -16.803   1.580  26.047  0.00  0.00    +0.000 A 
ATOM     19  C   UNL     1     -16.418   3.881  26.670  0.00  0.00    +0.000 A 
ATOM     20  C   UNL     1     -16.821   2.937  25.727  0.00  0.00    +0.000 A 
ENDBRANCH   5  15
BRANCH   6   1
ATOM      1  O   UNL     1     -13.889  -0.993  29.133  0.00  0.00    -0.388 OA
ATOM     22  H   UNL     1     -14.549  -1.690  29.294  0.00  0.00    +0.210 HD
ENDBRANCH   6   1
BRANCH   8   2
ATOM      2  O   UNL     1     -15.552  -1.627  31.257  0.00  0.00    -0.389 OA
ATOM     23  H   UNL     1     -16.521  -1.696  31.270  0.00  0.00    +0.210 HD
ENDBRANCH   8   2
BRANCH   4   3
ATOM      3  N   UNL     1     -13.354   2.251  30.659  0.00  0.00    -0.310 NA
ATOM     21  H   UNL     1     -12.499   2.627  30.248  0.00  0.00    +0.122 HD
BRANCH   3  10
ATOM     10  C   UNL     1     -14.238   3.357  30.998  0.00  0.00    +0.084 C 
BRANCH  10   9
ATOM      9  C   UNL     1     -13.841   3.994  32.318  0.00  0.00    +0.003 C 
ATOM     11  C   UNL     1     -14.545   3.372  33.520  0.00  0.00    +0.005 C 
ATOM     12  C   UNL     1     -14.247   5.460  32.426  0.00  0.00    +0.005 C 
ATOM     13  C   UNL     1     -14.367   4.406  34.626  0.00  0.00    +0.000 C 
ATOM     14  C   UNL     1     -14.187   5.753  33.922  0.00  0.00    +0.000 C 
ENDBRANCH  10   9
ENDBRANCH   3  10
ENDBRANCH   4   3
TORSDOF 6
ENDMDL
MODEL 6
REMARK VINA RESULT:      -6.1     25.750     27.928
REMARK  Name = 71693828
REMARK  6 active torsions:
REMARK  status: ('A' for Active; 'I' for Inactive)
REMARK    1  A    between atoms: O_1  and  C_6
REMARK    2  A    between atoms: O_2  and  C_8
REMARK    3  A    between atoms: N_3  and  C_4
REMARK    4  A    between atoms: N_3  and  C_10
REMARK    5  A    between atoms: C_5  and  C_15
REMARK    6  A    between atoms: C_9  and  C_10
REMARK                            x       y       z     vdW  Elec       q    Type
REMARK                         _______ _______ _______ _____ _____    ______ ____
ROOT
ATOM      4  C   UNL     1     -14.691   6.624  23.151  0.00  0.00    +0.092 C 
ATOM      5  C   UNL     1     -14.977   6.466  21.625  0.00  0.00    +0.041 C 
ATOM      6  C   UNL     1     -14.865   5.216  23.740  0.00  0.00    +0.160 C 
ATOM      7  C   UNL     1     -15.318   4.978  21.414  0.00  0.00    +0.043 C 
ATOM      8  C   UNL     1     -15.827   4.529  22.776  0.00  0.00    +0.145 C 
ENDROOT
BRANCH   5  15
ATOM     15  C   UNL     1     -13.856   6.953  20.733  0.00  0.00    -0.043 A 
ATOM     16  C   UNL     1     -14.148   7.579  19.522  0.00  0.00    +0.004 A 
ATOM     17  C   UNL     1     -12.528   6.774  21.122  0.00  0.00    +0.004 A 
ATOM     18  C   UNL     1     -13.114   8.027  18.701  0.00  0.00    +0.000 A 
ATOM     19  C   UNL     1     -11.494   7.223  20.301  0.00  0.00    +0.000 A 
ATOM     20  C   UNL     1     -11.787   7.849  19.090  0.00  0.00    +0.000 A 
ENDBRANCH   5  15
BRANCH   6   1
ATOM      1  O   UNL     1     -13.594   4.566  23.735  0.00  0.00    -0.388 OA
ATOM     22  H   UNL     1     -12.912   5.259  23.736  0.00  0.00    +0.210 HD
ENDBRANCH   6   1
BRANCH   8   2
ATOM      2  O   UNL     1     -15.806   3.121  22.897  0.00  0.00    -0.389 OA
ATOM     23  H   UNL     1     -15.068   2.889  23.485  0.00  0.00    +0.210 HD
ENDBRANCH   8   2
BRANCH   4   3
ATOM      3  N   UNL     1     -15.672   7.536  23.742  0.00  0.00    -0.310 NA
ATOM     21  H   UNL     1     -15.566   7.548  24.756  0.00  0.00    +0.122 HD
BRANCH   3  10
ATOM     10  C   UNL     1     -15.495   8.889  23.235  0.00  0.00    +0.084 C 
BRANCH  10   9
ATOM      9  C   UNL     1     -14.056   9.349  23.385  0.00  0.00    +0.003 C 
ATOM     11  C   UNL     1     -13.828  10.220  24.617  0.00  0.00    +0.005 C 
ATOM     12  C   UNL     1     -13.592  10.260  22.253  0.00  0.00    +0.005 C 
ATOM     13  C   UNL     1     -12.500  10.914  24.337  0.00  0.00    +0.000 C 
ATOM     14  C   UNL     1     -12.353  10.950  22.815  0.00  0.00    +0.000 C 
ENDBRANCH  10   9
ENDBRANCH   3  10
ENDBRANCH   4   3
TORSDOF 6
ENDMDL
MODEL 7
REMARK VINA RESULT:      -6.0     30.421     31.671
REMARK  Name = 71693828
REMARK  6 active torsions:
REMARK  status: ('A' for Active; 'I' for Inactive)
REMARK    1  A    between atoms: O_1  and  C_6
REMARK    2  A    between atoms: O_2  and  C_8
REMARK    3  A    between atoms: N_3  and  C_4
REMARK    4  A    between atoms: N_3  and  C_10
REMARK    5  A    between atoms: C_5  and  C_15
REMARK    6  A    between atoms: C_9  and  C_10
REMARK                            x       y       z     vdW  Elec       q    Type
REMARK                         _______ _______ _______ _____ _____    ______ ____
ROOT
ATOM      4  C   UNL     1     -14.615   2.296  31.083  0.00  0.00    +0.092 C 
ATOM      5  C   UNL     1     -16.012   2.061  30.427  0.00  0.00    +0.041 C 
ATOM      6  C   UNL     1     -13.838   0.991  30.850  0.00  0.00    +0.160 C 
ATOM      7  C   UNL     1     -15.975   0.627  29.864  0.00  0.00    +0.043 C 
ATOM      8  C   UNL     1     -14.928  -0.069  30.720  0.00  0.00    +0.145 C 
ENDROOT
BRANCH   5  15
ATOM     15  C   UNL     1     -16.390   3.099  29.392  0.00  0.00    -0.043 A 
ATOM     16  C   UNL     1     -17.084   4.246  29.775  0.00  0.00    +0.004 A 
ATOM     17  C   UNL     1     -16.043   2.907  28.054  0.00  0.00    +0.004 A 
ATOM     18  C   UNL     1     -17.432   5.202  28.820  0.00  0.00    +0.000 A 
ATOM     19  C   UNL     1     -16.391   3.863  27.101  0.00  0.00    +0.000 A 
ATOM     20  C   UNL     1     -17.086   5.010  27.483  0.00  0.00    +0.000 A 
ENDBRANCH   5  15
BRANCH   6   1
ATOM      1  O   UNL     1     -13.106   1.115  29.631  0.00  0.00    -0.388 OA
ATOM     22  H   UNL     1     -12.231   0.714  29.775  0.00  0.00    +0.210 HD
ENDBRANCH   6   1
BRANCH   8   2
ATOM      2  O   UNL     1     -14.463  -1.255  30.106  0.00  0.00    -0.389 OA
ATOM     23  H   UNL     1     -13.869  -1.696  30.736  0.00  0.00    +0.210 HD
ENDBRANCH   8   2
BRANCH   4   3
ATOM      3  N   UNL     1     -14.781   2.528  32.519  0.00  0.00    -0.310 NA
ATOM     21  H   UNL     1     -14.501   1.695  33.038  0.00  0.00    +0.122 HD
BRANCH   3  10
ATOM     10  C   UNL     1     -13.968   3.652  32.961  0.00  0.00    +0.084 C 
BRANCH  10   9
ATOM      9  C   UNL     1     -14.826   4.870  33.251  0.00  0.00    +0.003 C 
ATOM     11  C   UNL     1     -16.307   4.539  33.407  0.00  0.00    +0.005 C 
ATOM     12  C   UNL     1     -14.838   5.884  32.112  0.00  0.00    +0.005 C 
ATOM     13  C   UNL     1     -17.005   5.884  33.238  0.00  0.00    +0.000 C 
ATOM     14  C   UNL     1     -16.064   6.746  32.394  0.00  0.00    +0.000 C 
ENDBRANCH  10   9
ENDBRANCH   3  10
ENDBRANCH   4   3
TORSDOF 6
ENDMDL
MODEL 8
REMARK VINA RESULT:      -5.9     24.613     26.857
REMARK  Name = 71693828
REMARK  6 active torsions:
REMARK  status: ('A' for Active; 'I' for Inactive)
REMARK    1  A    between atoms: O_1  and  C_6
REMARK    2  A    between atoms: O_2  and  C_8
REMARK    3  A    between atoms: N_3  and  C_4
REMARK    4  A    between atoms: N_3  and  C_10
REMARK    5  A    between atoms: C_5  and  C_15
REMARK    6  A    between atoms: C_9  and  C_10
REMARK                            x       y       z     vdW  Elec       q    Type
REMARK                         _______ _______ _______ _____ _____    ______ ____
ROOT
ATOM      4  C   UNL     1     -12.349   9.222  18.349  0.00  0.00    +0.092 C 
ATOM      5  C   UNL     1     -11.681   8.130  19.240  0.00  0.00    +0.041 C 
ATOM      6  C   UNL     1     -11.893   8.906  16.916  0.00  0.00    +0.160 C 
ATOM      7  C   UNL     1     -10.860   7.249  18.279  0.00  0.00    +0.043 C 
ATOM      8  C   UNL     1     -10.570   8.171  17.105  0.00  0.00    +0.145 C 
ENDROOT
BRANCH   5  15
ATOM     15  C   UNL     1     -12.658   7.341  20.085  0.00  0.00    -0.043 A 
ATOM     16  C   UNL     1     -14.030   7.468  19.870  0.00  0.00    +0.004 A 
ATOM     17  C   UNL     1     -12.185   6.486  21.081  0.00  0.00    +0.004 A 
ATOM     18  C   UNL     1     -14.929   6.740  20.650  0.00  0.00    +0.000 A 
ATOM     19  C   UNL     1     -13.084   5.758  21.860  0.00  0.00    +0.000 A 
ATOM     20  C   UNL     1     -14.456   5.885  21.645  0.00  0.00    +0.000 A 
ENDBRANCH   5  15
BRANCH   6   1
ATOM      1  O   UNL     1     -12.864   8.051  16.313  0.00  0.00    -0.388 OA
ATOM     22  H   UNL     1     -13.434   7.710  17.024  0.00  0.00    +0.210 HD
ENDBRANCH   6   1
BRANCH   8   2
ATOM      2  O   UNL     1     -10.184   7.441  15.957  0.00  0.00    -0.389 OA
ATOM     23  H   UNL     1      -9.300   7.752  15.697  0.00  0.00    +0.210 HD
ENDBRANCH   8   2
BRANCH   4   3
ATOM      3  N   UNL     1     -11.863  10.544  18.746  0.00  0.00    -0.310 NA
ATOM     21  H   UNL     1     -11.332  10.961  17.981  0.00  0.00    +0.122 HD
BRANCH   3  10
ATOM     10  C   UNL     1     -12.971  11.427  19.083  0.00  0.00    +0.084 C 
BRANCH  10   9
ATOM      9  C   UNL     1     -13.195  11.479  20.584  0.00  0.00    +0.003 C 
ATOM     11  C   UNL     1     -12.056  10.854  21.384  0.00  0.00    +0.005 C 
ATOM     12  C   UNL     1     -14.399  10.663  21.042  0.00  0.00    +0.005 C 
ATOM     13  C   UNL     1     -12.665  10.608  22.760  0.00  0.00    +0.000 C 
ATOM     14  C   UNL     1     -14.172  10.473  22.538  0.00  0.00    +0.000 C 
ENDBRANCH  10   9
ENDBRANCH   3  10
ENDBRANCH   4   3
TORSDOF 6
ENDMDL
MODEL 9
REMARK VINA RESULT:      -5.9     25.042     26.768
REMARK  Name = 71693828
REMARK  6 active torsions:
REMARK  status: ('A' for Active; 'I' for Inactive)
REMARK    1  A    between atoms: O_1  and  C_6
REMARK    2  A    between atoms: O_2  and  C_8
REMARK    3  A    between atoms: N_3  and  C_4
REMARK    4  A    between atoms: N_3  and  C_10
REMARK    5  A    between atoms: C_5  and  C_15
REMARK    6  A    between atoms: C_9  and  C_10
REMARK                            x       y       z     vdW  Elec       q    Type
REMARK                         _______ _______ _______ _____ _____    ______ ____
ROOT
ATOM      4  C   UNL     1      -4.533 -11.316  14.941  0.00  0.00    +0.092 C 
ATOM      5  C   UNL     1      -4.275 -10.352  16.140  0.00  0.00    +0.041 C 
ATOM      6  C   UNL     1      -3.188 -12.015  14.691  0.00  0.00    +0.160 C 
ATOM      7  C   UNL     1      -2.789 -10.531  16.510  0.00  0.00    +0.043 C 
ATOM      8  C   UNL     1      -2.155 -11.026  15.219  0.00  0.00    +0.145 C 
ENDROOT
BRANCH   5  15
ATOM     15  C   UNL     1      -5.210 -10.559  17.312  0.00  0.00    -0.043 A 
ATOM     16  C   UNL     1      -6.524 -10.095  17.248  0.00  0.00    +0.004 A 
ATOM     17  C   UNL     1      -4.758 -11.216  18.457  0.00  0.00    +0.004 A 
ATOM     18  C   UNL     1      -7.384 -10.287  18.329  0.00  0.00    +0.000 A 
ATOM     19  C   UNL     1      -5.619 -11.407  19.537  0.00  0.00    +0.000 A 
ATOM     20  C   UNL     1      -6.932 -10.943  19.473  0.00  0.00    +0.000 A 
ENDBRANCH   5  15
BRANCH   6   1
ATOM      1  O   UNL     1      -3.162 -13.225  15.447  0.00  0.00    -0.388 OA
ATOM     22  H   UNL     1      -2.338 -13.227  15.965  0.00  0.00    +0.210 HD
ENDBRANCH   6   1
BRANCH   8   2
ATOM      2  O   UNL     1      -0.898 -11.626  15.458  0.00  0.00    -0.389 OA
ATOM     23  H   UNL     1      -0.283 -11.298  14.780  0.00  0.00    +0.210 HD
ENDBRANCH   8   2
BRANCH   4   3
ATOM      3  N   UNL     1      -4.918 -10.539  13.762  0.00  0.00    -0.310 NA
ATOM     21  H   UNL     1      -4.216  -9.825  13.574  0.00  0.00    +0.122 HD
BRANCH   3  10
ATOM     10  C   UNL     1      -5.039 -11.397  12.591  0.00  0.00    +0.084 C 
BRANCH  10   9
ATOM      9  C   UNL     1      -4.622 -10.665  11.328  0.00  0.00    +0.003 C 
ATOM     11  C   UNL     1      -3.136 -10.320  11.296  0.00  0.00    +0.005 C 
ATOM     12  C   UNL     1      -5.276  -9.295  11.181  0.00  0.00    +0.005 C 
ATOM     13  C   UNL     1      -3.031  -9.243  10.222  0.00  0.00    +0.000 C 
ATOM     14  C   UNL     1      -4.406  -8.575  10.156  0.00  0.00    +0.000 C 
ENDBRANCH  10   9
ENDBRANCH   3  10
ENDBRANCH   4   3
TORSDOF 6
ENDMDL
MODEL 10
REMARK VINA RESULT:      -5.7     23.504     25.913
REMARK  Name = 71693828
REMARK  6 active torsions:
REMARK  status: ('A' for Active; 'I' for Inactive)
REMARK    1  A    between atoms: O_1  and  C_6
REMARK    2  A    between atoms: O_2  and  C_8
REMARK    3  A    between atoms: N_3  and  C_4
REMARK    4  A    between atoms: N_3  and  C_10
REMARK    5  A    between atoms: C_5  and  C_15
REMARK    6  A    between atoms: C_9  and  C_10
REMARK                            x       y       z     vdW  Elec       q    Type
REMARK                         _______ _______ _______ _____ _____    ______ ____
ROOT
ATOM      4  C   UNL     1     -12.222   9.375  18.010  0.00  0.00    +0.092 C 
ATOM      5  C   UNL     1     -11.475   8.359  18.929  0.00  0.00    +0.041 C 
ATOM      6  C   UNL     1     -11.841   8.975  16.576  0.00  0.00    +0.160 C 
ATOM      7  C   UNL     1     -10.687   7.435  17.980  0.00  0.00    +0.043 C 
ATOM      8  C   UNL     1     -10.489   8.284  16.734  0.00  0.00    +0.145 C 
ENDROOT
BRANCH   5  15
ATOM     15  C   UNL     1     -12.380   7.606  19.879  0.00  0.00    -0.043 A 
ATOM     16  C   UNL     1     -13.758   7.821  19.850  0.00  0.00    +0.004 A 
ATOM     17  C   UNL     1     -11.836   6.695  20.786  0.00  0.00    +0.004 A 
ATOM     18  C   UNL     1     -14.591   7.126  20.727  0.00  0.00    +0.000 A 
ATOM     19  C   UNL     1     -12.670   6.001  21.662  0.00  0.00    +0.000 A 
ATOM     20  C   UNL     1     -14.047   6.216  21.633  0.00  0.00    +0.000 A 
ENDBRANCH   5  15
BRANCH   6   1
ATOM      1  O   UNL     1     -12.821   8.060  16.088  0.00  0.00    -0.388 OA
ATOM     22  H   UNL     1     -12.945   7.375  16.768  0.00  0.00    +0.210 HD
ENDBRANCH   6   1
BRANCH   8   2
ATOM      2  O   UNL     1     -10.150   7.489  15.615  0.00  0.00    -0.389 OA
ATOM     23  H   UNL     1      -9.221   7.674  15.396  0.00  0.00    +0.210 HD
ENDBRANCH   8   2
BRANCH   4   3
ATOM      3  N   UNL     1     -11.749  10.731  18.291  0.00  0.00    -0.310 NA
ATOM     21  H   UNL     1     -10.732  10.733  18.370  0.00  0.00    +0.122 HD
BRANCH   3  10
ATOM     10  C   UNL     1     -12.138  11.649  17.230  0.00  0.00    +0.084 C 
BRANCH  10   9
ATOM      9  C   UNL     1     -10.999  12.583  16.865  0.00  0.00    +0.003 C 
ATOM     11  C   UNL     1      -9.645  11.883  16.800  0.00  0.00    +0.005 C 
ATOM     12  C   UNL     1     -10.753  13.669  17.908  0.00  0.00    +0.005 C 
ATOM     13  C   UNL     1      -8.636  13.024  16.874  0.00  0.00    +0.000 C 
ATOM     14  C   UNL     1      -9.346  14.170  17.598  0.00  0.00    +0.000 C 
ENDBRANCH  10   9
ENDBRANCH   3  10
ENDBRANCH   4   3
TORSDOF 6
ENDMDL
