MODEL 1
REMARK VINA RESULT:      -6.5      0.000      0.000
REMARK  Name = 26744529
REMARK  7 active torsions:
REMARK  status: ('A' for Active; 'I' for Inactive)
REMARK    1  A    between atoms: S_1  and  C_16
REMARK    2  A    between atoms: S_1  and  C_17
REMARK    3  A    between atoms: O_2  and  C_11
REMARK    4  A    between atoms: N_6  and  C_14
REMARK    5  A    between atoms: C_9  and  C_13
REMARK    6  A    between atoms: C_15  and  C_16
REMARK    7  A    between atoms: C_20  and  C_23
REMARK                            x       y       z     vdW  Elec       q    Type
REMARK                         _______ _______ _______ _____ _____    ______ ____
ROOT
ATOM      3  O   UNL     1      11.902   5.588   1.020  0.00  0.00    -0.336 OA
ATOM      7  N   UNL     1      11.687   3.939   2.522  0.00  0.00    -0.193 NA
ATOM      8  N   UNL     1      10.958   6.032   1.953  0.00  0.00    -0.060 NA
ATOM     13  C   UNL     1      12.280   4.348   1.428  0.00  0.00    +0.245 A 
ATOM     15  C   UNL     1      10.885   5.007   2.806  0.00  0.00    +0.193 A 
ENDROOT
BRANCH  13   9
ATOM      6  N   UNL     1      13.580   4.344  -0.695  0.00  0.00    -0.292 NA
ATOM      9  C   UNL     1      13.312   3.640   0.575  0.00  0.00    +0.148 C 
ATOM     10  C   UNL     1      14.685   3.536   1.266  0.00  0.00    +0.061 C 
ATOM     11  C   UNL     1      15.667   4.168   0.287  0.00  0.00    +0.130 C 
ATOM     12  C   UNL     1      14.965   4.042  -1.052  0.00  0.00    +0.116 C 
ATOM     14  C   UNL     1      12.649   3.986  -1.758  0.00  0.00    +0.105 C 
BRANCH  11   2
ATOM      2  O   UNL     1      16.901   3.478   0.299  0.00  0.00    -0.390 OA
ATOM     24  H   UNL     1      17.023   3.083  -0.582  0.00  0.00    +0.210 HD
ENDBRANCH  11   2
ENDBRANCH  13   9
BRANCH  15  16
ATOM     16  C   UNL     1      10.000   5.030   3.976  0.00  0.00    +0.251 C 
BRANCH  16   1
ATOM      1  S   UNL     1      10.474   6.380   5.020  0.00  0.00    +0.004 S 
ATOM      4  O   UNL     1       9.670   7.526   4.644  0.00  0.00    -0.169 OA
ATOM      5  O   UNL     1      11.922   6.467   5.031  0.00  0.00    -0.169 OA
BRANCH   1  17
ATOM     17  C   UNL     1       9.972   5.862   6.633  0.00  0.00    +0.089 A 
ATOM     18  C   UNL     1       9.445   6.791   7.530  0.00  0.00    +0.027 A 
ATOM     19  C   UNL     1      10.105   4.527   7.010  0.00  0.00    +0.027 A 
ATOM     20  C   UNL     1       9.184   5.047   9.182  0.00  0.00    -0.050 A 
ATOM     21  C   UNL     1       9.051   6.384   8.805  0.00  0.00    +0.005 A 
ATOM     22  C   UNL     1       9.711   4.118   8.285  0.00  0.00    +0.005 A 
ATOM     23  C   UNL     1       8.763   4.612  10.544  0.00  0.00    +0.044 C 
ENDBRANCH   1  17
ENDBRANCH  16   1
ENDBRANCH  15  16
TORSDOF 5
ENDMDL
MODEL 2
REMARK VINA RESULT:      -6.3     13.836     16.184
REMARK  Name = 26744529
REMARK  7 active torsions:
REMARK  status: ('A' for Active; 'I' for Inactive)
REMARK    1  A    between atoms: S_1  and  C_16
REMARK    2  A    between atoms: S_1  and  C_17
REMARK    3  A    between atoms: O_2  and  C_11
REMARK    4  A    between atoms: N_6  and  C_14
REMARK    5  A    between atoms: C_9  and  C_13
REMARK    6  A    between atoms: C_15  and  C_16
REMARK    7  A    between atoms: C_20  and  C_23
REMARK                            x       y       z     vdW  Elec       q    Type
REMARK                         _______ _______ _______ _____ _____    ______ ____
ROOT
ATOM      3  O   UNL     1      14.713  11.098  18.837  0.00  0.00    -0.336 OA
ATOM      7  N   UNL     1      12.903  10.119  17.951  0.00  0.00    -0.193 NA
ATOM      8  N   UNL     1      14.122  10.365  19.872  0.00  0.00    -0.060 NA
ATOM     13  C   UNL     1      13.933  10.900  17.742  0.00  0.00    +0.245 A 
ATOM     15  C   UNL     1      13.061   9.817  19.273  0.00  0.00    +0.193 A 
ENDROOT
BRANCH  13   9
ATOM      6  N   UNL     1      15.781  12.020  16.505  0.00  0.00    -0.292 NA
ATOM      9  C   UNL     1      14.367  11.595  16.468  0.00  0.00    +0.148 C 
ATOM     10  C   UNL     1      14.261  10.686  15.228  0.00  0.00    +0.061 C 
ATOM     11  C   UNL     1      15.654  10.699  14.610  0.00  0.00    +0.130 C 
ATOM     12  C   UNL     1      16.258  11.993  15.123  0.00  0.00    +0.116 C 
ATOM     14  C   UNL     1      15.972  13.325  17.125  0.00  0.00    +0.105 C 
BRANCH  11   2
ATOM      2  O   UNL     1      15.576  10.682  13.198  0.00  0.00    -0.390 OA
ATOM     24  H   UNL     1      14.681  10.381  12.959  0.00  0.00    +0.210 HD
ENDBRANCH  11   2
ENDBRANCH  13   9
BRANCH  15  16
ATOM     16  C   UNL     1      12.128   8.942  19.991  0.00  0.00    +0.251 C 
BRANCH  16   1
ATOM      1  S   UNL     1      12.423   7.267  19.496  0.00  0.00    +0.004 S 
ATOM      4  O   UNL     1      12.256   7.201  18.057  0.00  0.00    -0.169 OA
ATOM      5  O   UNL     1      11.668   6.389  20.367  0.00  0.00    -0.169 OA
BRANCH   1  17
ATOM     17  C   UNL     1      14.134   7.015  19.861  0.00  0.00    +0.089 A 
ATOM     18  C   UNL     1      15.039   6.776  18.827  0.00  0.00    +0.027 A 
ATOM     19  C   UNL     1      14.578   7.053  21.182  0.00  0.00    +0.027 A 
ATOM     20  C   UNL     1      16.833   6.612  20.437  0.00  0.00    -0.050 A 
ATOM     21  C   UNL     1      16.390   6.574  19.115  0.00  0.00    +0.005 A 
ATOM     22  C   UNL     1      15.928   6.851  21.471  0.00  0.00    +0.005 A 
ATOM     23  C   UNL     1      18.276   6.396  20.745  0.00  0.00    +0.044 C 
ENDBRANCH   1  17
ENDBRANCH  16   1
ENDBRANCH  15  16
TORSDOF 5
ENDMDL
MODEL 3
REMARK VINA RESULT:      -6.3     23.281     26.831
REMARK  Name = 26744529
REMARK  7 active torsions:
REMARK  status: ('A' for Active; 'I' for Inactive)
REMARK    1  A    between atoms: S_1  and  C_16
REMARK    2  A    between atoms: S_1  and  C_17
REMARK    3  A    between atoms: O_2  and  C_11
REMARK    4  A    between atoms: N_6  and  C_14
REMARK    5  A    between atoms: C_9  and  C_13
REMARK    6  A    between atoms: C_15  and  C_16
REMARK    7  A    between atoms: C_20  and  C_23
REMARK                            x       y       z     vdW  Elec       q    Type
REMARK                         _______ _______ _______ _____ _____    ______ ____
ROOT
ATOM      3  O   UNL     1      -4.816 -11.214  18.228  0.00  0.00    -0.336 OA
ATOM      7  N   UNL     1      -4.713 -10.123  16.274  0.00  0.00    -0.193 NA
ATOM      8  N   UNL     1      -3.551 -11.489  17.695  0.00  0.00    -0.060 NA
ATOM     13  C   UNL     1      -5.435 -10.405  17.329  0.00  0.00    +0.245 A 
ATOM     15  C   UNL     1      -3.566 -10.811  16.543  0.00  0.00    +0.193 A 
ENDROOT
BRANCH  13   9
ATOM      6  N   UNL     1      -7.877 -10.731  16.969  0.00  0.00    -0.292 NA
ATOM      9  C   UNL     1      -6.839  -9.956  17.679  0.00  0.00    +0.148 C 
ATOM     10  C   UNL     1      -7.167 -10.135  19.173  0.00  0.00    +0.061 C 
ATOM     11  C   UNL     1      -8.430 -10.986  19.201  0.00  0.00    +0.130 C 
ATOM     12  C   UNL     1      -9.052 -10.743  17.839  0.00  0.00    +0.116 C 
ATOM     14  C   UNL     1      -8.181 -10.206  15.644  0.00  0.00    +0.105 C 
BRANCH  11   2
ATOM      2  O   UNL     1      -9.287 -10.578  20.249  0.00  0.00    -0.390 OA
ATOM     24  H   UNL     1     -10.201 -10.742  19.959  0.00  0.00    +0.210 HD
ENDBRANCH  11   2
ENDBRANCH  13   9
BRANCH  15  16
ATOM     16  C   UNL     1      -2.419 -10.807  15.629  0.00  0.00    +0.251 C 
BRANCH  16   1
ATOM      1  S   UNL     1      -2.680 -12.041  14.385  0.00  0.00    +0.004 S 
ATOM      4  O   UNL     1      -3.868 -12.786  14.752  0.00  0.00    -0.169 OA
ATOM      5  O   UNL     1      -1.424 -12.726  14.145  0.00  0.00    -0.169 OA
BRANCH   1  17
ATOM     17  C   UNL     1      -3.046 -11.104  12.932  0.00  0.00    +0.089 A 
ATOM     18  C   UNL     1      -2.009 -10.549  12.181  0.00  0.00    +0.027 A 
ATOM     19  C   UNL     1      -4.370 -10.918  12.537  0.00  0.00    +0.027 A 
ATOM     20  C   UNL     1      -3.623  -9.622  10.640  0.00  0.00    -0.050 A 
ATOM     21  C   UNL     1      -2.297  -9.808  11.035  0.00  0.00    +0.005 A 
ATOM     22  C   UNL     1      -4.659 -10.177  11.391  0.00  0.00    +0.005 A 
ATOM     23  C   UNL     1      -3.931  -8.829   9.416  0.00  0.00    +0.044 C 
ENDBRANCH   1  17
ENDBRANCH  16   1
ENDBRANCH  15  16
TORSDOF 5
ENDMDL
MODEL 4
REMARK VINA RESULT:      -6.0     13.471     15.521
REMARK  Name = 26744529
REMARK  7 active torsions:
REMARK  status: ('A' for Active; 'I' for Inactive)
REMARK    1  A    between atoms: S_1  and  C_16
REMARK    2  A    between atoms: S_1  and  C_17
REMARK    3  A    between atoms: O_2  and  C_11
REMARK    4  A    between atoms: N_6  and  C_14
REMARK    5  A    between atoms: C_9  and  C_13
REMARK    6  A    between atoms: C_15  and  C_16
REMARK    7  A    between atoms: C_20  and  C_23
REMARK                            x       y       z     vdW  Elec       q    Type
REMARK                         _______ _______ _______ _____ _____    ______ ____
ROOT
ATOM      3  O   UNL     1      13.089  10.272  14.954  0.00  0.00    -0.336 OA
ATOM      7  N   UNL     1      14.538   9.541  16.498  0.00  0.00    -0.193 NA
ATOM      8  N   UNL     1      12.552   9.082  15.459  0.00  0.00    -0.060 NA
ATOM     13  C   UNL     1      14.258  10.469  15.618  0.00  0.00    +0.245 A 
ATOM     15  C   UNL     1      13.463   8.712  16.364  0.00  0.00    +0.193 A 
ENDROOT
BRANCH  13   9
ATOM      6  N   UNL     1      15.944  12.156  16.332  0.00  0.00    -0.292 NA
ATOM      9  C   UNL     1      15.044  11.711  15.250  0.00  0.00    +0.148 C 
ATOM     10  C   UNL     1      15.966  11.493  14.035  0.00  0.00    +0.061 C 
ATOM     11  C   UNL     1      17.355  11.885  14.519  0.00  0.00    +0.130 C 
ATOM     12  C   UNL     1      17.076  12.816  15.684  0.00  0.00    +0.116 C 
ATOM     14  C   UNL     1      15.289  13.019  17.306  0.00  0.00    +0.105 C 
BRANCH  11   2
ATOM      2  O   UNL     1      18.080  12.533  13.493  0.00  0.00    -0.390 OA
ATOM     24  H   UNL     1      18.631  11.861  13.055  0.00  0.00    +0.210 HD
ENDBRANCH  11   2
ENDBRANCH  13   9
BRANCH  15  16
ATOM     16  C   UNL     1      13.312   7.491  17.164  0.00  0.00    +0.251 C 
BRANCH  16   1
ATOM      1  S   UNL     1      13.062   7.949  18.857  0.00  0.00    +0.004 S 
ATOM      4  O   UNL     1      12.206   6.946  19.459  0.00  0.00    -0.169 OA
ATOM      5  O   UNL     1      12.701   9.353  18.906  0.00  0.00    -0.169 OA
BRANCH   1  17
ATOM     17  C   UNL     1      14.670   7.802  19.576  0.00  0.00    +0.089 A 
ATOM     18  C   UNL     1      15.429   6.652  19.356  0.00  0.00    +0.027 A 
ATOM     19  C   UNL     1      15.179   8.833  20.364  0.00  0.00    +0.027 A 
ATOM     20  C   UNL     1      17.206   7.566  20.714  0.00  0.00    -0.050 A 
ATOM     21  C   UNL     1      16.697   6.534  19.925  0.00  0.00    +0.005 A 
ATOM     22  C   UNL     1      16.447   8.715  20.935  0.00  0.00    +0.005 A 
ATOM     23  C   UNL     1      18.561   7.440  21.323  0.00  0.00    +0.044 C 
ENDBRANCH   1  17
ENDBRANCH  16   1
ENDBRANCH  15  16
TORSDOF 5
ENDMDL
MODEL 5
REMARK VINA RESULT:      -5.9     23.671     27.123
REMARK  Name = 26744529
REMARK  7 active torsions:
REMARK  status: ('A' for Active; 'I' for Inactive)
REMARK    1  A    between atoms: S_1  and  C_16
REMARK    2  A    between atoms: S_1  and  C_17
REMARK    3  A    between atoms: O_2  and  C_11
REMARK    4  A    between atoms: N_6  and  C_14
REMARK    5  A    between atoms: C_9  and  C_13
REMARK    6  A    between atoms: C_15  and  C_16
REMARK    7  A    between atoms: C_20  and  C_23
REMARK                            x       y       z     vdW  Elec       q    Type
REMARK                         _______ _______ _______ _____ _____    ______ ____
ROOT
ATOM      3  O   UNL     1      -5.861 -11.790  15.797  0.00  0.00    -0.336 OA
ATOM      7  N   UNL     1      -4.746 -13.706  16.117  0.00  0.00    -0.193 NA
ATOM      8  N   UNL     1      -5.376 -12.172  14.541  0.00  0.00    -0.060 NA
ATOM     13  C   UNL     1      -5.445 -12.746  16.668  0.00  0.00    +0.245 A 
ATOM     15  C   UNL     1      -4.730 -13.310  14.811  0.00  0.00    +0.193 A 
ENDROOT
BRANCH  13   9
ATOM      6  N   UNL     1      -5.007 -11.574  18.820  0.00  0.00    -0.292 NA
ATOM      9  C   UNL     1      -5.849 -12.562  18.117  0.00  0.00    +0.148 C 
ATOM     10  C   UNL     1      -7.288 -12.036  18.272  0.00  0.00    +0.061 C 
ATOM     11  C   UNL     1      -7.158 -10.774  19.115  0.00  0.00    +0.130 C 
ATOM     12  C   UNL     1      -5.849 -10.975  19.855  0.00  0.00    +0.116 C 
ATOM     14  C   UNL     1      -3.786 -12.147  19.370  0.00  0.00    +0.105 C 
BRANCH  11   2
ATOM      2  O   UNL     1      -8.250 -10.651  20.005  0.00  0.00    -0.390 OA
ATOM     24  H   UNL     1      -8.233 -11.425  20.596  0.00  0.00    +0.210 HD
ENDBRANCH  11   2
ENDBRANCH  13   9
BRANCH  15  16
ATOM     16  C   UNL     1      -4.049 -14.085  13.768  0.00  0.00    +0.251 C 
BRANCH  16   1
ATOM      1  S   UNL     1      -2.485 -13.325  13.427  0.00  0.00    +0.004 S 
ATOM      4  O   UNL     1      -1.641 -14.325  12.803  0.00  0.00    -0.169 OA
ATOM      5  O   UNL     1      -2.043 -12.626  14.618  0.00  0.00    -0.169 OA
BRANCH   1  17
ATOM     17  C   UNL     1      -2.868 -12.096  12.216  0.00  0.00    +0.089 A 
ATOM     18  C   UNL     1      -2.217 -10.863  12.245  0.00  0.00    +0.027 A 
ATOM     19  C   UNL     1      -3.822 -12.358  11.234  0.00  0.00    +0.027 A 
ATOM     20  C   UNL     1      -3.475 -10.154  10.308  0.00  0.00    -0.050 A 
ATOM     21  C   UNL     1      -2.521  -9.891  11.291  0.00  0.00    +0.005 A 
ATOM     22  C   UNL     1      -4.126 -11.387  10.279  0.00  0.00    +0.005 A 
ATOM     23  C   UNL     1      -3.800  -9.116   9.289  0.00  0.00    +0.044 C 
ENDBRANCH   1  17
ENDBRANCH  16   1
ENDBRANCH  15  16
TORSDOF 5
ENDMDL
MODEL 6
REMARK VINA RESULT:      -5.8      2.502      8.618
REMARK  Name = 26744529
REMARK  7 active torsions:
REMARK  status: ('A' for Active; 'I' for Inactive)
REMARK    1  A    between atoms: S_1  and  C_16
REMARK    2  A    between atoms: S_1  and  C_17
REMARK    3  A    between atoms: O_2  and  C_11
REMARK    4  A    between atoms: N_6  and  C_14
REMARK    5  A    between atoms: C_9  and  C_13
REMARK    6  A    between atoms: C_15  and  C_16
REMARK    7  A    between atoms: C_20  and  C_23
REMARK                            x       y       z     vdW  Elec       q    Type
REMARK                         _______ _______ _______ _____ _____    ______ ____
ROOT
ATOM      3  O   UNL     1      10.013   6.560   3.650  0.00  0.00    -0.336 OA
ATOM      7  N   UNL     1      10.866   4.490   3.737  0.00  0.00    -0.193 NA
ATOM      8  N   UNL     1      10.063   6.104   2.327  0.00  0.00    -0.060 NA
ATOM     13  C   UNL     1      10.504   5.550   4.415  0.00  0.00    +0.245 A 
ATOM     15  C   UNL     1      10.577   4.878   2.460  0.00  0.00    +0.193 A 
ENDROOT
BRANCH  13   9
ATOM      6  N   UNL     1      11.240   7.059   6.254  0.00  0.00    -0.292 NA
ATOM      9  C   UNL     1      10.555   5.797   5.909  0.00  0.00    +0.148 C 
ATOM     10  C   UNL     1       9.155   5.923   6.539  0.00  0.00    +0.061 C 
ATOM     11  C   UNL     1       9.165   7.268   7.254  0.00  0.00    +0.130 C 
ATOM     12  C   UNL     1      10.640   7.528   7.501  0.00  0.00    +0.116 C 
ATOM     14  C   UNL     1      12.687   6.916   6.361  0.00  0.00    +0.105 C 
BRANCH  11   2
ATOM      2  O   UNL     1       8.436   7.198   8.464  0.00  0.00    -0.390 OA
ATOM     24  H   UNL     1       8.292   6.257   8.664  0.00  0.00    +0.210 HD
ENDBRANCH  11   2
ENDBRANCH  13   9
BRANCH  15  16
ATOM     16  C   UNL     1      10.813   4.004   1.306  0.00  0.00    +0.251 C 
BRANCH  16   1
ATOM      1  S   UNL     1      12.551   3.968   0.967  0.00  0.00    +0.004 S 
ATOM      4  O   UNL     1      13.102   2.804   1.634  0.00  0.00    -0.169 OA
ATOM      5  O   UNL     1      13.097   5.288   1.216  0.00  0.00    -0.169 OA
BRANCH   1  17
ATOM     17  C   UNL     1      12.636   3.692  -0.776  0.00  0.00    +0.089 A 
ATOM     18  C   UNL     1      11.652   2.932  -1.410  0.00  0.00    +0.027 A 
ATOM     19  C   UNL     1      13.686   4.232  -1.518  0.00  0.00    +0.027 A 
ATOM     20  C   UNL     1      12.771   3.252  -3.528  0.00  0.00    -0.050 A 
ATOM     21  C   UNL     1      11.720   2.711  -2.786  0.00  0.00    +0.005 A 
ATOM     22  C   UNL     1      13.754   4.012  -2.894  0.00  0.00    +0.005 A 
ATOM     23  C   UNL     1      12.843   3.017  -4.998  0.00  0.00    +0.044 C 
ENDBRANCH   1  17
ENDBRANCH  16   1
ENDBRANCH  15  16
TORSDOF 5
ENDMDL
MODEL 7
REMARK VINA RESULT:      -5.8     24.645     27.656
REMARK  Name = 26744529
REMARK  7 active torsions:
REMARK  status: ('A' for Active; 'I' for Inactive)
REMARK    1  A    between atoms: S_1  and  C_16
REMARK    2  A    between atoms: S_1  and  C_17
REMARK    3  A    between atoms: O_2  and  C_11
REMARK    4  A    between atoms: N_6  and  C_14
REMARK    5  A    between atoms: C_9  and  C_13
REMARK    6  A    between atoms: C_15  and  C_16
REMARK    7  A    between atoms: C_20  and  C_23
REMARK                            x       y       z     vdW  Elec       q    Type
REMARK                         _______ _______ _______ _____ _____    ______ ____
ROOT
ATOM      3  O   UNL     1      -5.103 -11.505  17.535  0.00  0.00    -0.336 OA
ATOM      7  N   UNL     1      -5.619  -9.871  16.091  0.00  0.00    -0.193 NA
ATOM      8  N   UNL     1      -6.297 -10.939  17.997  0.00  0.00    -0.060 NA
ATOM     13  C   UNL     1      -4.772 -10.818  16.410  0.00  0.00    +0.245 A 
ATOM     15  C   UNL     1      -6.537  -9.984  17.094  0.00  0.00    +0.193 A 
ENDROOT
BRANCH  13   9
ATOM      6  N   UNL     1      -3.311 -10.562  14.410  0.00  0.00    -0.292 NA
ATOM      9  C   UNL     1      -3.501 -11.245  15.706  0.00  0.00    +0.148 C 
ATOM     10  C   UNL     1      -2.232 -10.913  16.515  0.00  0.00    +0.061 C 
ATOM     11  C   UNL     1      -1.372 -10.079  15.574  0.00  0.00    +0.130 C 
ATOM     12  C   UNL     1      -1.868 -10.473  14.196  0.00  0.00    +0.116 C 
ATOM     14  C   UNL     1      -3.990 -11.228  13.305  0.00  0.00    +0.105 C 
BRANCH  11   2
ATOM      2  O   UNL     1      -0.001 -10.385  15.745  0.00  0.00    -0.390 OA
ATOM     24  H   UNL     1       0.449  -9.566  16.017  0.00  0.00    +0.210 HD
ENDBRANCH  11   2
ENDBRANCH  13   9
BRANCH  15  16
ATOM     16  C   UNL     1      -7.715  -9.114  17.177  0.00  0.00    +0.251 C 
BRANCH  16   1
ATOM      1  S   UNL     1      -9.087  -9.942  16.422  0.00  0.00    +0.004 S 
ATOM      4  O   UNL     1      -8.699 -11.323  16.210  0.00  0.00    -0.169 OA
ATOM      5  O   UNL     1      -9.563  -9.132  15.318  0.00  0.00    -0.169 OA
BRANCH   1  17
ATOM     17  C   UNL     1     -10.339  -9.909  17.669  0.00  0.00    +0.089 A 
ATOM     18  C   UNL     1     -11.629  -9.488  17.349  0.00  0.00    +0.027 A 
ATOM     19  C   UNL     1     -10.036 -10.301  18.972  0.00  0.00    +0.027 A 
ATOM     20  C   UNL     1     -12.314  -9.852  19.638  0.00  0.00    -0.050 A 
ATOM     21  C   UNL     1     -12.618  -9.459  18.334  0.00  0.00    +0.005 A 
ATOM     22  C   UNL     1     -11.023 -10.273  19.957  0.00  0.00    +0.005 A 
ATOM     23  C   UNL     1     -13.370  -9.821  20.690  0.00  0.00    +0.044 C 
ENDBRANCH   1  17
ENDBRANCH  16   1
ENDBRANCH  15  16
TORSDOF 5
ENDMDL
MODEL 8
REMARK VINA RESULT:      -5.8      1.845      2.493
REMARK  Name = 26744529
REMARK  7 active torsions:
REMARK  status: ('A' for Active; 'I' for Inactive)
REMARK    1  A    between atoms: S_1  and  C_16
REMARK    2  A    between atoms: S_1  and  C_17
REMARK    3  A    between atoms: O_2  and  C_11
REMARK    4  A    between atoms: N_6  and  C_14
REMARK    5  A    between atoms: C_9  and  C_13
REMARK    6  A    between atoms: C_15  and  C_16
REMARK    7  A    between atoms: C_20  and  C_23
REMARK                            x       y       z     vdW  Elec       q    Type
REMARK                         _______ _______ _______ _____ _____    ______ ____
ROOT
ATOM      3  O   UNL     1      10.303   4.246   0.059  0.00  0.00    -0.336 OA
ATOM      7  N   UNL     1      11.972   4.718   1.477  0.00  0.00    -0.193 NA
ATOM      8  N   UNL     1       9.803   4.002   1.343  0.00  0.00    -0.060 NA
ATOM     13  C   UNL     1      11.585   4.663   0.227  0.00  0.00    +0.245 A 
ATOM     15  C   UNL     1      10.845   4.303   2.125  0.00  0.00    +0.193 A 
ENDROOT
BRANCH  13   9
ATOM      6  N   UNL     1      13.335   3.952  -1.396  0.00  0.00    -0.292 NA
ATOM      9  C   UNL     1      12.358   4.999  -1.032  0.00  0.00    +0.148 C 
ATOM     10  C   UNL     1      11.450   5.137  -2.269  0.00  0.00    +0.061 C 
ATOM     11  C   UNL     1      12.023   4.162  -3.289  0.00  0.00    +0.130 C 
ATOM     12  C   UNL     1      13.466   3.996  -2.851  0.00  0.00    +0.116 C 
ATOM     14  C   UNL     1      14.619   4.107  -0.724  0.00  0.00    +0.105 C 
BRANCH  11   2
ATOM      2  O   UNL     1      11.930   4.693  -4.597  0.00  0.00    -0.390 OA
ATOM     24  H   UNL     1      11.106   5.208  -4.645  0.00  0.00    +0.210 HD
ENDBRANCH  11   2
ENDBRANCH  13   9
BRANCH  15  16
ATOM     16  C   UNL     1      10.778   4.195   3.586  0.00  0.00    +0.251 C 
BRANCH  16   1
ATOM      1  S   UNL     1      10.637   5.823   4.269  0.00  0.00    +0.004 S 
ATOM      4  O   UNL     1       9.531   6.482   3.602  0.00  0.00    -0.169 OA
ATOM      5  O   UNL     1      11.954   6.430   4.288  0.00  0.00    -0.169 OA
BRANCH   1  17
ATOM     17  C   UNL     1      10.173   5.537   5.950  0.00  0.00    +0.089 A 
ATOM     18  C   UNL     1       9.932   6.617   6.800  0.00  0.00    +0.027 A 
ATOM     19  C   UNL     1      10.050   4.233   6.427  0.00  0.00    +0.027 A 
ATOM     20  C   UNL     1       9.445   5.087   8.605  0.00  0.00    -0.050 A 
ATOM     21  C   UNL     1       9.568   6.392   8.128  0.00  0.00    +0.005 A 
ATOM     22  C   UNL     1       9.686   4.007   7.755  0.00  0.00    +0.005 A 
ATOM     23  C   UNL     1       9.056   4.846  10.024  0.00  0.00    +0.044 C 
ENDBRANCH   1  17
ENDBRANCH  16   1
ENDBRANCH  15  16
TORSDOF 5
ENDMDL
MODEL 9
REMARK VINA RESULT:      -5.7     25.114     28.058
REMARK  Name = 26744529
REMARK  7 active torsions:
REMARK  status: ('A' for Active; 'I' for Inactive)
REMARK    1  A    between atoms: S_1  and  C_16
REMARK    2  A    between atoms: S_1  and  C_17
REMARK    3  A    between atoms: O_2  and  C_11
REMARK    4  A    between atoms: N_6  and  C_14
REMARK    5  A    between atoms: C_9  and  C_13
REMARK    6  A    between atoms: C_15  and  C_16
REMARK    7  A    between atoms: C_20  and  C_23
REMARK                            x       y       z     vdW  Elec       q    Type
REMARK                         _______ _______ _______ _____ _____    ______ ____
ROOT
ATOM      3  O   UNL     1     -14.046  -5.417  14.439  0.00  0.00    -0.336 OA
ATOM      7  N   UNL     1     -11.970  -5.187  13.629  0.00  0.00    -0.193 NA
ATOM      8  N   UNL     1     -14.137  -4.492  13.391  0.00  0.00    -0.060 NA
ATOM     13  C   UNL     1     -12.737  -5.774  14.512  0.00  0.00    +0.245 A 
ATOM     15  C   UNL     1     -12.874  -4.409  12.964  0.00  0.00    +0.193 A 
ENDROOT
BRANCH  13   9
ATOM      6  N   UNL     1     -11.908  -8.067  15.018  0.00  0.00    -0.292 NA
ATOM      9  C   UNL     1     -12.371  -6.783  15.582  0.00  0.00    +0.148 C 
ATOM     10  C   UNL     1     -11.213  -6.306  16.478  0.00  0.00    +0.061 C 
ATOM     11  C   UNL     1     -10.166  -7.408  16.389  0.00  0.00    +0.130 C 
ATOM     12  C   UNL     1     -10.970  -8.630  15.987  0.00  0.00    +0.116 C 
ATOM     14  C   UNL     1     -12.997  -8.985  14.711  0.00  0.00    +0.105 C 
BRANCH  11   2
ATOM      2  O   UNL     1      -9.523  -7.591  17.636  0.00  0.00    -0.390 OA
ATOM     24  H   UNL     1      -9.979  -7.027  18.285  0.00  0.00    +0.210 HD
ENDBRANCH  11   2
ENDBRANCH  13   9
BRANCH  15  16
ATOM     16  C   UNL     1     -12.485  -3.538  11.850  0.00  0.00    +0.251 C 
BRANCH  16   1
ATOM      1  S   UNL     1     -13.035  -4.275  10.336  0.00  0.00    +0.004 S 
ATOM      4  O   UNL     1     -13.519  -3.209   9.481  0.00  0.00    -0.169 OA
ATOM      5  O   UNL     1     -13.884  -5.407  10.656  0.00  0.00    -0.169 OA
BRANCH   1  17
ATOM     17  C   UNL     1     -11.555  -4.923   9.619  0.00  0.00    +0.089 A 
ATOM     18  C   UNL     1     -10.551  -4.056   9.191  0.00  0.00    +0.027 A 
ATOM     19  C   UNL     1     -11.393  -6.301   9.480  0.00  0.00    +0.027 A 
ATOM     20  C   UNL     1      -9.221  -5.945   8.484  0.00  0.00    -0.050 A 
ATOM     21  C   UNL     1      -9.383  -4.566   8.623  0.00  0.00    +0.005 A 
ATOM     22  C   UNL     1     -10.226  -6.813   8.912  0.00  0.00    +0.005 A 
ATOM     23  C   UNL     1      -7.974  -6.491   7.877  0.00  0.00    +0.044 C 
ENDBRANCH   1  17
ENDBRANCH  16   1
ENDBRANCH  15  16
TORSDOF 5
ENDMDL
MODEL 10
REMARK VINA RESULT:      -5.7     22.584     24.521
REMARK  Name = 26744529
REMARK  7 active torsions:
REMARK  status: ('A' for Active; 'I' for Inactive)
REMARK    1  A    between atoms: S_1  and  C_16
REMARK    2  A    between atoms: S_1  and  C_17
REMARK    3  A    between atoms: O_2  and  C_11
REMARK    4  A    between atoms: N_6  and  C_14
REMARK    5  A    between atoms: C_9  and  C_13
REMARK    6  A    between atoms: C_15  and  C_16
REMARK    7  A    between atoms: C_20  and  C_23
REMARK                            x       y       z     vdW  Elec       q    Type
REMARK                         _______ _______ _______ _____ _____    ______ ____
ROOT
ATOM      3  O   UNL     1      -6.128  -9.486   8.711  0.00  0.00    -0.336 OA
ATOM      7  N   UNL     1      -7.608  -8.346   9.947  0.00  0.00    -0.193 NA
ATOM      8  N   UNL     1      -7.283  -9.374   7.929  0.00  0.00    -0.060 NA
ATOM     13  C   UNL     1      -6.403  -8.855   9.882  0.00  0.00    +0.245 A 
ATOM     15  C   UNL     1      -8.110  -8.690   8.725  0.00  0.00    +0.193 A 
ENDROOT
BRANCH  13   9
ATOM      6  N   UNL     1      -5.350  -9.992  11.831  0.00  0.00    -0.292 NA
ATOM      9  C   UNL     1      -5.296  -8.834  10.916  0.00  0.00    +0.148 C 
ATOM     10  C   UNL     1      -3.892  -8.896  10.285  0.00  0.00    +0.061 C 
ATOM     11  C   UNL     1      -3.218 -10.094  10.942  0.00  0.00    +0.130 C 
ATOM     12  C   UNL     1      -3.974 -10.256  12.247  0.00  0.00    +0.116 C 
ATOM     14  C   UNL     1      -6.236  -9.783  12.969  0.00  0.00    +0.105 C 
BRANCH  11   2
ATOM      2  O   UNL     1      -1.844  -9.838  11.161  0.00  0.00    -0.390 OA
ATOM     24  H   UNL     1      -1.666  -8.928  10.866  0.00  0.00    +0.210 HD
ENDBRANCH  11   2
ENDBRANCH  13   9
BRANCH  15  16
ATOM     16  C   UNL     1      -9.470  -8.330   8.310  0.00  0.00    +0.251 C 
BRANCH  16   1
ATOM      1  S   UNL     1      -9.441  -6.695   7.628  0.00  0.00    +0.004 S 
ATOM      4  O   UNL     1     -10.155  -6.735   6.367  0.00  0.00    -0.169 OA
ATOM      5  O   UNL     1      -8.082  -6.194   7.691  0.00  0.00    -0.169 OA
BRANCH   1  17
ATOM     17  C   UNL     1     -10.397  -5.745   8.771  0.00  0.00    +0.089 A 
ATOM     18  C   UNL     1     -11.269  -6.385   9.652  0.00  0.00    +0.027 A 
ATOM     19  C   UNL     1     -10.282  -4.355   8.791  0.00  0.00    +0.027 A 
ATOM     20  C   UNL     1     -11.910  -4.245  10.572  0.00  0.00    -0.050 A 
ATOM     21  C   UNL     1     -12.026  -5.635  10.553  0.00  0.00    +0.005 A 
ATOM     22  C   UNL     1     -11.039  -3.605   9.691  0.00  0.00    +0.005 A 
ATOM     23  C   UNL     1     -12.720  -3.443  11.534  0.00  0.00    +0.044 C 
ENDBRANCH   1  17
ENDBRANCH  16   1
ENDBRANCH  15  16
TORSDOF 5
ENDMDL
