MODEL 1
REMARK VINA RESULT:      -8.9      0.000      0.000
REMARK  Name = 44716317
REMARK  7 active torsions:
REMARK  status: ('A' for Active; 'I' for Inactive)
REMARK    1  A    between atoms: N_4  and  C_15
REMARK    2  A    between atoms: N_5  and  C_18
REMARK    3  A    between atoms: C_9  and  C_15
REMARK    4  A    between atoms: C_10  and  C_16
REMARK    5  A    between atoms: C_18  and  C_20
REMARK    6  A    between atoms: C_19  and  C_21
REMARK    7  A    between atoms: C_31  and  C_32
REMARK                            x       y       z     vdW  Elec       q    Type
REMARK                         _______ _______ _______ _____ _____    ______ ____
ROOT
ATOM      3  N   UNL     1      14.511   9.405  18.819  0.00  0.00    -0.297 NA
ATOM      8  C   UNL     1      12.850   7.402  18.795  0.00  0.00    +0.005 C 
ATOM      9  C   UNL     1      15.080   8.266  19.588  0.00  0.00    +0.078 C 
ATOM     10  C   UNL     1      12.155   8.698  19.256  0.00  0.00    +0.092 C 
ATOM     11  C   UNL     1      14.051   7.120  19.720  0.00  0.00    +0.025 C 
ATOM     12  C   UNL     1      13.409   7.675  17.387  0.00  0.00    +0.020 C 
ATOM     13  C   UNL     1      13.206   9.814  19.394  0.00  0.00    +0.097 C 
ATOM     14  C   UNL     1      14.280   8.945  17.427  0.00  0.00    +0.085 C 
ENDROOT
BRANCH  10  16
ATOM      2  O   UNL     1      10.719   7.494  20.737  0.00  0.00    -0.275 OA
ATOM      5  N   UNL     1      11.551   9.561  21.408  0.00  0.00    -0.311 N 
ATOM     16  C   UNL     1      11.399   8.496  20.537  0.00  0.00    +0.218 C 
ATOM     38  H   UNL     1      12.139  10.346  21.140  0.00  0.00    +0.149 HD
BRANCH   5  18
ATOM     18  C   UNL     1      10.909   9.623  22.701  0.00  0.00    +0.139 C 
BRANCH  18  20
ATOM      1  F   UNL     1      11.151  14.785  24.935  0.00  0.00    -0.205 F 
ATOM     20  C   UNL     1      10.973  11.000  23.297  0.00  0.00    -0.030 A 
ATOM     22  C   UNL     1      11.014  11.158  24.682  0.00  0.00    +0.008 A 
ATOM     23  C   UNL     1      10.992  12.119  22.465  0.00  0.00    +0.008 A 
ATOM     26  C   UNL     1      11.074  12.437  25.236  0.00  0.00    +0.038 A 
ATOM     27  C   UNL     1      11.052  13.398  23.019  0.00  0.00    +0.038 A 
ATOM     30  C   UNL     1      11.093  13.557  24.404  0.00  0.00    +0.123 A 
ENDBRANCH  18  20
ENDBRANCH   5  18
ENDBRANCH  10  16
BRANCH   9  15
ATOM     15  C   UNL     1      15.628   8.697  20.951  0.00  0.00    +0.164 C 
BRANCH  15   4
ATOM      4  N   UNL     1      17.066   8.294  21.118  0.00  0.00    -0.250 N 
ATOM      6  N   UNL     1      18.030   9.222  21.225  0.00  0.00    -0.065 NA
ATOM      7  N   UNL     1      19.184   8.578  21.361  0.00  0.00    -0.130 NA
ATOM     17  C   UNL     1      17.574   7.033  21.183  0.00  0.00    +0.138 A 
ATOM     19  C   UNL     1      18.922   7.236  21.337  0.00  0.00    +0.113 A 
BRANCH  19  21
ATOM     21  C   UNL     1      19.909   6.212  21.457  0.00  0.00    +0.004 A 
ATOM     24  C   UNL     1      20.824   6.245  22.509  0.00  0.00    +0.011 A 
ATOM     25  C   UNL     1      19.957   5.176  20.522  0.00  0.00    +0.011 A 
ATOM     28  C   UNL     1      21.788   5.243  22.626  0.00  0.00    +0.009 A 
ATOM     29  C   UNL     1      20.921   4.176  20.639  0.00  0.00    +0.009 A 
ATOM     31  C   UNL     1      21.836   4.209  21.692  0.00  0.00    -0.018 A 
BRANCH  31  32
ATOM     32  C   UNL     1      22.834   3.169  21.813  0.00  0.00    -0.018 A 
ATOM     33  C   UNL     1      22.940   2.438  22.997  0.00  0.00    +0.008 A 
ATOM     34  C   UNL     1      23.691   2.896  20.747  0.00  0.00    +0.008 A 
ATOM     35  C   UNL     1      23.903   1.435  23.114  0.00  0.00    +0.001 A 
ATOM     36  C   UNL     1      24.653   1.892  20.864  0.00  0.00    +0.001 A 
ATOM     37  C   UNL     1      24.759   1.163  22.048  0.00  0.00    +0.000 A 
ENDBRANCH  31  32
ENDBRANCH  19  21
ENDBRANCH  15   4
ENDBRANCH   9  15
TORSDOF 7
ENDMDL
MODEL 2
REMARK VINA RESULT:      -8.4      2.965      4.733
REMARK  Name = 44716317
REMARK  7 active torsions:
REMARK  status: ('A' for Active; 'I' for Inactive)
REMARK    1  A    between atoms: N_4  and  C_15
REMARK    2  A    between atoms: N_5  and  C_18
REMARK    3  A    between atoms: C_9  and  C_15
REMARK    4  A    between atoms: C_10  and  C_16
REMARK    5  A    between atoms: C_18  and  C_20
REMARK    6  A    between atoms: C_19  and  C_21
REMARK    7  A    between atoms: C_31  and  C_32
REMARK                            x       y       z     vdW  Elec       q    Type
REMARK                         _______ _______ _______ _____ _____    ______ ____
ROOT
ATOM      3  N   UNL     1      13.811   7.300  20.463  0.00  0.00    -0.297 NA
ATOM      8  C   UNL     1      11.692   8.750  20.035  0.00  0.00    +0.005 C 
ATOM      9  C   UNL     1      14.147   8.742  20.601  0.00  0.00    +0.078 C 
ATOM     10  C   UNL     1      11.928   7.754  18.883  0.00  0.00    +0.092 C 
ATOM     11  C   UNL     1      12.947   9.630  20.203  0.00  0.00    +0.025 C 
ATOM     12  C   UNL     1      11.543   7.916  21.320  0.00  0.00    +0.020 C 
ATOM     13  C   UNL     1      13.265   7.026  19.110  0.00  0.00    +0.097 C 
ATOM     14  C   UNL     1      12.758   6.980  21.460  0.00  0.00    +0.085 C 
ENDROOT
BRANCH  10  16
ATOM      2  O   UNL     1      10.839   8.745  17.004  0.00  0.00    -0.275 OA
ATOM      5  N   UNL     1      13.163   8.630  17.027  0.00  0.00    -0.311 N 
ATOM     16  C   UNL     1      11.895   8.434  17.547  0.00  0.00    +0.218 C 
ATOM     38  H   UNL     1      13.974   8.331  17.562  0.00  0.00    +0.149 HD
BRANCH   5  18
ATOM     18  C   UNL     1      13.405   9.245  15.742  0.00  0.00    +0.139 C 
BRANCH  18  20
ATOM      1  F   UNL     1      17.224  13.370  16.061  0.00  0.00    -0.205 F 
ATOM     20  C   UNL     1      14.423  10.345  15.827  0.00  0.00    -0.030 A 
ATOM     22  C   UNL     1      14.431  11.204  16.926  0.00  0.00    +0.008 A 
ATOM     23  C   UNL     1      15.361  10.507  14.807  0.00  0.00    +0.008 A 
ATOM     26  C   UNL     1      15.377  12.226  17.005  0.00  0.00    +0.038 A 
ATOM     27  C   UNL     1      16.307  11.530  14.886  0.00  0.00    +0.038 A 
ATOM     30  C   UNL     1      16.315  12.389  15.985  0.00  0.00    +0.123 A 
ENDBRANCH  18  20
ENDBRANCH   5  18
ENDBRANCH  10  16
BRANCH   9  15
ATOM     15  C   UNL     1      15.415   9.123  19.833  0.00  0.00    +0.164 C 
BRANCH  15   4
ATOM      4  N   UNL     1      16.650   8.621  20.526  0.00  0.00    -0.250 N 
ATOM      6  N   UNL     1      17.228   9.339  21.502  0.00  0.00    -0.065 NA
ATOM      7  N   UNL     1      18.287   8.655  21.921  0.00  0.00    -0.130 NA
ATOM     17  C   UNL     1      17.321   7.460  20.293  0.00  0.00    +0.138 A 
ATOM     19  C   UNL     1      18.358   7.501  21.190  0.00  0.00    +0.113 A 
BRANCH  19  21
ATOM     21  C   UNL     1      19.363   6.499  21.347  0.00  0.00    +0.004 A 
ATOM     24  C   UNL     1      20.168   6.491  22.485  0.00  0.00    +0.011 A 
ATOM     25  C   UNL     1      19.537   5.526  20.362  0.00  0.00    +0.011 A 
ATOM     28  C   UNL     1      21.150   5.511  22.638  0.00  0.00    +0.009 A 
ATOM     29  C   UNL     1      20.518   4.547  20.515  0.00  0.00    +0.009 A 
ATOM     31  C   UNL     1      21.323   4.539  21.654  0.00  0.00    -0.018 A 
BRANCH  31  32
ATOM     32  C   UNL     1      22.340   3.522  21.813  0.00  0.00    -0.018 A 
ATOM     33  C   UNL     1      23.029   3.044  20.698  0.00  0.00    +0.008 A 
ATOM     34  C   UNL     1      22.632   3.020  23.081  0.00  0.00    +0.008 A 
ATOM     35  C   UNL     1      24.009   2.063  20.852  0.00  0.00    +0.001 A 
ATOM     36  C   UNL     1      23.614   2.040  23.235  0.00  0.00    +0.001 A 
ATOM     37  C   UNL     1      24.301   1.562  22.120  0.00  0.00    +0.000 A 
ENDBRANCH  31  32
ENDBRANCH  19  21
ENDBRANCH  15   4
ENDBRANCH   9  15
TORSDOF 7
ENDMDL
MODEL 3
REMARK VINA RESULT:      -7.9     28.565     32.271
REMARK  Name = 44716317
REMARK  7 active torsions:
REMARK  status: ('A' for Active; 'I' for Inactive)
REMARK    1  A    between atoms: N_4  and  C_15
REMARK    2  A    between atoms: N_5  and  C_18
REMARK    3  A    between atoms: C_9  and  C_15
REMARK    4  A    between atoms: C_10  and  C_16
REMARK    5  A    between atoms: C_18  and  C_20
REMARK    6  A    between atoms: C_19  and  C_21
REMARK    7  A    between atoms: C_31  and  C_32
REMARK                            x       y       z     vdW  Elec       q    Type
REMARK                         _______ _______ _______ _____ _____    ______ ____
ROOT
ATOM      3  N   UNL     1      -6.415 -10.393  17.493  0.00  0.00    -0.297 NA
ATOM      8  C   UNL     1      -4.359 -11.959  17.799  0.00  0.00    +0.005 C 
ATOM      9  C   UNL     1      -6.780 -11.787  17.122  0.00  0.00    +0.078 C 
ATOM     10  C   UNL     1      -4.004 -10.734  16.935  0.00  0.00    +0.092 C 
ATOM     11  C   UNL     1      -5.539 -12.708  17.148  0.00  0.00    +0.025 C 
ATOM     12  C   UNL     1      -4.851 -11.420  19.154  0.00  0.00    +0.020 C 
ATOM     13  C   UNL     1      -5.281  -9.920  16.663  0.00  0.00    +0.097 C 
ATOM     14  C   UNL     1      -5.979 -10.399  18.913  0.00  0.00    +0.085 C 
ENDROOT
BRANCH  10  16
ATOM      2  O   UNL     1      -2.138 -11.438  15.622  0.00  0.00    -0.275 OA
ATOM      5  N   UNL     1      -4.186 -11.090  14.573  0.00  0.00    -0.311 N 
ATOM     16  C   UNL     1      -3.326 -11.134  15.658  0.00  0.00    +0.218 C 
ATOM     38  H   UNL     1      -5.156 -10.822  14.715  0.00  0.00    +0.149 HD
BRANCH   5  18
ATOM     18  C   UNL     1      -3.775 -11.409  13.225  0.00  0.00    +0.139 C 
BRANCH  18  20
ATOM      1  F   UNL     1      -5.477  -7.523   9.524  0.00  0.00    -0.205 F 
ATOM     20  C   UNL     1      -4.229 -10.373  12.238  0.00  0.00    -0.030 A 
ATOM     22  C   UNL     1      -5.475  -9.765  12.389  0.00  0.00    +0.008 A 
ATOM     23  C   UNL     1      -3.404 -10.019  11.170  0.00  0.00    +0.008 A 
ATOM     26  C   UNL     1      -5.897  -8.802  11.473  0.00  0.00    +0.038 A 
ATOM     27  C   UNL     1      -3.827  -9.056  10.253  0.00  0.00    +0.038 A 
ATOM     30  C   UNL     1      -5.073  -8.448  10.404  0.00  0.00    +0.123 A 
ENDBRANCH  18  20
ENDBRANCH   5  18
ENDBRANCH  10  16
BRANCH   9  15
ATOM     15  C   UNL     1      -7.515 -11.861  15.782  0.00  0.00    +0.164 C 
BRANCH  15   4
ATOM      4  N   UNL     1      -8.710 -10.950  15.759  0.00  0.00    -0.250 N 
ATOM      6  N   UNL     1      -9.686 -11.075  16.671  0.00  0.00    -0.065 NA
ATOM      7  N   UNL     1     -10.599 -10.147  16.403  0.00  0.00    -0.130 NA
ATOM     17  C   UNL     1      -8.969  -9.940  14.883  0.00  0.00    +0.138 A 
ATOM     19  C   UNL     1     -10.174  -9.443  15.311  0.00  0.00    +0.113 A 
BRANCH  19  21
ATOM     21  C   UNL     1     -10.884  -8.358  14.715  0.00  0.00    +0.004 A 
ATOM     24  C   UNL     1     -11.539  -8.538  13.497  0.00  0.00    +0.011 A 
ATOM     25  C   UNL     1     -10.925  -7.117  15.352  0.00  0.00    +0.011 A 
ATOM     28  C   UNL     1     -12.234  -7.478  12.915  0.00  0.00    +0.009 A 
ATOM     29  C   UNL     1     -11.620  -6.057  14.770  0.00  0.00    +0.009 A 
ATOM     31  C   UNL     1     -12.275  -6.238  13.552  0.00  0.00    -0.018 A 
BRANCH  31  32
ATOM     32  C   UNL     1     -12.997  -5.138  12.950  0.00  0.00    -0.018 A 
ATOM     33  C   UNL     1     -14.188  -4.689  13.521  0.00  0.00    +0.008 A 
ATOM     34  C   UNL     1     -12.501  -4.526  11.799  0.00  0.00    +0.008 A 
ATOM     35  C   UNL     1     -14.883  -3.629  12.940  0.00  0.00    +0.001 A 
ATOM     36  C   UNL     1     -13.197  -3.464  11.218  0.00  0.00    +0.001 A 
ATOM     37  C   UNL     1     -14.388  -3.017  11.789  0.00  0.00    +0.000 A 
ENDBRANCH  31  32
ENDBRANCH  19  21
ENDBRANCH  15   4
ENDBRANCH   9  15
TORSDOF 7
ENDMDL
MODEL 4
REMARK VINA RESULT:      -7.7     18.937     23.494
REMARK  Name = 44716317
REMARK  7 active torsions:
REMARK  status: ('A' for Active; 'I' for Inactive)
REMARK    1  A    between atoms: N_4  and  C_15
REMARK    2  A    between atoms: N_5  and  C_18
REMARK    3  A    between atoms: C_9  and  C_15
REMARK    4  A    between atoms: C_10  and  C_16
REMARK    5  A    between atoms: C_18  and  C_20
REMARK    6  A    between atoms: C_19  and  C_21
REMARK    7  A    between atoms: C_31  and  C_32
REMARK                            x       y       z     vdW  Elec       q    Type
REMARK                         _______ _______ _______ _____ _____    ______ ____
ROOT
ATOM      3  N   UNL     1      10.724   6.414  -5.791  0.00  0.00    -0.297 NA
ATOM      8  C   UNL     1      12.866   6.765  -4.355  0.00  0.00    +0.005 C 
ATOM      9  C   UNL     1      10.348   6.828  -4.413  0.00  0.00    +0.078 C 
ATOM     10  C   UNL     1      12.873   5.385  -5.038  0.00  0.00    +0.092 C 
ATOM     11  C   UNL     1      11.591   6.895  -3.497  0.00  0.00    +0.025 C 
ATOM     12  C   UNL     1      12.772   7.816  -5.476  0.00  0.00    +0.020 C 
ATOM     13  C   UNL     1      11.527   5.167  -5.753  0.00  0.00    +0.097 C 
ATOM     14  C   UNL     1      11.565   7.488  -6.376  0.00  0.00    +0.085 C 
ENDROOT
BRANCH  10  16
ATOM      2  O   UNL     1      12.828   3.122  -4.278  0.00  0.00    -0.275 OA
ATOM      5  N   UNL     1      13.795   4.747  -2.921  0.00  0.00    -0.311 N 
ATOM     16  C   UNL     1      13.158   4.284  -4.060  0.00  0.00    +0.218 C 
ATOM     38  H   UNL     1      14.023   5.735  -2.843  0.00  0.00    +0.149 HD
BRANCH   5  18
ATOM     18  C   UNL     1      14.161   3.891  -1.816  0.00  0.00    +0.139 C 
BRANCH  18  20
ATOM      1  F   UNL     1      13.666   6.513   3.141  0.00  0.00    -0.205 F 
ATOM     20  C   UNL     1      14.029   4.590  -0.494  0.00  0.00    -0.030 A 
ATOM     22  C   UNL     1      13.690   5.942  -0.452  0.00  0.00    +0.008 A 
ATOM     23  C   UNL     1      14.247   3.887   0.691  0.00  0.00    +0.008 A 
ATOM     26  C   UNL     1      13.567   6.592   0.776  0.00  0.00    +0.038 A 
ATOM     27  C   UNL     1      14.124   4.537   1.919  0.00  0.00    +0.038 A 
ATOM     30  C   UNL     1      13.785   5.889   1.962  0.00  0.00    +0.123 A 
ENDBRANCH  18  20
ENDBRANCH   5  18
ENDBRANCH  10  16
BRANCH   9  15
ATOM     15  C   UNL     1       9.250   5.944  -3.817  0.00  0.00    +0.164 C 
BRANCH  15   4
ATOM      4  N   UNL     1       9.659   5.378  -2.486  0.00  0.00    -0.250 N 
ATOM      6  N   UNL     1      10.173   4.141  -2.396  0.00  0.00    -0.065 NA
ATOM      7  N   UNL     1      10.437   3.917  -1.113  0.00  0.00    -0.130 NA
ATOM     17  C   UNL     1       9.580   5.979  -1.268  0.00  0.00    +0.138 A 
ATOM     19  C   UNL     1      10.080   5.033  -0.408  0.00  0.00    +0.113 A 
BRANCH  19  21
ATOM     21  C   UNL     1      10.212   5.181   1.005  0.00  0.00    +0.004 A 
ATOM     24  C   UNL     1      10.526   4.075   1.795  0.00  0.00    +0.011 A 
ATOM     25  C   UNL     1      10.028   6.431   1.597  0.00  0.00    +0.011 A 
ATOM     28  C   UNL     1      10.656   4.219   3.177  0.00  0.00    +0.009 A 
ATOM     29  C   UNL     1      10.157   6.575   2.977  0.00  0.00    +0.009 A 
ATOM     31  C   UNL     1      10.472   5.469   3.767  0.00  0.00    -0.018 A 
BRANCH  31  32
ATOM     32  C   UNL     1      10.608   5.620   5.200  0.00  0.00    -0.018 A 
ATOM     33  C   UNL     1       9.774   4.903   6.058  0.00  0.00    +0.008 A 
ATOM     34  C   UNL     1      11.573   6.480   5.722  0.00  0.00    +0.008 A 
ATOM     35  C   UNL     1       9.906   5.048   7.440  0.00  0.00    +0.001 A 
ATOM     36  C   UNL     1      11.705   6.624   7.104  0.00  0.00    +0.001 A 
ATOM     37  C   UNL     1      10.871   5.908   7.962  0.00  0.00    +0.000 A 
ENDBRANCH  31  32
ENDBRANCH  19  21
ENDBRANCH  15   4
ENDBRANCH   9  15
TORSDOF 7
ENDMDL
MODEL 5
REMARK VINA RESULT:      -7.7     19.261     24.585
REMARK  Name = 44716317
REMARK  7 active torsions:
REMARK  status: ('A' for Active; 'I' for Inactive)
REMARK    1  A    between atoms: N_4  and  C_15
REMARK    2  A    between atoms: N_5  and  C_18
REMARK    3  A    between atoms: C_9  and  C_15
REMARK    4  A    between atoms: C_10  and  C_16
REMARK    5  A    between atoms: C_18  and  C_20
REMARK    6  A    between atoms: C_19  and  C_21
REMARK    7  A    between atoms: C_31  and  C_32
REMARK                            x       y       z     vdW  Elec       q    Type
REMARK                         _______ _______ _______ _____ _____    ______ ____
ROOT
ATOM      3  N   UNL     1      11.506   4.611  -0.054  0.00  0.00    -0.297 NA
ATOM      8  C   UNL     1      13.147   4.827   1.953  0.00  0.00    +0.005 C 
ATOM      9  C   UNL     1      12.360   5.816  -0.226  0.00  0.00    +0.078 C 
ATOM     10  C   UNL     1      11.693   4.669   2.436  0.00  0.00    +0.092 C 
ATOM     11  C   UNL     1      13.237   6.054   1.024  0.00  0.00    +0.025 C 
ATOM     12  C   UNL     1      13.471   3.585   1.105  0.00  0.00    +0.020 C 
ATOM     13  C   UNL     1      10.750   4.693   1.220  0.00  0.00    +0.097 C 
ATOM     14  C   UNL     1      12.397   3.425   0.011  0.00  0.00    +0.085 C 
ENDROOT
BRANCH  10  16
ATOM      2  O   UNL     1      12.158   6.488   3.912  0.00  0.00    -0.275 OA
ATOM      5  N   UNL     1       9.974   5.702   3.748  0.00  0.00    -0.311 N 
ATOM     16  C   UNL     1      11.323   5.725   3.436  0.00  0.00    +0.218 C 
ATOM     38  H   UNL     1       9.368   5.024   3.294  0.00  0.00    +0.149 HD
BRANCH   5  18
ATOM     18  C   UNL     1       9.367   6.603   4.701  0.00  0.00    +0.139 C 
BRANCH  18  20
ATOM      1  F   UNL     1       9.591   4.586   9.952  0.00  0.00    -0.205 F 
ATOM     20  C   UNL     1       9.426   6.065   6.101  0.00  0.00    -0.030 A 
ATOM     22  C   UNL     1       9.822   4.747   6.325  0.00  0.00    +0.008 A 
ATOM     23  C   UNL     1       9.086   6.885   7.177  0.00  0.00    +0.008 A 
ATOM     26  C   UNL     1       9.878   4.246   7.626  0.00  0.00    +0.038 A 
ATOM     27  C   UNL     1       9.142   6.384   8.479  0.00  0.00    +0.038 A 
ATOM     30  C   UNL     1       9.537   5.065   8.702  0.00  0.00    +0.123 A 
ENDBRANCH  18  20
ENDBRANCH   5  18
ENDBRANCH  10  16
BRANCH   9  15
ATOM     15  C   UNL     1      11.549   7.059  -0.597  0.00  0.00    +0.164 C 
BRANCH  15   4
ATOM      4  N   UNL     1      10.537   6.758  -1.666  0.00  0.00    -0.250 N 
ATOM      6  N   UNL     1      10.926   6.344  -2.882  0.00  0.00    -0.065 NA
ATOM      7  N   UNL     1       9.828   6.160  -3.607  0.00  0.00    -0.130 NA
ATOM     17  C   UNL     1       9.182   6.851  -1.578  0.00  0.00    +0.138 A 
ATOM     19  C   UNL     1       8.750   6.466  -2.822  0.00  0.00    +0.113 A 
BRANCH  19  21
ATOM     21  C   UNL     1       7.389   6.393  -3.245  0.00  0.00    +0.004 A 
ATOM     24  C   UNL     1       6.411   7.129  -2.577  0.00  0.00    +0.011 A 
ATOM     25  C   UNL     1       7.037   5.585  -4.327  0.00  0.00    +0.011 A 
ATOM     28  C   UNL     1       5.080   7.058  -2.991  0.00  0.00    +0.009 A 
ATOM     29  C   UNL     1       5.707   5.513  -4.740  0.00  0.00    +0.009 A 
ATOM     31  C   UNL     1       4.729   6.251  -4.073  0.00  0.00    -0.018 A 
BRANCH  31  32
ATOM     32  C   UNL     1       3.350   6.177  -4.503  0.00  0.00    -0.018 A 
ATOM     33  C   UNL     1       2.619   5.005  -4.305  0.00  0.00    +0.008 A 
ATOM     34  C   UNL     1       2.750   7.278  -5.113  0.00  0.00    +0.008 A 
ATOM     35  C   UNL     1       1.289   4.935  -4.720  0.00  0.00    +0.001 A 
ATOM     36  C   UNL     1       1.419   7.209  -5.526  0.00  0.00    +0.001 A 
ATOM     37  C   UNL     1       0.689   6.036  -5.330  0.00  0.00    +0.000 A 
ENDBRANCH  31  32
ENDBRANCH  19  21
ENDBRANCH  15   4
ENDBRANCH   9  15
TORSDOF 7
ENDMDL
MODEL 6
REMARK VINA RESULT:      -7.6     16.255     20.879
REMARK  Name = 44716317
REMARK  7 active torsions:
REMARK  status: ('A' for Active; 'I' for Inactive)
REMARK    1  A    between atoms: N_4  and  C_15
REMARK    2  A    between atoms: N_5  and  C_18
REMARK    3  A    between atoms: C_9  and  C_15
REMARK    4  A    between atoms: C_10  and  C_16
REMARK    5  A    between atoms: C_18  and  C_20
REMARK    6  A    between atoms: C_19  and  C_21
REMARK    7  A    between atoms: C_31  and  C_32
REMARK                            x       y       z     vdW  Elec       q    Type
REMARK                         _______ _______ _______ _____ _____    ______ ____
ROOT
ATOM      3  N   UNL     1       9.809   8.517   8.086  0.00  0.00    -0.297 NA
ATOM      8  C   UNL     1       9.483   9.978   5.957  0.00  0.00    +0.005 C 
ATOM      9  C   UNL     1      11.054   8.511   7.272  0.00  0.00    +0.078 C 
ATOM     10  C   UNL     1       8.353   8.941   6.100  0.00  0.00    +0.092 C 
ATOM     11  C   UNL     1      10.839   9.244   5.928  0.00  0.00    +0.025 C 
ATOM     12  C   UNL     1       9.458  10.842   7.231  0.00  0.00    +0.020 C 
ATOM     13  C   UNL     1       8.668   8.010   7.285  0.00  0.00    +0.097 C 
ATOM     14  C   UNL     1       9.520   9.923   8.466  0.00  0.00    +0.085 C 
ENDROOT
BRANCH  10  16
ATOM      2  O   UNL     1       7.977   6.948   4.838  0.00  0.00    -0.275 OA
ATOM      5  N   UNL     1       8.211   8.970   3.709  0.00  0.00    -0.311 N 
ATOM     16  C   UNL     1       8.151   8.163   4.833  0.00  0.00    +0.218 C 
ATOM     38  H   UNL     1       8.362   9.969   3.818  0.00  0.00    +0.149 HD
BRANCH   5  18
ATOM     18  C   UNL     1       8.068   8.462   2.363  0.00  0.00    +0.139 C 
BRANCH  18  20
ATOM      1  F   UNL     1      12.801   9.050  -0.629  0.00  0.00    -0.205 F 
ATOM     20  C   UNL     1       9.330   8.619   1.565  0.00  0.00    -0.030 A 
ATOM     22  C   UNL     1       9.379   8.174   0.244  0.00  0.00    +0.008 A 
ATOM     23  C   UNL     1      10.453   9.209   2.146  0.00  0.00    +0.008 A 
ATOM     26  C   UNL     1      10.552   8.319  -0.497  0.00  0.00    +0.038 A 
ATOM     27  C   UNL     1      11.626   9.354   1.404  0.00  0.00    +0.038 A 
ATOM     30  C   UNL     1      11.675   8.909   0.083  0.00  0.00    +0.123 A 
ENDBRANCH  18  20
ENDBRANCH   5  18
ENDBRANCH  10  16
BRANCH   9  15
ATOM     15  C   UNL     1      11.611   7.100   7.067  0.00  0.00    +0.164 C 
BRANCH  15   4
ATOM      4  N   UNL     1      12.000   6.864   5.635  0.00  0.00    -0.250 N 
ATOM      6  N   UNL     1      13.164   7.328   5.155  0.00  0.00    -0.065 NA
ATOM      7  N   UNL     1      13.235   6.972   3.877  0.00  0.00    -0.130 NA
ATOM     17  C   UNL     1      11.293   6.199   4.681  0.00  0.00    +0.138 A 
ATOM     19  C   UNL     1      12.096   6.279   3.571  0.00  0.00    +0.113 A 
BRANCH  19  21
ATOM     21  C   UNL     1      11.799   5.728   2.288  0.00  0.00    +0.004 A 
ATOM     24  C   UNL     1      10.540   5.182   2.038  0.00  0.00    +0.011 A 
ATOM     25  C   UNL     1      12.768   5.736   1.283  0.00  0.00    +0.011 A 
ATOM     28  C   UNL     1      10.250   4.644   0.784  0.00  0.00    +0.009 A 
ATOM     29  C   UNL     1      12.478   5.198   0.030  0.00  0.00    +0.009 A 
ATOM     31  C   UNL     1      11.219   4.653  -0.220  0.00  0.00    -0.018 A 
BRANCH  31  32
ATOM     32  C   UNL     1      10.918   4.096  -1.521  0.00  0.00    -0.018 A 
ATOM     33  C   UNL     1      11.628   2.990  -1.988  0.00  0.00    +0.008 A 
ATOM     34  C   UNL     1       9.916   4.665  -2.307  0.00  0.00    +0.008 A 
ATOM     35  C   UNL     1      11.337   2.454  -3.242  0.00  0.00    +0.001 A 
ATOM     36  C   UNL     1       9.624   4.127  -3.562  0.00  0.00    +0.001 A 
ATOM     37  C   UNL     1      10.336   3.022  -4.029  0.00  0.00    +0.000 A 
ENDBRANCH  31  32
ENDBRANCH  19  21
ENDBRANCH  15   4
ENDBRANCH   9  15
TORSDOF 7
ENDMDL
MODEL 7
REMARK VINA RESULT:      -7.6     28.891     31.628
REMARK  Name = 44716317
REMARK  7 active torsions:
REMARK  status: ('A' for Active; 'I' for Inactive)
REMARK    1  A    between atoms: N_4  and  C_15
REMARK    2  A    between atoms: N_5  and  C_18
REMARK    3  A    between atoms: C_9  and  C_15
REMARK    4  A    between atoms: C_10  and  C_16
REMARK    5  A    between atoms: C_18  and  C_20
REMARK    6  A    between atoms: C_19  and  C_21
REMARK    7  A    between atoms: C_31  and  C_32
REMARK                            x       y       z     vdW  Elec       q    Type
REMARK                         _______ _______ _______ _____ _____    ______ ____
ROOT
ATOM      3  N   UNL     1      -6.290 -12.119   5.466  0.00  0.00    -0.297 NA
ATOM      8  C   UNL     1      -4.078 -12.362   6.815  0.00  0.00    +0.005 C 
ATOM      9  C   UNL     1      -6.113 -10.946   6.364  0.00  0.00    +0.078 C 
ATOM     10  C   UNL     1      -4.953 -13.623   6.946  0.00  0.00    +0.092 C 
ATOM     11  C   UNL     1      -4.889 -11.138   7.287  0.00  0.00    +0.025 C 
ATOM     12  C   UNL     1      -3.793 -12.171   5.315  0.00  0.00    +0.020 C 
ATOM     13  C   UNL     1      -6.305 -13.375   6.255  0.00  0.00    +0.097 C 
ATOM     14  C   UNL     1      -5.127 -12.166   4.544  0.00  0.00    +0.085 C 
ENDROOT
BRANCH  10  16
ATOM      2  O   UNL     1      -6.231 -14.352   8.827  0.00  0.00    -0.275 OA
ATOM      5  N   UNL     1      -3.954 -13.955   9.098  0.00  0.00    -0.311 N 
ATOM     16  C   UNL     1      -5.136 -14.025   8.380  0.00  0.00    +0.218 C 
ATOM     38  H   UNL     1      -3.100 -13.669   8.628  0.00  0.00    +0.149 HD
BRANCH   5  18
ATOM     18  C   UNL     1      -3.864 -14.270  10.506  0.00  0.00    +0.139 C 
BRANCH  18  20
ATOM      1  F   UNL     1      -1.946  -9.922  13.525  0.00  0.00    -0.205 F 
ATOM     20  C   UNL     1      -3.353 -13.110  11.311  0.00  0.00    -0.030 A 
ATOM     22  C   UNL     1      -2.972 -13.298  12.639  0.00  0.00    +0.008 A 
ATOM     23  C   UNL     1      -3.259 -11.846  10.730  0.00  0.00    +0.008 A 
ATOM     26  C   UNL     1      -2.496 -12.221  13.387  0.00  0.00    +0.038 A 
ATOM     27  C   UNL     1      -2.784 -10.768  11.478  0.00  0.00    +0.038 A 
ATOM     30  C   UNL     1      -2.403 -10.956  12.807  0.00  0.00    +0.123 A 
ENDBRANCH  18  20
ENDBRANCH   5  18
ENDBRANCH  10  16
BRANCH   9  15
ATOM     15  C   UNL     1      -7.380 -10.624   7.160  0.00  0.00    +0.164 C 
BRANCH  15   4
ATOM      4  N   UNL     1      -7.057 -10.216   8.569  0.00  0.00    -0.250 N 
ATOM      6  N   UNL     1      -6.901  -8.922   8.890  0.00  0.00    -0.065 NA
ATOM      7  N   UNL     1      -6.624  -8.867  10.188  0.00  0.00    -0.130 NA
ATOM     17  C   UNL     1      -6.885 -11.025   9.650  0.00  0.00    +0.138 A 
ATOM     19  C   UNL     1      -6.611 -10.148  10.669  0.00  0.00    +0.113 A 
BRANCH  19  21
ATOM     21  C   UNL     1      -6.351 -10.505  12.027  0.00  0.00    +0.004 A 
ATOM     24  C   UNL     1      -5.871  -9.547  12.920  0.00  0.00    +0.011 A 
ATOM     25  C   UNL     1      -6.579 -11.811  12.461  0.00  0.00    +0.011 A 
ATOM     28  C   UNL     1      -5.618  -9.896  14.247  0.00  0.00    +0.009 A 
ATOM     29  C   UNL     1      -6.325 -12.160  13.787  0.00  0.00    +0.009 A 
ATOM     31  C   UNL     1      -5.846 -11.201  14.680  0.00  0.00    -0.018 A 
BRANCH  31  32
ATOM     32  C   UNL     1      -5.584 -11.563  16.056  0.00  0.00    -0.018 A 
ATOM     33  C   UNL     1      -6.263 -12.635  16.636  0.00  0.00    +0.008 A 
ATOM     34  C   UNL     1      -4.654 -10.841  16.802  0.00  0.00    +0.008 A 
ATOM     35  C   UNL     1      -6.010 -12.984  17.963  0.00  0.00    +0.001 A 
ATOM     36  C   UNL     1      -4.400 -11.191  18.129  0.00  0.00    +0.001 A 
ATOM     37  C   UNL     1      -5.079 -12.262  18.709  0.00  0.00    +0.000 A 
ENDBRANCH  31  32
ENDBRANCH  19  21
ENDBRANCH  15   4
ENDBRANCH   9  15
TORSDOF 7
ENDMDL
MODEL 8
REMARK VINA RESULT:      -7.6     24.999     28.786
REMARK  Name = 44716317
REMARK  7 active torsions:
REMARK  status: ('A' for Active; 'I' for Inactive)
REMARK    1  A    between atoms: N_4  and  C_15
REMARK    2  A    between atoms: N_5  and  C_18
REMARK    3  A    between atoms: C_9  and  C_15
REMARK    4  A    between atoms: C_10  and  C_16
REMARK    5  A    between atoms: C_18  and  C_20
REMARK    6  A    between atoms: C_19  and  C_21
REMARK    7  A    between atoms: C_31  and  C_32
REMARK                            x       y       z     vdW  Elec       q    Type
REMARK                         _______ _______ _______ _____ _____    ______ ____
ROOT
ATOM      3  N   UNL     1     -11.046   9.202  19.928  0.00  0.00    -0.297 NA
ATOM      8  C   UNL     1     -11.994   9.208  17.505  0.00  0.00    +0.005 C 
ATOM      9  C   UNL     1     -12.390   9.838  19.911  0.00  0.00    +0.078 C 
ATOM     10  C   UNL     1     -10.579   9.815  17.552  0.00  0.00    +0.092 C 
ATOM     11  C   UNL     1     -12.910   9.993  18.464  0.00  0.00    +0.025 C 
ATOM     12  C   UNL     1     -11.880   7.774  18.052  0.00  0.00    +0.020 C 
ATOM     13  C   UNL     1     -10.123   9.924  19.018  0.00  0.00    +0.097 C 
ATOM     14  C   UNL     1     -11.194   7.811  19.431  0.00  0.00    +0.085 C 
ENDROOT
BRANCH  10  16
ATOM      2  O   UNL     1     -10.835  11.278  15.681  0.00  0.00    -0.275 OA
ATOM      5  N   UNL     1     -10.071  12.152  17.699  0.00  0.00    -0.311 N 
ATOM     16  C   UNL     1     -10.524  11.147  16.861  0.00  0.00    +0.218 C 
ATOM     38  H   UNL     1      -9.838  11.932  18.663  0.00  0.00    +0.149 HD
BRANCH   5  18
ATOM     18  C   UNL     1      -9.906  13.523  17.271  0.00  0.00    +0.139 C 
BRANCH  18  20
ATOM      1  F   UNL     1      -4.483  14.914  16.683  0.00  0.00    -0.205 F 
ATOM     20  C   UNL     1      -8.460  13.894  17.114  0.00  0.00    -0.030 A 
ATOM     22  C   UNL     1      -7.642  13.163  16.252  0.00  0.00    +0.008 A 
ATOM     23  C   UNL     1      -7.935  14.969  17.831  0.00  0.00    +0.008 A 
ATOM     26  C   UNL     1      -6.299  13.508  16.106  0.00  0.00    +0.038 A 
ATOM     27  C   UNL     1      -6.590  15.314  17.685  0.00  0.00    +0.038 A 
ATOM     30  C   UNL     1      -5.773  14.583  16.824  0.00  0.00    +0.123 A 
ENDBRANCH  18  20
ENDBRANCH   5  18
ENDBRANCH  10  16
BRANCH   9  15
ATOM     15  C   UNL     1     -12.417  11.167  20.670  0.00  0.00    +0.164 C 
BRANCH  15   4
ATOM      4  N   UNL     1     -12.805  10.972  22.109  0.00  0.00    -0.250 N 
ATOM      6  N   UNL     1     -14.068  10.666  22.443  0.00  0.00    -0.065 NA
ATOM      7  N   UNL     1     -14.111  10.557  23.767  0.00  0.00    -0.130 NA
ATOM     17  C   UNL     1     -12.004  11.067  23.206  0.00  0.00    +0.138 A 
ATOM     19  C   UNL     1     -12.854  10.800  24.249  0.00  0.00    +0.113 A 
BRANCH  19  21
ATOM     21  C   UNL     1     -12.494  10.775  25.630  0.00  0.00    +0.004 A 
ATOM     24  C   UNL     1     -13.481  10.876  26.610  0.00  0.00    +0.011 A 
ATOM     25  C   UNL     1     -11.154  10.649  26.000  0.00  0.00    +0.011 A 
ATOM     28  C   UNL     1     -13.128  10.851  27.960  0.00  0.00    +0.009 A 
ATOM     29  C   UNL     1     -10.802  10.624  27.348  0.00  0.00    +0.009 A 
ATOM     31  C   UNL     1     -11.789  10.724  28.329  0.00  0.00    -0.018 A 
BRANCH  31  32
ATOM     32  C   UNL     1     -11.423  10.697  29.728  0.00  0.00    -0.018 A 
ATOM     33  C   UNL     1     -11.712   9.574  30.503  0.00  0.00    +0.008 A 
ATOM     34  C   UNL     1     -10.781  11.794  30.302  0.00  0.00    +0.008 A 
ATOM     35  C   UNL     1     -11.359   9.547  31.852  0.00  0.00    +0.001 A 
ATOM     36  C   UNL     1     -10.426  11.767  31.652  0.00  0.00    +0.001 A 
ATOM     37  C   UNL     1     -10.716  10.644  32.426  0.00  0.00    +0.000 A 
ENDBRANCH  31  32
ENDBRANCH  19  21
ENDBRANCH  15   4
ENDBRANCH   9  15
TORSDOF 7
ENDMDL
MODEL 9
REMARK VINA RESULT:      -7.6      2.793      5.094
REMARK  Name = 44716317
REMARK  7 active torsions:
REMARK  status: ('A' for Active; 'I' for Inactive)
REMARK    1  A    between atoms: N_4  and  C_15
REMARK    2  A    between atoms: N_5  and  C_18
REMARK    3  A    between atoms: C_9  and  C_15
REMARK    4  A    between atoms: C_10  and  C_16
REMARK    5  A    between atoms: C_18  and  C_20
REMARK    6  A    between atoms: C_19  and  C_21
REMARK    7  A    between atoms: C_31  and  C_32
REMARK                            x       y       z     vdW  Elec       q    Type
REMARK                         _______ _______ _______ _____ _____    ______ ____
ROOT
ATOM      3  N   UNL     1      14.861  12.286  23.855  0.00  0.00    -0.297 NA
ATOM      8  C   UNL     1      12.654  13.652  24.039  0.00  0.00    +0.005 C 
ATOM      9  C   UNL     1      14.434  12.744  22.505  0.00  0.00    +0.078 C 
ATOM     10  C   UNL     1      12.525  12.287  24.741  0.00  0.00    +0.092 C 
ATOM     11  C   UNL     1      13.048  13.425  22.566  0.00  0.00    +0.025 C 
ATOM     12  C   UNL     1      13.821  14.392  24.716  0.00  0.00    +0.020 C 
ATOM     13  C   UNL     1      13.798  11.462  24.480  0.00  0.00    +0.097 C 
ATOM     14  C   UNL     1      15.070  13.490  24.698  0.00  0.00    +0.085 C 
ENDROOT
BRANCH  10  16
ATOM      2  O   UNL     1      10.167  11.939  24.591  0.00  0.00    -0.275 OA
ATOM      5  N   UNL     1      11.599  10.411  23.574  0.00  0.00    -0.311 N 
ATOM     16  C   UNL     1      11.295  11.551  24.300  0.00  0.00    +0.218 C 
ATOM     38  H   UNL     1      12.571  10.180  23.391  0.00  0.00    +0.149 HD
BRANCH   5  18
ATOM     18  C   UNL     1      10.593   9.515  23.052  0.00  0.00    +0.139 C 
BRANCH  18  20
ATOM      1  F   UNL     1      12.470   6.578  18.630  0.00  0.00    -0.205 F 
ATOM     20  C   UNL     1      11.093   8.732  21.872  0.00  0.00    -0.030 A 
ATOM     22  C   UNL     1      11.231   7.347  21.963  0.00  0.00    +0.008 A 
ATOM     23  C   UNL     1      11.420   9.390  20.687  0.00  0.00    +0.008 A 
ATOM     26  C   UNL     1      11.696   6.619  20.868  0.00  0.00    +0.038 A 
ATOM     27  C   UNL     1      11.886   8.662  19.591  0.00  0.00    +0.038 A 
ATOM     30  C   UNL     1      12.024   7.277  19.682  0.00  0.00    +0.123 A 
ENDBRANCH  18  20
ENDBRANCH   5  18
ENDBRANCH  10  16
BRANCH   9  15
ATOM     15  C   UNL     1      14.469  11.618  21.469  0.00  0.00    +0.164 C 
BRANCH  15   4
ATOM      4  N   UNL     1      15.844  11.025  21.346  0.00  0.00    -0.250 N 
ATOM      6  N   UNL     1      16.879  11.773  20.931  0.00  0.00    -0.065 NA
ATOM      7  N   UNL     1      17.953  10.990  20.921  0.00  0.00    -0.130 NA
ATOM     17  C   UNL     1      16.225   9.746  21.612  0.00  0.00    +0.138 A 
ATOM     19  C   UNL     1      17.569   9.745  21.336  0.00  0.00    +0.113 A 
BRANCH  19  21
ATOM     21  C   UNL     1      18.443   8.623  21.459  0.00  0.00    +0.004 A 
ATOM     24  C   UNL     1      18.151   7.435  20.788  0.00  0.00    +0.011 A 
ATOM     25  C   UNL     1      19.589   8.715  22.249  0.00  0.00    +0.011 A 
ATOM     28  C   UNL     1      19.006   6.339  20.907  0.00  0.00    +0.009 A 
ATOM     29  C   UNL     1      20.443   7.619  22.369  0.00  0.00    +0.009 A 
ATOM     31  C   UNL     1      20.152   6.431  21.697  0.00  0.00    -0.018 A 
BRANCH  31  32
ATOM     32  C   UNL     1      21.039   5.295  21.820  0.00  0.00    -0.018 A 
ATOM     33  C   UNL     1      21.890   5.191  22.920  0.00  0.00    +0.008 A 
ATOM     34  C   UNL     1      21.042   4.303  20.840  0.00  0.00    +0.008 A 
ATOM     35  C   UNL     1      22.745   4.095  23.039  0.00  0.00    +0.001 A 
ATOM     36  C   UNL     1      21.896   3.206  20.959  0.00  0.00    +0.001 A 
ATOM     37  C   UNL     1      22.748   3.103  22.059  0.00  0.00    +0.000 A 
ENDBRANCH  31  32
ENDBRANCH  19  21
ENDBRANCH  15   4
ENDBRANCH   9  15
TORSDOF 7
ENDMDL
MODEL 10
REMARK VINA RESULT:      -7.5     28.827     33.678
REMARK  Name = 44716317
REMARK  7 active torsions:
REMARK  status: ('A' for Active; 'I' for Inactive)
REMARK    1  A    between atoms: N_4  and  C_15
REMARK    2  A    between atoms: N_5  and  C_18
REMARK    3  A    between atoms: C_9  and  C_15
REMARK    4  A    between atoms: C_10  and  C_16
REMARK    5  A    between atoms: C_18  and  C_20
REMARK    6  A    between atoms: C_19  and  C_21
REMARK    7  A    between atoms: C_31  and  C_32
REMARK                            x       y       z     vdW  Elec       q    Type
REMARK                         _______ _______ _______ _____ _____    ______ ____
ROOT
ATOM      3  N   UNL     1      -7.907 -10.841   6.592  0.00  0.00    -0.297 NA
ATOM      8  C   UNL     1      -5.402 -11.277   6.039  0.00  0.00    +0.005 C 
ATOM      9  C   UNL     1      -7.087  -9.670   7.002  0.00  0.00    +0.078 C 
ATOM     10  C   UNL     1      -6.003 -12.437   6.856  0.00  0.00    +0.092 C 
ATOM     11  C   UNL     1      -5.580  -9.963   6.826  0.00  0.00    +0.025 C 
ATOM     12  C   UNL     1      -6.240 -11.158   4.754  0.00  0.00    +0.020 C 
ATOM     13  C   UNL     1      -7.435 -12.067   7.281  0.00  0.00    +0.097 C 
ATOM     14  C   UNL     1      -7.729 -11.034   5.131  0.00  0.00    +0.085 C 
ENDROOT
BRANCH  10  16
ATOM      2  O   UNL     1      -4.140 -13.468   7.937  0.00  0.00    -0.275 OA
ATOM      5  N   UNL     1      -5.656 -12.253   9.219  0.00  0.00    -0.311 N 
ATOM     16  C   UNL     1      -5.151 -12.779   8.042  0.00  0.00    +0.218 C 
ATOM     38  H   UNL     1      -6.505 -11.696   9.193  0.00  0.00    +0.149 HD
BRANCH   5  18
ATOM     18  C   UNL     1      -5.033 -12.456  10.508  0.00  0.00    +0.139 C 
BRANCH  18  20
ATOM      1  F   UNL     1      -0.885  -8.768  11.451  0.00  0.00    -0.205 F 
ATOM     20  C   UNL     1      -3.927 -11.473  10.759  0.00  0.00    -0.030 A 
ATOM     22  C   UNL     1      -3.911 -10.254  10.082  0.00  0.00    +0.008 A 
ATOM     23  C   UNL     1      -2.916 -11.779  11.670  0.00  0.00    +0.008 A 
ATOM     26  C   UNL     1      -2.883  -9.340  10.316  0.00  0.00    +0.038 A 
ATOM     27  C   UNL     1      -1.887 -10.866  11.903  0.00  0.00    +0.038 A 
ATOM     30  C   UNL     1      -1.871  -9.646  11.226  0.00  0.00    +0.123 A 
ENDBRANCH  18  20
ENDBRANCH   5  18
ENDBRANCH  10  16
BRANCH   9  15
ATOM     15  C   UNL     1      -7.412  -9.197   8.420  0.00  0.00    +0.164 C 
BRANCH  15   4
ATOM      4  N   UNL     1      -8.075  -7.848   8.413  0.00  0.00    -0.250 N 
ATOM      6  N   UNL     1      -7.389  -6.749   8.059  0.00  0.00    -0.065 NA
ATOM      7  N   UNL     1      -8.223  -5.718   8.147  0.00  0.00    -0.130 NA
ATOM     17  C   UNL     1      -9.363  -7.553   8.736  0.00  0.00    +0.138 A 
ATOM     19  C   UNL     1      -9.437  -6.194   8.560  0.00  0.00    +0.113 A 
BRANCH  19  21
ATOM     21  C   UNL     1     -10.597  -5.390   8.773  0.00  0.00    +0.004 A 
ATOM     24  C   UNL     1     -11.867  -5.949   8.639  0.00  0.00    +0.011 A 
ATOM     25  C   UNL     1     -10.459  -4.044   9.115  0.00  0.00    +0.011 A 
ATOM     28  C   UNL     1     -13.001  -5.163   8.848  0.00  0.00    +0.009 A 
ATOM     29  C   UNL     1     -11.592  -3.258   9.323  0.00  0.00    +0.009 A 
ATOM     31  C   UNL     1     -12.863  -3.818   9.190  0.00  0.00    -0.018 A 
BRANCH  31  32
ATOM     32  C   UNL     1     -14.038  -3.003   9.408  0.00  0.00    -0.018 A 
ATOM     33  C   UNL     1     -14.616  -2.936  10.676  0.00  0.00    +0.008 A 
ATOM     34  C   UNL     1     -14.592  -2.282   8.350  0.00  0.00    +0.008 A 
ATOM     35  C   UNL     1     -15.749  -2.149  10.885  0.00  0.00    +0.001 A 
ATOM     36  C   UNL     1     -15.725  -1.494   8.560  0.00  0.00    +0.001 A 
ATOM     37  C   UNL     1     -16.303  -1.429   9.827  0.00  0.00    +0.000 A 
ENDBRANCH  31  32
ENDBRANCH  19  21
ENDBRANCH  15   4
ENDBRANCH   9  15
TORSDOF 7
ENDMDL
