MODEL 1
REMARK VINA RESULT:      -7.8      0.000      0.000
REMARK  Name = 45784224
REMARK  5 active torsions:
REMARK  status: ('A' for Active; 'I' for Inactive)
REMARK    1  A    between atoms: N_1  and  C_9
REMARK    2  A    between atoms: N_4  and  C_21
REMARK    3  A    between atoms: C_5  and  C_10
REMARK    4  A    between atoms: C_9  and  C_11
REMARK    5  A    between atoms: C_22  and  C_26
REMARK                            x       y       z     vdW  Elec       q    Type
REMARK                         _______ _______ _______ _____ _____    ______ ____
ROOT
ATOM      1  N   UNL     1      11.833   4.573   1.552  0.00  0.00    -0.297 NA
ATOM      5  C   UNL     1      10.297   5.495   3.064  0.00  0.00    +0.070 C 
ATOM      6  C   UNL     1      11.035   4.195   2.721  0.00  0.00    +0.096 C 
ATOM      7  C   UNL     1      11.183   6.612   2.486  0.00  0.00    +0.028 C 
ATOM      8  C   UNL     1      12.378   5.891   1.878  0.00  0.00    +0.085 C 
ENDROOT
BRANCH   5  10
ATOM      2  N   UNL     1      10.241   4.603   5.410  0.00  0.00    -0.342 N 
ATOM      3  N   UNL     1       9.476   6.673   5.144  0.00  0.00    -0.232 NA
ATOM     10  C   UNL     1       9.990   5.627   4.538  0.00  0.00    +0.113 A 
ATOM     13  C   UNL     1       9.863   5.017   6.661  0.00  0.00    +0.066 A 
ATOM     15  C   UNL     1       9.389   6.312   6.469  0.00  0.00    +0.089 A 
ATOM     18  C   UNL     1       9.894   4.389   7.907  0.00  0.00    +0.031 A 
ATOM     19  C   UNL     1       8.914   7.039   7.574  0.00  0.00    +0.030 A 
ATOM     22  C   UNL     1       9.417   5.128   8.996  0.00  0.00    -0.048 A 
ATOM     24  C   UNL     1       8.936   6.428   8.835  0.00  0.00    +0.005 A 
ATOM     26  C   UNL     1       9.424   4.510  10.356  0.00  0.00    +0.044 C 
ATOM     27  H   UNL     1      10.634   3.701   5.177  0.00  0.00    +0.167 HD
ENDBRANCH   5  10
BRANCH   1   9
ATOM      9  C   UNL     1      12.875   3.601   1.252  0.00  0.00    +0.121 C 
BRANCH   9  11
ATOM      4  N   UNL     1      14.811   4.294  -1.799  0.00  0.00    -0.349 N 
ATOM     11  C   UNL     1      13.434   3.789  -0.134  0.00  0.00    -0.008 A 
ATOM     12  C   UNL     1      12.776   3.492  -1.360  0.00  0.00    +0.004 A 
ATOM     14  C   UNL     1      14.683   4.280  -0.436  0.00  0.00    +0.091 A 
ATOM     16  C   UNL     1      13.662   3.818  -2.388  0.00  0.00    +0.049 A 
ATOM     17  C   UNL     1      11.510   2.974  -1.694  0.00  0.00    +0.010 A 
ATOM     20  C   UNL     1      13.342   3.653  -3.741  0.00  0.00    +0.026 A 
ATOM     21  C   UNL     1      15.991   4.748  -2.502  0.00  0.00    +0.149 C 
ATOM     23  C   UNL     1      11.176   2.804  -3.043  0.00  0.00    +0.001 A 
ATOM     25  C   UNL     1      12.080   3.139  -4.048  0.00  0.00    +0.002 A 
ENDBRANCH   9  11
ENDBRANCH   1   9
TORSDOF 3
ENDMDL
MODEL 2
REMARK VINA RESULT:      -7.3     17.898     20.527
REMARK  Name = 45784224
REMARK  5 active torsions:
REMARK  status: ('A' for Active; 'I' for Inactive)
REMARK    1  A    between atoms: N_1  and  C_9
REMARK    2  A    between atoms: N_4  and  C_21
REMARK    3  A    between atoms: C_5  and  C_10
REMARK    4  A    between atoms: C_9  and  C_11
REMARK    5  A    between atoms: C_22  and  C_26
REMARK                            x       y       z     vdW  Elec       q    Type
REMARK                         _______ _______ _______ _____ _____    ______ ____
ROOT
ATOM      1  N   UNL     1      13.131   7.133  20.152  0.00  0.00    -0.297 NA
ATOM      5  C   UNL     1      11.695   8.313  21.583  0.00  0.00    +0.070 C 
ATOM      6  C   UNL     1      13.177   8.006  21.328  0.00  0.00    +0.096 C 
ATOM      7  C   UNL     1      11.017   8.123  20.216  0.00  0.00    +0.028 C 
ATOM      8  C   UNL     1      12.145   7.750  19.264  0.00  0.00    +0.085 C 
ENDROOT
BRANCH   5  10
ATOM      2  N   UNL     1      11.360   9.805  23.574  0.00  0.00    -0.342 N 
ATOM      3  N   UNL     1      11.372  10.820  21.596  0.00  0.00    -0.232 NA
ATOM     10  C   UNL     1      11.475   9.667  22.218  0.00  0.00    +0.113 A 
ATOM     13  C   UNL     1      11.170  11.136  23.843  0.00  0.00    +0.066 A 
ATOM     15  C   UNL     1      11.181  11.748  22.594  0.00  0.00    +0.089 A 
ATOM     18  C   UNL     1      10.994  11.836  25.038  0.00  0.00    +0.031 A 
ATOM     19  C   UNL     1      11.009  13.141  22.510  0.00  0.00    +0.030 A 
ATOM     22  C   UNL     1      10.824  13.221  24.936  0.00  0.00    -0.048 A 
ATOM     24  C   UNL     1      10.831  13.864  23.697  0.00  0.00    +0.005 A 
ATOM     26  C   UNL     1      10.631  14.026  26.180  0.00  0.00    +0.044 C 
ATOM     27  H   UNL     1      11.405   9.061  24.257  0.00  0.00    +0.167 HD
ENDBRANCH   5  10
BRANCH   1   9
ATOM      9  C   UNL     1      14.433   6.985  19.518  0.00  0.00    +0.121 C 
BRANCH   9  11
ATOM      4  N   UNL     1      16.322  10.033  20.346  0.00  0.00    -0.349 N 
ATOM     11  C   UNL     1      15.398   8.051  19.967  0.00  0.00    -0.008 A 
ATOM     12  C   UNL     1      16.640   7.843  20.629  0.00  0.00    +0.004 A 
ATOM     14  C   UNL     1      15.230   9.406  19.806  0.00  0.00    +0.091 A 
ATOM     16  C   UNL     1      17.199   9.102  20.855  0.00  0.00    +0.049 A 
ATOM     17  C   UNL     1      17.344   6.702  21.060  0.00  0.00    +0.010 A 
ATOM     20  C   UNL     1      18.432   9.278  21.493  0.00  0.00    +0.026 A 
ATOM     21  C   UNL     1      16.509  11.467  20.368  0.00  0.00    +0.149 C 
ATOM     23  C   UNL     1      18.580   6.862  21.699  0.00  0.00    +0.001 A 
ATOM     25  C   UNL     1      19.113   8.132  21.910  0.00  0.00    +0.002 A 
ENDBRANCH   9  11
ENDBRANCH   1   9
TORSDOF 3
ENDMDL
MODEL 3
REMARK VINA RESULT:      -7.2     22.399     26.046
REMARK  Name = 45784224
REMARK  5 active torsions:
REMARK  status: ('A' for Active; 'I' for Inactive)
REMARK    1  A    between atoms: N_1  and  C_9
REMARK    2  A    between atoms: N_4  and  C_21
REMARK    3  A    between atoms: C_5  and  C_10
REMARK    4  A    between atoms: C_9  and  C_11
REMARK    5  A    between atoms: C_22  and  C_26
REMARK                            x       y       z     vdW  Elec       q    Type
REMARK                         _______ _______ _______ _____ _____    ______ ____
ROOT
ATOM      1  N   UNL     1      -4.271 -10.726  15.116  0.00  0.00    -0.297 NA
ATOM      5  C   UNL     1      -5.810  -9.538  16.428  0.00  0.00    +0.070 C 
ATOM      6  C   UNL     1      -5.557 -10.035  14.998  0.00  0.00    +0.096 C 
ATOM      7  C   UNL     1      -5.003 -10.496  17.321  0.00  0.00    +0.028 C 
ATOM      8  C   UNL     1      -4.366 -11.491  16.360  0.00  0.00    +0.085 C 
ENDROOT
BRANCH   5  10
ATOM      2  N   UNL     1      -8.163  -8.825  15.923  0.00  0.00    -0.342 N 
ATOM      3  N   UNL     1      -7.871  -9.904  17.845  0.00  0.00    -0.232 NA
ATOM     10  C   UNL     1      -7.280  -9.441  16.766  0.00  0.00    +0.113 A 
ATOM     13  C   UNL     1      -9.407  -8.896  16.496  0.00  0.00    +0.066 A 
ATOM     15  C   UNL     1      -9.198  -9.573  17.694  0.00  0.00    +0.089 A 
ATOM     18  C   UNL     1     -10.659  -8.440  16.082  0.00  0.00    +0.031 A 
ATOM     19  C   UNL     1     -10.291  -9.820  18.543  0.00  0.00    +0.030 A 
ATOM     22  C   UNL     1     -11.736  -8.693  16.939  0.00  0.00    -0.048 A 
ATOM     24  C   UNL     1     -11.558  -9.370  18.147  0.00  0.00    +0.005 A 
ATOM     26  C   UNL     1     -13.102  -8.230  16.552  0.00  0.00    +0.044 C 
ATOM     27  H   UNL     1      -7.943  -8.394  15.035  0.00  0.00    +0.167 HD
ENDBRANCH   5  10
BRANCH   1   9
ATOM      9  C   UNL     1      -3.987 -11.572  13.966  0.00  0.00    +0.121 C 
BRANCH   9  11
ATOM      4  N   UNL     1      -1.918  -9.703  11.565  0.00  0.00    -0.349 N 
ATOM     11  C   UNL     1      -3.382 -10.790  12.830  0.00  0.00    -0.008 A 
ATOM     12  C   UNL     1      -4.053 -10.341  11.659  0.00  0.00    +0.004 A 
ATOM     14  C   UNL     1      -2.071 -10.383  12.744  0.00  0.00    +0.091 A 
ATOM     16  C   UNL     1      -3.113  -9.662  10.883  0.00  0.00    +0.049 A 
ATOM     17  C   UNL     1      -5.375 -10.448  11.183  0.00  0.00    +0.010 A 
ATOM     20  C   UNL     1      -3.428  -9.082   9.650  0.00  0.00    +0.026 A 
ATOM     21  C   UNL     1      -0.672  -9.118  11.118  0.00  0.00    +0.149 C 
ATOM     23  C   UNL     1      -5.706  -9.872   9.951  0.00  0.00    +0.001 A 
ATOM     25  C   UNL     1      -4.746  -9.200   9.198  0.00  0.00    +0.002 A 
ENDBRANCH   9  11
ENDBRANCH   1   9
TORSDOF 3
ENDMDL
MODEL 4
REMARK VINA RESULT:      -7.1     25.677     28.891
REMARK  Name = 45784224
REMARK  5 active torsions:
REMARK  status: ('A' for Active; 'I' for Inactive)
REMARK    1  A    between atoms: N_1  and  C_9
REMARK    2  A    between atoms: N_4  and  C_21
REMARK    3  A    between atoms: C_5  and  C_10
REMARK    4  A    between atoms: C_9  and  C_11
REMARK    5  A    between atoms: C_22  and  C_26
REMARK                            x       y       z     vdW  Elec       q    Type
REMARK                         _______ _______ _______ _____ _____    ______ ____
ROOT
ATOM      1  N   UNL     1     -10.924  -7.495  15.800  0.00  0.00    -0.297 NA
ATOM      5  C   UNL     1      -9.625  -9.324  16.481  0.00  0.00    +0.070 C 
ATOM      6  C   UNL     1      -9.747  -8.260  15.382  0.00  0.00    +0.096 C 
ATOM      7  C   UNL     1     -10.319  -8.703  17.704  0.00  0.00    +0.028 C 
ATOM      8  C   UNL     1     -10.768  -7.323  17.245  0.00  0.00    +0.085 C 
ENDROOT
BRANCH   5  10
ATOM      2  N   UNL     1      -7.222  -9.540  15.785  0.00  0.00    -0.342 N 
ATOM      3  N   UNL     1      -7.732 -10.385  17.778  0.00  0.00    -0.232 NA
ATOM     10  C   UNL     1      -8.198  -9.765  16.716  0.00  0.00    +0.113 A 
ATOM     13  C   UNL     1      -6.048 -10.048  16.279  0.00  0.00    +0.066 A 
ATOM     15  C   UNL     1      -6.392 -10.569  17.523  0.00  0.00    +0.089 A 
ATOM     18  C   UNL     1      -4.753 -10.094  15.760  0.00  0.00    +0.031 A 
ATOM     19  C   UNL     1      -5.399 -11.176  18.311  0.00  0.00    +0.030 A 
ATOM     22  C   UNL     1      -3.777 -10.702  16.558  0.00  0.00    -0.048 A 
ATOM     24  C   UNL     1      -4.092 -11.234  17.810  0.00  0.00    +0.005 A 
ATOM     26  C   UNL     1      -2.372 -10.783  16.057  0.00  0.00    +0.044 C 
ATOM     27  H   UNL     1      -7.341  -9.082  14.892  0.00  0.00    +0.167 HD
ENDBRANCH   5  10
BRANCH   1   9
ATOM      9  C   UNL     1     -11.039  -6.224  15.099  0.00  0.00    +0.121 C 
BRANCH   9  11
ATOM      4  N   UNL     1     -14.646  -6.107  14.385  0.00  0.00    -0.349 N 
ATOM     11  C   UNL     1     -12.443  -5.976  14.615  0.00  0.00    -0.008 A 
ATOM     12  C   UNL     1     -12.841  -5.049  13.611  0.00  0.00    +0.004 A 
ATOM     14  C   UNL     1     -13.574  -6.611  15.072  0.00  0.00    +0.091 A 
ATOM     16  C   UNL     1     -14.227  -5.151  13.487  0.00  0.00    +0.049 A 
ATOM     17  C   UNL     1     -12.152  -4.130  12.795  0.00  0.00    +0.010 A 
ATOM     20  C   UNL     1     -14.963  -4.378  12.582  0.00  0.00    +0.026 A 
ATOM     21  C   UNL     1     -16.015  -6.529  14.587  0.00  0.00    +0.149 C 
ATOM     23  C   UNL     1     -12.875  -3.350  11.886  0.00  0.00    +0.001 A 
ATOM     25  C   UNL     1     -14.259  -3.474  11.782  0.00  0.00    +0.002 A 
ENDBRANCH   9  11
ENDBRANCH   1   9
TORSDOF 3
ENDMDL
MODEL 5
REMARK VINA RESULT:      -7.1     26.122     28.807
REMARK  Name = 45784224
REMARK  5 active torsions:
REMARK  status: ('A' for Active; 'I' for Inactive)
REMARK    1  A    between atoms: N_1  and  C_9
REMARK    2  A    between atoms: N_4  and  C_21
REMARK    3  A    between atoms: C_5  and  C_10
REMARK    4  A    between atoms: C_9  and  C_11
REMARK    5  A    between atoms: C_22  and  C_26
REMARK                            x       y       z     vdW  Elec       q    Type
REMARK                         _______ _______ _______ _____ _____    ______ ____
ROOT
ATOM      1  N   UNL     1      -9.357  -8.738  16.511  0.00  0.00    -0.297 NA
ATOM      5  C   UNL     1     -10.993  -7.061  16.390  0.00  0.00    +0.070 C 
ATOM      6  C   UNL     1      -9.743  -7.596  15.678  0.00  0.00    +0.096 C 
ATOM      7  C   UNL     1     -11.552  -8.270  17.159  0.00  0.00    +0.028 C 
ATOM      8  C   UNL     1     -10.614  -9.421  16.820  0.00  0.00    +0.085 C 
ENDROOT
BRANCH   5  10
ATOM      2  N   UNL     1     -11.568  -5.429  14.571  0.00  0.00    -0.342 N 
ATOM      3  N   UNL     1     -13.257  -6.652  15.344  0.00  0.00    -0.232 NA
ATOM     10  C   UNL     1     -11.971  -6.400  15.446  0.00  0.00    +0.113 A 
ATOM     13  C   UNL     1     -12.668  -5.029  13.857  0.00  0.00    +0.066 A 
ATOM     15  C   UNL     1     -13.708  -5.806  14.357  0.00  0.00    +0.089 A 
ATOM     18  C   UNL     1     -12.837  -4.081  12.846  0.00  0.00    +0.031 A 
ATOM     19  C   UNL     1     -15.001  -5.643  13.830  0.00  0.00    +0.030 A 
ATOM     22  C   UNL     1     -14.130  -3.932  12.333  0.00  0.00    -0.048 A 
ATOM     24  C   UNL     1     -15.194  -4.697  12.815  0.00  0.00    +0.005 A 
ATOM     26  C   UNL     1     -14.375  -2.934  11.249  0.00  0.00    +0.044 C 
ATOM     27  H   UNL     1     -10.629  -5.069  14.467  0.00  0.00    +0.167 HD
ENDBRANCH   5  10
BRANCH   1   9
ATOM      9  C   UNL     1      -8.399  -9.611  15.849  0.00  0.00    +0.121 C 
BRANCH   9  11
ATOM      4  N   UNL     1      -6.258 -10.708  18.633  0.00  0.00    -0.349 N 
ATOM     11  C   UNL     1      -7.317 -10.071  16.790  0.00  0.00    -0.008 A 
ATOM     12  C   UNL     1      -5.962 -10.343  16.452  0.00  0.00    +0.004 A 
ATOM     14  C   UNL     1      -7.469 -10.303  18.137  0.00  0.00    +0.091 A 
ATOM     16  C   UNL     1      -5.320 -10.741  17.626  0.00  0.00    +0.049 A 
ATOM     17  C   UNL     1      -5.218 -10.291  15.257  0.00  0.00    +0.010 A 
ATOM     20  C   UNL     1      -3.966 -11.089  17.666  0.00  0.00    +0.026 A 
ATOM     21  C   UNL     1      -6.018 -11.046  20.019  0.00  0.00    +0.149 C 
ATOM     23  C   UNL     1      -3.862 -10.637  15.281  0.00  0.00    +0.001 A 
ATOM     25  C   UNL     1      -3.248 -11.029  16.468  0.00  0.00    +0.002 A 
ENDBRANCH   9  11
ENDBRANCH   1   9
TORSDOF 3
ENDMDL
MODEL 6
REMARK VINA RESULT:      -7.0     17.516     21.698
REMARK  Name = 45784224
REMARK  5 active torsions:
REMARK  status: ('A' for Active; 'I' for Inactive)
REMARK    1  A    between atoms: N_1  and  C_9
REMARK    2  A    between atoms: N_4  and  C_21
REMARK    3  A    between atoms: C_5  and  C_10
REMARK    4  A    between atoms: C_9  and  C_11
REMARK    5  A    between atoms: C_22  and  C_26
REMARK                            x       y       z     vdW  Elec       q    Type
REMARK                         _______ _______ _______ _____ _____    ______ ____
ROOT
ATOM      1  N   UNL     1      21.775   4.441  21.139  0.00  0.00    -0.297 NA
ATOM      5  C   UNL     1      20.186   6.080  20.603  0.00  0.00    +0.070 C 
ATOM      6  C   UNL     1      20.527   4.599  20.389  0.00  0.00    +0.096 C 
ATOM      7  C   UNL     1      20.888   6.456  21.919  0.00  0.00    +0.028 C 
ATOM      8  C   UNL     1      21.559   5.172  22.388  0.00  0.00    +0.085 C 
ENDROOT
BRANCH   5  10
ATOM      2  N   UNL     1      17.989   6.302  19.409  0.00  0.00    -0.342 N 
ATOM      3  N   UNL     1      17.936   6.650  21.604  0.00  0.00    -0.232 NA
ATOM     10  C   UNL     1      18.699   6.351  20.577  0.00  0.00    +0.113 A 
ATOM     13  C   UNL     1      16.681   6.589  19.704  0.00  0.00    +0.066 A 
ATOM     15  C   UNL     1      16.674   6.802  21.079  0.00  0.00    +0.089 A 
ATOM     18  C   UNL     1      15.537   6.678  18.909  0.00  0.00    +0.031 A 
ATOM     19  C   UNL     1      15.463   7.124  21.717  0.00  0.00    +0.030 A 
ATOM     22  C   UNL     1      14.341   6.999  19.560  0.00  0.00    -0.048 A 
ATOM     24  C   UNL     1      14.303   7.218  20.939  0.00  0.00    +0.005 A 
ATOM     26  C   UNL     1      13.082   7.108  18.764  0.00  0.00    +0.044 C 
ATOM     27  H   UNL     1      18.358   6.093  18.492  0.00  0.00    +0.167 HD
ENDBRANCH   5  10
BRANCH   1   9
ATOM      9  C   UNL     1      22.115   3.044  21.366  0.00  0.00    +0.121 C 
BRANCH   9  11
ATOM      4  N   UNL     1      25.708   2.919  20.584  0.00  0.00    -0.349 N 
ATOM     11  C   UNL     1      23.597   2.803  21.260  0.00  0.00    -0.008 A 
ATOM     12  C   UNL     1      24.373   1.928  22.071  0.00  0.00    +0.004 A 
ATOM     14  C   UNL     1      24.445   3.398  20.355  0.00  0.00    +0.091 A 
ATOM     16  C   UNL     1      25.692   2.019  21.626  0.00  0.00    +0.049 A 
ATOM     17  C   UNL     1      24.078   1.065  23.145  0.00  0.00    +0.010 A 
ATOM     20  C   UNL     1      26.737   1.287  22.202  0.00  0.00    +0.026 A 
ATOM     21  C   UNL     1      26.877   3.312  19.828  0.00  0.00    +0.149 C 
ATOM     23  C   UNL     1      25.112   0.326  23.731  0.00  0.00    +0.001 A 
ATOM     25  C   UNL     1      26.420   0.437  23.265  0.00  0.00    +0.002 A 
ENDBRANCH   9  11
ENDBRANCH   1   9
TORSDOF 3
ENDMDL
MODEL 7
REMARK VINA RESULT:      -6.9     25.760     28.911
REMARK  Name = 45784224
REMARK  5 active torsions:
REMARK  status: ('A' for Active; 'I' for Inactive)
REMARK    1  A    between atoms: N_1  and  C_9
REMARK    2  A    between atoms: N_4  and  C_21
REMARK    3  A    between atoms: C_5  and  C_10
REMARK    4  A    between atoms: C_9  and  C_11
REMARK    5  A    between atoms: C_22  and  C_26
REMARK                            x       y       z     vdW  Elec       q    Type
REMARK                         _______ _______ _______ _____ _____    ______ ____
ROOT
ATOM      1  N   UNL     1      -9.128  -9.162  16.368  0.00  0.00    -0.297 NA
ATOM      5  C   UNL     1     -10.385  -7.195  16.145  0.00  0.00    +0.070 C 
ATOM      6  C   UNL     1      -9.634  -8.258  15.332  0.00  0.00    +0.096 C 
ATOM      7  C   UNL     1     -10.767  -7.904  17.456  0.00  0.00    +0.028 C 
ATOM      8  C   UNL     1     -10.242  -9.325  17.303  0.00  0.00    +0.085 C 
ENDROOT
BRANCH   5  10
ATOM      2  N   UNL     1     -11.379  -5.479  14.606  0.00  0.00    -0.342 N 
ATOM      3  N   UNL     1     -12.789  -7.011  15.386  0.00  0.00    -0.232 NA
ATOM     10  C   UNL     1     -11.545  -6.587  15.391  0.00  0.00    +0.113 A 
ATOM     13  C   UNL     1     -12.597  -5.169  14.058  0.00  0.00    +0.066 A 
ATOM     15  C   UNL     1     -13.460  -6.139  14.560  0.00  0.00    +0.089 A 
ATOM     18  C   UNL     1     -13.006  -4.153  13.193  0.00  0.00    +0.031 A 
ATOM     19  C   UNL     1     -14.815  -6.111  14.187  0.00  0.00    +0.030 A 
ATOM     22  C   UNL     1     -14.358  -4.140  12.832  0.00  0.00    -0.048 A 
ATOM     24  C   UNL     1     -15.248  -5.100  13.319  0.00  0.00    +0.005 A 
ATOM     26  C   UNL     1     -14.857  -3.078  11.908  0.00  0.00    +0.044 C 
ATOM     27  H   UNL     1     -10.515  -4.976  14.455  0.00  0.00    +0.167 HD
ENDBRANCH   5  10
BRANCH   1   9
ATOM      9  C   UNL     1      -8.673 -10.432  15.822  0.00  0.00    +0.121 C 
BRANCH   9  11
ATOM      4  N   UNL     1      -5.014 -10.806  15.695  0.00  0.00    -0.349 N 
ATOM     11  C   UNL     1      -7.199 -10.644  16.050  0.00  0.00    -0.008 A 
ATOM     12  C   UNL     1      -6.572 -10.977  17.282  0.00  0.00    +0.004 A 
ATOM     14  C   UNL     1      -6.216 -10.545  15.092  0.00  0.00    +0.091 A 
ATOM     16  C   UNL     1      -5.202 -11.073  17.032  0.00  0.00    +0.049 A 
ATOM     17  C   UNL     1      -7.040 -11.206  18.591  0.00  0.00    +0.010 A 
ATOM     20  C   UNL     1      -4.273 -11.388  18.029  0.00  0.00    +0.026 A 
ATOM     21  C   UNL     1      -3.740 -10.798  15.009  0.00  0.00    +0.149 C 
ATOM     23  C   UNL     1      -6.122 -11.523  19.599  0.00  0.00    +0.001 A 
ATOM     25  C   UNL     1      -4.760 -11.612  19.320  0.00  0.00    +0.002 A 
ENDBRANCH   9  11
ENDBRANCH   1   9
TORSDOF 3
ENDMDL
MODEL 8
REMARK VINA RESULT:      -6.9     17.882     20.677
REMARK  Name = 45784224
REMARK  5 active torsions:
REMARK  status: ('A' for Active; 'I' for Inactive)
REMARK    1  A    between atoms: N_1  and  C_9
REMARK    2  A    between atoms: N_4  and  C_21
REMARK    3  A    between atoms: C_5  and  C_10
REMARK    4  A    between atoms: C_9  and  C_11
REMARK    5  A    between atoms: C_22  and  C_26
REMARK                            x       y       z     vdW  Elec       q    Type
REMARK                         _______ _______ _______ _____ _____    ______ ____
ROOT
ATOM      1  N   UNL     1      20.074   6.127  20.884  0.00  0.00    -0.297 NA
ATOM      5  C   UNL     1      18.161   7.446  20.561  0.00  0.00    +0.070 C 
ATOM      6  C   UNL     1      18.819   6.129  20.127  0.00  0.00    +0.096 C 
ATOM      7  C   UNL     1      18.767   7.747  21.942  0.00  0.00    +0.028 C 
ATOM      8  C   UNL     1      19.705   6.581  22.225  0.00  0.00    +0.085 C 
ENDROOT
BRANCH   5  10
ATOM      2  N   UNL     1      15.904   7.723  21.625  0.00  0.00    -0.342 N 
ATOM      3  N   UNL     1      15.900   7.032  19.512  0.00  0.00    -0.232 NA
ATOM     10  C   UNL     1      16.651   7.388  20.529  0.00  0.00    +0.113 A 
ATOM     13  C   UNL     1      14.583   7.573  21.291  0.00  0.00    +0.066 A 
ATOM     15  C   UNL     1      14.606   7.141  19.968  0.00  0.00    +0.089 A 
ATOM     18  C   UNL     1      13.404   7.772  22.012  0.00  0.00    +0.031 A 
ATOM     19  C   UNL     1      13.391   6.888  19.307  0.00  0.00    +0.030 A 
ATOM     22  C   UNL     1      12.204   7.515  21.339  0.00  0.00    -0.048 A 
ATOM     24  C   UNL     1      12.196   7.081  20.011  0.00  0.00    +0.005 A 
ATOM     26  C   UNL     1      10.909   7.710  22.056  0.00  0.00    +0.044 C 
ATOM     27  H   UNL     1      16.259   8.027  22.521  0.00  0.00    +0.167 HD
ENDBRANCH   5  10
BRANCH   1   9
ATOM      9  C   UNL     1      20.712   4.819  20.897  0.00  0.00    +0.121 C 
BRANCH   9  11
ATOM      4  N   UNL     1      24.251   5.765  20.546  0.00  0.00    -0.349 N 
ATOM     11  C   UNL     1      22.210   4.925  20.786  0.00  0.00    -0.008 A 
ATOM     12  C   UNL     1      23.143   3.854  20.863  0.00  0.00    +0.004 A 
ATOM     14  C   UNL     1      22.920   6.087  20.590  0.00  0.00    +0.091 A 
ATOM     16  C   UNL     1      24.415   4.408  20.710  0.00  0.00    +0.049 A 
ATOM     17  C   UNL     1      23.027   2.463  21.051  0.00  0.00    +0.010 A 
ATOM     20  C   UNL     1      25.582   3.636  20.735  0.00  0.00    +0.026 A 
ATOM     21  C   UNL     1      25.316   6.724  20.354  0.00  0.00    +0.149 C 
ATOM     23  C   UNL     1      24.186   1.678  21.077  0.00  0.00    +0.001 A 
ATOM     25  C   UNL     1      25.443   2.258  20.921  0.00  0.00    +0.002 A 
ENDBRANCH   9  11
ENDBRANCH   1   9
TORSDOF 3
ENDMDL
MODEL 9
REMARK VINA RESULT:      -6.9     23.042     25.788
REMARK  Name = 45784224
REMARK  5 active torsions:
REMARK  status: ('A' for Active; 'I' for Inactive)
REMARK    1  A    between atoms: N_1  and  C_9
REMARK    2  A    between atoms: N_4  and  C_21
REMARK    3  A    between atoms: C_5  and  C_10
REMARK    4  A    between atoms: C_9  and  C_11
REMARK    5  A    between atoms: C_22  and  C_26
REMARK                            x       y       z     vdW  Elec       q    Type
REMARK                         _______ _______ _______ _____ _____    ______ ____
ROOT
ATOM      1  N   UNL     1      -4.909  -9.925  11.939  0.00  0.00    -0.297 NA
ATOM      5  C   UNL     1      -4.527  -9.593   9.649  0.00  0.00    +0.070 C 
ATOM      6  C   UNL     1      -4.784 -10.687  10.694  0.00  0.00    +0.096 C 
ATOM      7  C   UNL     1      -5.139  -8.321  10.257  0.00  0.00    +0.028 C 
ATOM      8  C   UNL     1      -5.730  -8.765  11.589  0.00  0.00    +0.085 C 
ENDROOT
BRANCH   5  10
ATOM      2  N   UNL     1      -5.943  -9.154   7.623  0.00  0.00    -0.342 N 
ATOM      3  N   UNL     1      -4.734 -11.019   7.572  0.00  0.00    -0.232 NA
ATOM     10  C   UNL     1      -5.048  -9.955   8.277  0.00  0.00    +0.113 A 
ATOM     13  C   UNL     1      -6.223  -9.740   6.416  0.00  0.00    +0.066 A 
ATOM     15  C   UNL     1      -5.458 -10.902   6.408  0.00  0.00    +0.089 A 
ATOM     18  C   UNL     1      -7.057  -9.364   5.361  0.00  0.00    +0.031 A 
ATOM     19  C   UNL     1      -5.513 -11.753   5.290  0.00  0.00    +0.030 A 
ATOM     22  C   UNL     1      -7.100 -10.223   4.257  0.00  0.00    -0.048 A 
ATOM     24  C   UNL     1      -6.343 -11.395   4.220  0.00  0.00    +0.005 A 
ATOM     26  C   UNL     1      -7.974  -9.876   3.096  0.00  0.00    +0.044 C 
ATOM     27  H   UNL     1      -6.330  -8.285   7.965  0.00  0.00    +0.167 HD
ENDBRANCH   5  10
BRANCH   1   9
ATOM      9  C   UNL     1      -5.492 -10.712  13.016  0.00  0.00    +0.121 C 
BRANCH   9  11
ATOM      4  N   UNL     1      -2.773 -10.783  15.494  0.00  0.00    -0.349 N 
ATOM     11  C   UNL     1      -4.592 -10.765  14.222  0.00  0.00    -0.008 A 
ATOM     12  C   UNL     1      -5.000 -10.881  15.579  0.00  0.00    +0.004 A 
ATOM     14  C   UNL     1      -3.217 -10.706  14.201  0.00  0.00    +0.091 A 
ATOM     16  C   UNL     1      -3.841 -10.891  16.356  0.00  0.00    +0.049 A 
ATOM     17  C   UNL     1      -6.249 -10.979  16.224  0.00  0.00    +0.010 A 
ATOM     20  C   UNL     1      -3.868 -10.995  17.752  0.00  0.00    +0.026 A 
ATOM     21  C   UNL     1      -1.379 -10.755  15.880  0.00  0.00    +0.149 C 
ATOM     23  C   UNL     1      -6.292 -11.084  17.619  0.00  0.00    +0.001 A 
ATOM     25  C   UNL     1      -5.118 -11.092  18.369  0.00  0.00    +0.002 A 
ENDBRANCH   9  11
ENDBRANCH   1   9
TORSDOF 3
ENDMDL
MODEL 10
REMARK VINA RESULT:      -6.9      5.609      7.179
REMARK  Name = 45784224
REMARK  5 active torsions:
REMARK  status: ('A' for Active; 'I' for Inactive)
REMARK    1  A    between atoms: N_1  and  C_9
REMARK    2  A    between atoms: N_4  and  C_21
REMARK    3  A    between atoms: C_5  and  C_10
REMARK    4  A    between atoms: C_9  and  C_11
REMARK    5  A    between atoms: C_22  and  C_26
REMARK                            x       y       z     vdW  Elec       q    Type
REMARK                         _______ _______ _______ _____ _____    ______ ____
ROOT
ATOM      1  N   UNL     1      15.305   8.740   4.215  0.00  0.00    -0.297 NA
ATOM      5  C   UNL     1      13.327   7.526   4.552  0.00  0.00    +0.070 C 
ATOM      6  C   UNL     1      14.666   7.880   5.213  0.00  0.00    +0.096 C 
ATOM      7  C   UNL     1      13.062   8.678   3.568  0.00  0.00    +0.028 C 
ATOM      8  C   UNL     1      14.240   9.627   3.744  0.00  0.00    +0.085 C 
ENDROOT
BRANCH   5  10
ATOM      2  N   UNL     1      12.251   6.200   6.391  0.00  0.00    -0.342 N 
ATOM      3  N   UNL     1      11.154   8.021   5.743  0.00  0.00    -0.232 NA
ATOM     10  C   UNL     1      12.222   7.280   5.553  0.00  0.00    +0.113 A 
ATOM     13  C   UNL     1      11.127   6.248   7.174  0.00  0.00    +0.066 A 
ATOM     15  C   UNL     1      10.458   7.393   6.751  0.00  0.00    +0.089 A 
ATOM     18  C   UNL     1      10.650   5.413   8.186  0.00  0.00    +0.031 A 
ATOM     19  C   UNL     1       9.242   7.743   7.362  0.00  0.00    +0.030 A 
ATOM     22  C   UNL     1       9.438   5.776   8.783  0.00  0.00    -0.048 A 
ATOM     24  C   UNL     1       8.745   6.919   8.380  0.00  0.00    +0.005 A 
ATOM     26  C   UNL     1       8.876   4.922   9.872  0.00  0.00    +0.044 C 
ATOM     27  H   UNL     1      12.971   5.490   6.429  0.00  0.00    +0.167 HD
ENDBRANCH   5  10
BRANCH   1   9
ATOM      9  C   UNL     1      16.439   9.475   4.758  0.00  0.00    +0.121 C 
BRANCH   9  11
ATOM      4  N   UNL     1      19.343   8.226   2.876  0.00  0.00    -0.349 N 
ATOM     11  C   UNL     1      17.750   8.941   4.246  0.00  0.00    -0.008 A 
ATOM     12  C   UNL     1      18.885   8.591   5.028  0.00  0.00    +0.004 A 
ATOM     14  C   UNL     1      18.061   8.705   2.927  0.00  0.00    +0.091 A 
ATOM     16  C   UNL     1      19.870   8.145   4.145  0.00  0.00    +0.049 A 
ATOM     17  C   UNL     1      19.171   8.611   6.408  0.00  0.00    +0.010 A 
ATOM     20  C   UNL     1      21.131   7.717   4.573  0.00  0.00    +0.026 A 
ATOM     21  C   UNL     1      20.028   7.860   1.655  0.00  0.00    +0.149 C 
ATOM     23  C   UNL     1      20.428   8.185   6.851  0.00  0.00    +0.001 A 
ATOM     25  C   UNL     1      21.391   7.745   5.946  0.00  0.00    +0.002 A 
ENDBRANCH   9  11
ENDBRANCH   1   9
TORSDOF 3
ENDMDL
