MODEL 1
REMARK VINA RESULT:      -8.4      0.000      0.000
REMARK  Name = 45783336
REMARK  7 active torsions:
REMARK  status: ('A' for Active; 'I' for Inactive)
REMARK    1  A    between atoms: O_6  and  C_33
REMARK    2  A    between atoms: O_6  and  C_37
REMARK    3  A    between atoms: N_7  and  C_18
REMARK    4  A    between atoms: C_13  and  C_23
REMARK    5  A    between atoms: C_17  and  C_26
REMARK    6  A    between atoms: C_18  and  C_24
REMARK    7  A    between atoms: C_27  and  C_29
REMARK                            x       y       z     vdW  Elec       q    Type
REMARK                         _______ _______ _______ _____ _____    ______ ____
ROOT
ATOM      4  O   UNL     1     -15.964   3.377  22.938  0.00  0.00    -0.336 OA
ATOM      9  N   UNL     1     -17.940   3.281  23.989  0.00  0.00    -0.190 NA
ATOM     10  N   UNL     1     -15.757   2.604  24.089  0.00  0.00    -0.056 NA
ATOM     23  C   UNL     1     -17.274   3.736  22.957  0.00  0.00    +0.245 A 
ATOM     27  C   UNL     1     -16.967   2.594  24.655  0.00  0.00    +0.202 A 
ENDROOT
BRANCH  27  29
ATOM      8  N   UNL     1     -15.840   1.570  29.236  0.00  0.00    -0.315 N 
ATOM     11  N   UNL     1     -17.766   0.572  28.285  0.00  0.00    -0.240 NA
ATOM     17  C   UNL     1     -14.073   1.875  31.519  0.00  0.00    +0.078 C 
ATOM     19  C   UNL     1     -14.307   3.008  30.521  0.00  0.00    +0.031 C 
ATOM     20  C   UNL     1     -14.349   0.513  30.885  0.00  0.00    +0.031 C 
ATOM     21  C   UNL     1     -15.649   2.911  29.792  0.00  0.00    +0.107 C 
ATOM     22  C   UNL     1     -15.702   0.451  30.177  0.00  0.00    +0.107 C 
ATOM     25  C   UNL     1     -16.700   1.391  28.145  0.00  0.00    +0.122 A 
ATOM     28  C   UNL     1     -16.394   2.075  26.979  0.00  0.00    +0.055 A 
ATOM     29  C   UNL     1     -17.238   1.907  25.886  0.00  0.00    +0.027 A 
ATOM     32  C   UNL     1     -18.345   1.072  25.992  0.00  0.00    +0.031 A 
ATOM     34  C   UNL     1     -18.563   0.434  27.202  0.00  0.00    +0.113 A 
BRANCH  17  26
ATOM      5  O   UNL     1     -15.557   3.075  32.962  0.00  0.00    -0.276 OA
ATOM     12  N   UNL     1     -14.826   1.000  33.634  0.00  0.00    -0.329 N 
ATOM     26  C   UNL     1     -14.898   2.058  32.760  0.00  0.00    +0.214 C 
ATOM     38  H   UNL     1     -15.345   1.012  34.506  0.00  0.00    +0.145 HD
ATOM     39  H   UNL     1     -14.228   0.195  33.479  0.00  0.00    +0.145 HD
ENDBRANCH  17  26
ENDBRANCH  27  29
BRANCH  23  13
ATOM      7  N   UNL     1     -16.645   5.148  21.006  0.00  0.00    -0.287 NA
ATOM     13  C   UNL     1     -17.756   4.588  21.802  0.00  0.00    +0.146 C 
ATOM     14  C   UNL     1     -18.600   3.792  20.790  0.00  0.00    +0.030 C 
ATOM     15  C   UNL     1     -17.922   4.013  19.445  0.00  0.00    +0.017 C 
ATOM     16  C   UNL     1     -17.152   5.303  19.643  0.00  0.00    +0.085 C 
BRANCH   7  18
ATOM     18  C   UNL     1     -16.128   6.399  21.545  0.00  0.00    +0.120 C 
BRANCH  18  24
ATOM     24  C   UNL     1     -14.657   6.563  21.266  0.00  0.00    -0.030 A 
ATOM     30  C   UNL     1     -14.216   7.594  20.436  0.00  0.00    +0.051 A 
ATOM     31  C   UNL     1     -13.736   5.684  21.836  0.00  0.00    +0.005 A 
ATOM     33  C   UNL     1     -12.854   7.746  20.176  0.00  0.00    +0.130 A 
ATOM     35  C   UNL     1     -12.373   5.837  21.577  0.00  0.00    +0.004 A 
ATOM     36  C   UNL     1     -11.933   6.868  20.747  0.00  0.00    +0.046 A 
BRANCH  33   6
ATOM      6  O   UNL     1     -12.425   8.751  19.366  0.00  0.00    -0.406 OA
BRANCH   6  37
ATOM      1  F   UNL     1     -13.057   7.663  17.457  0.00  0.00    -0.133 F 
ATOM      2  F   UNL     1     -10.940   7.747  17.993  0.00  0.00    -0.133 F 
ATOM      3  F   UNL     1     -11.935   9.560  17.283  0.00  0.00    -0.133 F 
ATOM     37  C   UNL     1     -12.103   8.439  18.016  0.00  0.00    +0.575 C 
ENDBRANCH   6  37
ENDBRANCH  33   6
ENDBRANCH  18  24
ENDBRANCH   7  18
ENDBRANCH  23  13
TORSDOF 7
ENDMDL
MODEL 2
REMARK VINA RESULT:      -8.2     31.140     35.986
REMARK  Name = 45783336
REMARK  7 active torsions:
REMARK  status: ('A' for Active; 'I' for Inactive)
REMARK    1  A    between atoms: O_6  and  C_33
REMARK    2  A    between atoms: O_6  and  C_37
REMARK    3  A    between atoms: N_7  and  C_18
REMARK    4  A    between atoms: C_13  and  C_23
REMARK    5  A    between atoms: C_17  and  C_26
REMARK    6  A    between atoms: C_18  and  C_24
REMARK    7  A    between atoms: C_27  and  C_29
REMARK                            x       y       z     vdW  Elec       q    Type
REMARK                         _______ _______ _______ _____ _____    ______ ____
ROOT
ATOM      4  O   UNL     1       9.617   4.656  -2.200  0.00  0.00    -0.336 OA
ATOM      9  N   UNL     1      11.082   6.257  -1.645  0.00  0.00    -0.190 NA
ATOM     10  N   UNL     1       9.140   5.227  -1.012  0.00  0.00    -0.056 NA
ATOM     23  C   UNL     1      10.764   5.319  -2.502  0.00  0.00    +0.245 A 
ATOM     27  C   UNL     1      10.058   6.162  -0.750  0.00  0.00    +0.202 A 
ENDROOT
BRANCH  27  29
ATOM      8  N   UNL     1       9.613   6.769   4.019  0.00  0.00    -0.315 N 
ATOM     11  N   UNL     1       9.833   8.682   2.642  0.00  0.00    -0.240 NA
ATOM     17  C   UNL     1       9.264   5.648   6.674  0.00  0.00    +0.078 C 
ATOM     19  C   UNL     1      10.042   4.914   5.583  0.00  0.00    +0.031 C 
ATOM     20  C   UNL     1       8.264   6.634   6.074  0.00  0.00    +0.031 C 
ATOM     21  C   UNL     1      10.632   5.846   4.523  0.00  0.00    +0.107 C 
ATOM     22  C   UNL     1       8.892   7.554   5.029  0.00  0.00    +0.107 C 
ATOM     25  C   UNL     1       9.764   7.337   2.748  0.00  0.00    +0.122 A 
ATOM     28  C   UNL     1       9.832   6.469   1.670  0.00  0.00    +0.055 A 
ATOM     29  C   UNL     1       9.981   7.018   0.401  0.00  0.00    +0.027 A 
ATOM     32  C   UNL     1      10.055   8.398   0.251  0.00  0.00    +0.031 A 
ATOM     34  C   UNL     1       9.978   9.179   1.392  0.00  0.00    +0.113 A 
BRANCH  17  26
ATOM      5  O   UNL     1       9.967   7.487   8.035  0.00  0.00    -0.276 OA
ATOM     12  N   UNL     1      11.289   5.604   7.980  0.00  0.00    -0.329 N 
ATOM     26  C   UNL     1      10.187   6.347   7.629  0.00  0.00    +0.214 C 
ATOM     38  H   UNL     1      11.981   5.975   8.623  0.00  0.00    +0.145 HD
ATOM     39  H   UNL     1      11.486   4.690   7.587  0.00  0.00    +0.145 HD
ENDBRANCH  17  26
ENDBRANCH  27  29
BRANCH  23  13
ATOM      7  N   UNL     1      12.617   3.980  -3.485  0.00  0.00    -0.287 NA
ATOM     13  C   UNL     1      11.483   4.885  -3.762  0.00  0.00    +0.146 C 
ATOM     14  C   UNL     1      10.575   4.091  -4.720  0.00  0.00    +0.030 C 
ATOM     15  C   UNL     1      11.310   2.782  -4.971  0.00  0.00    +0.017 C 
ATOM     16  C   UNL     1      12.754   3.118  -4.659  0.00  0.00    +0.085 C 
BRANCH   7  18
ATOM     18  C   UNL     1      13.853   4.688  -3.178  0.00  0.00    +0.120 C 
BRANCH  18  24
ATOM     24  C   UNL     1      14.368   4.347  -1.805  0.00  0.00    -0.030 A 
ATOM     30  C   UNL     1      13.527   3.730  -0.878  0.00  0.00    +0.051 A 
ATOM     31  C   UNL     1      15.684   4.650  -1.457  0.00  0.00    +0.005 A 
ATOM     33  C   UNL     1      14.002   3.415   0.395  0.00  0.00    +0.130 A 
ATOM     35  C   UNL     1      16.160   4.334  -0.184  0.00  0.00    +0.004 A 
ATOM     36  C   UNL     1      15.319   3.717   0.741  0.00  0.00    +0.046 A 
BRANCH  33   6
ATOM      6  O   UNL     1      13.181   2.814   1.298  0.00  0.00    -0.406 OA
BRANCH   6  37
ATOM      1  F   UNL     1      11.581   2.962   2.925  0.00  0.00    -0.133 F 
ATOM      2  F   UNL     1      11.130   3.674   0.909  0.00  0.00    -0.133 F 
ATOM      3  F   UNL     1      12.505   4.821   2.164  0.00  0.00    -0.133 F 
ATOM     37  C   UNL     1      12.106   3.572   1.841  0.00  0.00    +0.575 C 
ENDBRANCH   6  37
ENDBRANCH  33   6
ENDBRANCH  18  24
ENDBRANCH   7  18
ENDBRANCH  23  13
TORSDOF 7
ENDMDL
MODEL 3
REMARK VINA RESULT:      -8.1     29.975     34.390
REMARK  Name = 45783336
REMARK  7 active torsions:
REMARK  status: ('A' for Active; 'I' for Inactive)
REMARK    1  A    between atoms: O_6  and  C_33
REMARK    2  A    between atoms: O_6  and  C_37
REMARK    3  A    between atoms: N_7  and  C_18
REMARK    4  A    between atoms: C_13  and  C_23
REMARK    5  A    between atoms: C_17  and  C_26
REMARK    6  A    between atoms: C_18  and  C_24
REMARK    7  A    between atoms: C_27  and  C_29
REMARK                            x       y       z     vdW  Elec       q    Type
REMARK                         _______ _______ _______ _____ _____    ______ ____
ROOT
ATOM      4  O   UNL     1      13.763  10.577   7.350  0.00  0.00    -0.336 OA
ATOM      9  N   UNL     1      12.406   9.705   5.796  0.00  0.00    -0.190 NA
ATOM     10  N   UNL     1      14.578   9.808   6.507  0.00  0.00    -0.056 NA
ATOM     23  C   UNL     1      12.501  10.461   6.861  0.00  0.00    +0.245 A 
ATOM     27  C   UNL     1      13.705   9.328   5.617  0.00  0.00    +0.202 A 
ENDROOT
BRANCH  27  29
ATOM      8  N   UNL     1      12.666   5.908   2.372  0.00  0.00    -0.315 N 
ATOM     11  N   UNL     1      14.862   6.791   2.435  0.00  0.00    -0.240 NA
ATOM     17  C   UNL     1      10.770   4.049   1.198  0.00  0.00    +0.078 C 
ATOM     19  C   UNL     1      10.333   5.401   1.760  0.00  0.00    +0.031 C 
ATOM     20  C   UNL     1      12.075   3.579   1.836  0.00  0.00    +0.031 C 
ATOM     21  C   UNL     1      11.448   6.449   1.764  0.00  0.00    +0.107 C 
ATOM     22  C   UNL     1      13.167   4.648   1.810  0.00  0.00    +0.107 C 
ATOM     25  C   UNL     1      13.605   6.783   2.931  0.00  0.00    +0.122 A 
ATOM     28  C   UNL     1      13.177   7.592   3.971  0.00  0.00    +0.055 A 
ATOM     29  C   UNL     1      14.098   8.467   4.538  0.00  0.00    +0.027 A 
ATOM     32  C   UNL     1      15.401   8.503   4.055  0.00  0.00    +0.031 A 
ATOM     34  C   UNL     1      15.730   7.653   3.011  0.00  0.00    +0.113 A 
BRANCH  17  26
ATOM      5  O   UNL     1      11.809   3.521  -0.892  0.00  0.00    -0.276 OA
ATOM     12  N   UNL     1       9.923   4.839  -0.915  0.00  0.00    -0.329 N 
ATOM     26  C   UNL     1      10.898   4.093  -0.297  0.00  0.00    +0.214 C 
ATOM     38  H   UNL     1       9.908   4.936  -1.925  0.00  0.00    +0.145 HD
ATOM     39  H   UNL     1       9.215   5.355  -0.404  0.00  0.00    +0.145 HD
ENDBRANCH  17  26
ENDBRANCH  27  29
BRANCH  23  13
ATOM      7  N   UNL     1      10.423  10.309   8.222  0.00  0.00    -0.287 NA
ATOM     13  C   UNL     1      11.417  11.211   7.606  0.00  0.00    +0.146 C 
ATOM     14  C   UNL     1      11.970  12.043   8.778  0.00  0.00    +0.030 C 
ATOM     15  C   UNL     1      11.184  11.582   9.998  0.00  0.00    +0.017 C 
ATOM     16  C   UNL     1       9.915  11.002   9.407  0.00  0.00    +0.085 C 
BRANCH   7  18
ATOM     18  C   UNL     1       9.352   9.928   7.310  0.00  0.00    +0.120 C 
BRANCH  18  24
ATOM     24  C   UNL     1       9.313   8.440   7.084  0.00  0.00    -0.030 A 
ATOM     30  C   UNL     1       9.861   7.575   8.032  0.00  0.00    +0.051 A 
ATOM     31  C   UNL     1       8.729   7.924   5.927  0.00  0.00    +0.005 A 
ATOM     33  C   UNL     1       9.826   6.197   7.823  0.00  0.00    +0.130 A 
ATOM     35  C   UNL     1       8.693   6.545   5.718  0.00  0.00    +0.004 A 
ATOM     36  C   UNL     1       9.242   5.682   6.666  0.00  0.00    +0.046 A 
BRANCH  33   6
ATOM      6  O   UNL     1      10.362   5.355   8.748  0.00  0.00    -0.406 OA
BRANCH   6  37
ATOM      1  F   UNL     1       8.378   5.342   9.885  0.00  0.00    -0.133 F 
ATOM      2  F   UNL     1      10.111   4.321  10.739  0.00  0.00    -0.133 F 
ATOM      3  F   UNL     1       9.113   3.455   8.998  0.00  0.00    -0.133 F 
ATOM     37  C   UNL     1       9.476   4.617   9.582  0.00  0.00    +0.575 C 
ENDBRANCH   6  37
ENDBRANCH  33   6
ENDBRANCH  18  24
ENDBRANCH   7  18
ENDBRANCH  23  13
TORSDOF 7
ENDMDL
MODEL 4
REMARK VINA RESULT:      -7.9     18.591     21.069
REMARK  Name = 45783336
REMARK  7 active torsions:
REMARK  status: ('A' for Active; 'I' for Inactive)
REMARK    1  A    between atoms: O_6  and  C_33
REMARK    2  A    between atoms: O_6  and  C_37
REMARK    3  A    between atoms: N_7  and  C_18
REMARK    4  A    between atoms: C_13  and  C_23
REMARK    5  A    between atoms: C_17  and  C_26
REMARK    6  A    between atoms: C_18  and  C_24
REMARK    7  A    between atoms: C_27  and  C_29
REMARK                            x       y       z     vdW  Elec       q    Type
REMARK                         _______ _______ _______ _____ _____    ______ ____
ROOT
ATOM      4  O   UNL     1      -4.995 -11.892  19.292  0.00  0.00    -0.336 OA
ATOM      9  N   UNL     1      -5.693 -11.052  17.336  0.00  0.00    -0.190 NA
ATOM     10  N   UNL     1      -3.851 -11.760  18.493  0.00  0.00    -0.056 NA
ATOM     23  C   UNL     1      -6.035 -11.454  18.534  0.00  0.00    +0.245 A 
ATOM     27  C   UNL     1      -4.345 -11.259  17.357  0.00  0.00    +0.202 A 
ENDROOT
BRANCH  27  29
ATOM      8  N   UNL     1      -3.770 -10.717  12.594  0.00  0.00    -0.315 N 
ATOM     11  N   UNL     1      -1.909 -10.363  14.015  0.00  0.00    -0.240 NA
ATOM     17  C   UNL     1      -4.857 -10.806   9.904  0.00  0.00    +0.078 C 
ATOM     19  C   UNL     1      -5.708 -10.400  11.106  0.00  0.00    +0.031 C 
ATOM     20  C   UNL     1      -3.677 -11.677  10.329  0.00  0.00    +0.031 C 
ATOM     21  C   UNL     1      -4.890  -9.831  12.268  0.00  0.00    +0.107 C 
ATOM     22  C   UNL     1      -2.878 -11.072  11.483  0.00  0.00    +0.107 C 
ATOM     25  C   UNL     1      -3.215 -10.683  13.880  0.00  0.00    +0.122 A 
ATOM     28  C   UNL     1      -4.054 -10.985  14.940  0.00  0.00    +0.055 A 
ATOM     29  C   UNL     1      -3.518 -10.956  16.223  0.00  0.00    +0.027 A 
ATOM     32  C   UNL     1      -2.178 -10.632  16.403  0.00  0.00    +0.031 A 
ATOM     34  C   UNL     1      -1.423 -10.345  15.277  0.00  0.00    +0.113 A 
BRANCH  17  26
ATOM      5  O   UNL     1      -3.399  -8.955   9.492  0.00  0.00    -0.276 OA
ATOM     12  N   UNL     1      -5.149  -9.307   8.040  0.00  0.00    -0.329 N 
ATOM     26  C   UNL     1      -4.380  -9.606   9.140  0.00  0.00    +0.214 C 
ATOM     38  H   UNL     1      -4.918  -8.518   7.446  0.00  0.00    +0.145 HD
ATOM     39  H   UNL     1      -5.991  -9.819   7.800  0.00  0.00    +0.145 HD
ENDBRANCH  17  26
ENDBRANCH  27  29
BRANCH  23  13
ATOM      7  N   UNL     1      -8.494 -11.243  18.217  0.00  0.00    -0.287 NA
ATOM     13  C   UNL     1      -7.404 -11.494  19.181  0.00  0.00    +0.146 C 
ATOM     14  C   UNL     1      -7.731 -12.867  19.794  0.00  0.00    +0.030 C 
ATOM     15  C   UNL     1      -9.052 -13.281  19.160  0.00  0.00    +0.017 C 
ATOM     16  C   UNL     1      -9.663 -11.967  18.718  0.00  0.00    +0.085 C 
BRANCH   7  18
ATOM     18  C   UNL     1      -8.771  -9.827  18.018  0.00  0.00    +0.120 C 
BRANCH  18  24
ATOM     24  C   UNL     1      -9.273  -9.543  16.628  0.00  0.00    -0.030 A 
ATOM     30  C   UNL     1     -10.237  -8.555  16.422  0.00  0.00    +0.051 A 
ATOM     31  C   UNL     1      -8.778 -10.269  15.544  0.00  0.00    +0.005 A 
ATOM     33  C   UNL     1     -10.704  -8.293  15.135  0.00  0.00    +0.130 A 
ATOM     35  C   UNL     1      -9.245 -10.006  14.256  0.00  0.00    +0.004 A 
ATOM     36  C   UNL     1     -10.207  -9.018  14.051  0.00  0.00    +0.046 A 
BRANCH  33   6
ATOM      6  O   UNL     1     -11.644  -7.329  14.936  0.00  0.00    -0.406 OA
BRANCH   6  37
ATOM      1  F   UNL     1     -11.794  -5.677  16.509  0.00  0.00    -0.133 F 
ATOM      2  F   UNL     1     -11.896  -5.153  14.390  0.00  0.00    -0.133 F 
ATOM      3  F   UNL     1      -9.985  -5.784  15.243  0.00  0.00    -0.133 F 
ATOM     37  C   UNL     1     -11.319  -5.988  15.284  0.00  0.00    +0.575 C 
ENDBRANCH   6  37
ENDBRANCH  33   6
ENDBRANCH  18  24
ENDBRANCH   7  18
ENDBRANCH  23  13
TORSDOF 7
ENDMDL
MODEL 5
REMARK VINA RESULT:      -7.8     18.775     21.697
REMARK  Name = 45783336
REMARK  7 active torsions:
REMARK  status: ('A' for Active; 'I' for Inactive)
REMARK    1  A    between atoms: O_6  and  C_33
REMARK    2  A    between atoms: O_6  and  C_37
REMARK    3  A    between atoms: N_7  and  C_18
REMARK    4  A    between atoms: C_13  and  C_23
REMARK    5  A    between atoms: C_17  and  C_26
REMARK    6  A    between atoms: C_18  and  C_24
REMARK    7  A    between atoms: C_27  and  C_29
REMARK                            x       y       z     vdW  Elec       q    Type
REMARK                         _______ _______ _______ _____ _____    ______ ____
ROOT
ATOM      4  O   UNL     1      -3.870 -12.294  15.768  0.00  0.00    -0.336 OA
ATOM      9  N   UNL     1      -4.499 -10.277  15.023  0.00  0.00    -0.190 NA
ATOM     10  N   UNL     1      -3.471 -12.232  14.425  0.00  0.00    -0.056 NA
ATOM     23  C   UNL     1      -4.467 -11.104  16.038  0.00  0.00    +0.245 A 
ATOM     27  C   UNL     1      -3.877 -11.013  14.057  0.00  0.00    +0.202 A 
ENDROOT
BRANCH  27  29
ATOM      8  N   UNL     1      -5.637  -9.463   9.837  0.00  0.00    -0.315 N 
ATOM     11  N   UNL     1      -3.290  -9.502  10.149  0.00  0.00    -0.240 NA
ATOM     17  C   UNL     1      -7.903  -8.918   8.106  0.00  0.00    +0.078 C 
ATOM     19  C   UNL     1      -7.987  -8.752   9.623  0.00  0.00    +0.031 C 
ATOM     20  C   UNL     1      -6.806  -9.906   7.717  0.00  0.00    +0.031 C 
ATOM     21  C   UNL     1      -6.632  -8.485  10.283  0.00  0.00    +0.107 C 
ATOM     22  C   UNL     1      -5.466  -9.601   8.386  0.00  0.00    +0.107 C 
ATOM     25  C   UNL     1      -4.525  -9.733  10.645  0.00  0.00    +0.122 A 
ATOM     28  C   UNL     1      -4.771 -10.227  11.916  0.00  0.00    +0.055 A 
ATOM     29  C   UNL     1      -3.677 -10.501  12.731  0.00  0.00    +0.027 A 
ATOM     32  C   UNL     1      -2.390 -10.277  12.255  0.00  0.00    +0.031 A 
ATOM     34  C   UNL     1      -2.252  -9.781  10.969  0.00  0.00    +0.113 A 
BRANCH  17  26
ATOM      5  O   UNL     1      -7.833  -6.529   8.008  0.00  0.00    -0.276 OA
ATOM     12  N   UNL     1      -7.355  -7.712   6.094  0.00  0.00    -0.329 N 
ATOM     26  C   UNL     1      -7.693  -7.599   7.421  0.00  0.00    +0.214 C 
ATOM     38  H   UNL     1      -7.186  -6.885   5.530  0.00  0.00    +0.145 HD
ATOM     39  H   UNL     1      -7.305  -8.602   5.610  0.00  0.00    +0.145 HD
ENDBRANCH  17  26
ENDBRANCH  27  29
BRANCH  23  13
ATOM      7  N   UNL     1      -6.461 -10.768  17.490  0.00  0.00    -0.287 NA
ATOM     13  C   UNL     1      -4.992 -10.917  17.446  0.00  0.00    +0.146 C 
ATOM     14  C   UNL     1      -4.693 -12.123  18.356  0.00  0.00    +0.030 C 
ATOM     15  C   UNL     1      -6.046 -12.546  18.912  0.00  0.00    +0.017 C 
ATOM     16  C   UNL     1      -6.890 -11.294  18.786  0.00  0.00    +0.085 C 
BRANCH   7  18
ATOM     18  C   UNL     1      -6.905  -9.397  17.280  0.00  0.00    +0.120 C 
BRANCH  18  24
ATOM     24  C   UNL     1      -8.049  -9.322  16.304  0.00  0.00    -0.030 A 
ATOM     30  C   UNL     1      -9.147  -8.505  16.578  0.00  0.00    +0.051 A 
ATOM     31  C   UNL     1      -8.013 -10.069  15.127  0.00  0.00    +0.005 A 
ATOM     33  C   UNL     1     -10.207  -8.436  15.675  0.00  0.00    +0.130 A 
ATOM     35  C   UNL     1      -9.075  -9.999  14.223  0.00  0.00    +0.004 A 
ATOM     36  C   UNL     1     -10.171  -9.182  14.497  0.00  0.00    +0.046 A 
BRANCH  33   6
ATOM      6  O   UNL     1     -11.277  -7.639  15.943  0.00  0.00    -0.406 OA
BRANCH   6  37
ATOM      1  F   UNL     1     -11.545  -5.538  16.806  0.00  0.00    -0.133 F 
ATOM      2  F   UNL     1     -11.943  -5.887  14.685  0.00  0.00    -0.133 F 
ATOM      3  F   UNL     1      -9.878  -5.912  15.403  0.00  0.00    -0.133 F 
ATOM     37  C   UNL     1     -11.148  -6.239  15.722  0.00  0.00    +0.575 C 
ENDBRANCH   6  37
ENDBRANCH  33   6
ENDBRANCH  18  24
ENDBRANCH   7  18
ENDBRANCH  23  13
TORSDOF 7
ENDMDL
MODEL 6
REMARK VINA RESULT:      -7.7     32.986     36.473
REMARK  Name = 45783336
REMARK  7 active torsions:
REMARK  status: ('A' for Active; 'I' for Inactive)
REMARK    1  A    between atoms: O_6  and  C_33
REMARK    2  A    between atoms: O_6  and  C_37
REMARK    3  A    between atoms: N_7  and  C_18
REMARK    4  A    between atoms: C_13  and  C_23
REMARK    5  A    between atoms: C_17  and  C_26
REMARK    6  A    between atoms: C_18  and  C_24
REMARK    7  A    between atoms: C_27  and  C_29
REMARK                            x       y       z     vdW  Elec       q    Type
REMARK                         _______ _______ _______ _____ _____    ______ ____
ROOT
ATOM      4  O   UNL     1      20.626   6.401  23.164  0.00  0.00    -0.336 OA
ATOM      9  N   UNL     1      20.532   6.801  20.962  0.00  0.00    -0.190 NA
ATOM     10  N   UNL     1      19.292   6.193  22.786  0.00  0.00    -0.056 NA
ATOM     23  C   UNL     1      21.287   6.756  22.031  0.00  0.00    +0.245 A 
ATOM     27  C   UNL     1      19.317   6.449  21.475  0.00  0.00    +0.202 A 
ENDROOT
BRANCH  27  29
ATOM      8  N   UNL     1      14.615   7.261  20.746  0.00  0.00    -0.315 N 
ATOM     11  N   UNL     1      15.866   6.197  19.040  0.00  0.00    -0.240 NA
ATOM     17  C   UNL     1      12.060   8.262  21.693  0.00  0.00    +0.078 C 
ATOM     19  C   UNL     1      13.383   8.908  22.103  0.00  0.00    +0.031 C 
ATOM     20  C   UNL     1      12.258   6.804  21.287  0.00  0.00    +0.031 C 
ATOM     21  C   UNL     1      14.511   8.680  21.094  0.00  0.00    +0.107 C 
ATOM     22  C   UNL     1      13.384   6.617  20.271  0.00  0.00    +0.107 C 
ATOM     25  C   UNL     1      15.831   6.755  20.270  0.00  0.00    +0.122 A 
ATOM     28  C   UNL     1      16.932   6.861  21.106  0.00  0.00    +0.055 A 
ATOM     29  C   UNL     1      18.147   6.362  20.649  0.00  0.00    +0.027 A 
ATOM     32  C   UNL     1      18.222   5.780  19.388  0.00  0.00    +0.031 A 
ATOM     34  C   UNL     1      17.064   5.723  18.630  0.00  0.00    +0.113 A 
BRANCH  17  26
ATOM      5  O   UNL     1      10.627   8.497  19.792  0.00  0.00    -0.276 OA
ATOM     12  N   UNL     1      11.734  10.363  20.558  0.00  0.00    -0.329 N 
ATOM     26  C   UNL     1      11.393   9.032  20.591  0.00  0.00    +0.214 C 
ATOM     38  H   UNL     1      11.341  10.981  19.856  0.00  0.00    +0.145 HD
ATOM     39  H   UNL     1      12.416  10.774  21.188  0.00  0.00    +0.145 HD
ENDBRANCH  17  26
ENDBRANCH  27  29
BRANCH  23  13
ATOM      7  N   UNL     1      23.604   5.874  21.816  0.00  0.00    -0.287 NA
ATOM     13  C   UNL     1      22.767   7.038  22.174  0.00  0.00    +0.146 C 
ATOM     14  C   UNL     1      23.250   8.167  21.244  0.00  0.00    +0.030 C 
ATOM     15  C   UNL     1      24.397   7.562  20.446  0.00  0.00    +0.017 C 
ATOM     16  C   UNL     1      24.868   6.413  21.314  0.00  0.00    +0.085 C 
BRANCH   7  18
ATOM     18  C   UNL     1      23.804   4.949  22.924  0.00  0.00    +0.120 C 
BRANCH  18  24
ATOM     24  C   UNL     1      24.043   3.543  22.443  0.00  0.00    -0.030 A 
ATOM     30  C   UNL     1      24.784   2.655  23.224  0.00  0.00    +0.051 A 
ATOM     31  C   UNL     1      23.527   3.127  21.216  0.00  0.00    +0.005 A 
ATOM     33  C   UNL     1      25.008   1.353  22.779  0.00  0.00    +0.130 A 
ATOM     35  C   UNL     1      23.750   1.823  20.771  0.00  0.00    +0.004 A 
ATOM     36  C   UNL     1      24.490   0.936  21.553  0.00  0.00    +0.046 A 
BRANCH  33   6
ATOM      6  O   UNL     1      25.731   0.489  23.542  0.00  0.00    -0.406 OA
BRANCH   6  37
ATOM      1  F   UNL     1      23.720  -0.072  24.476  0.00  0.00    -0.133 F 
ATOM      2  F   UNL     1      25.449   0.262  25.770  0.00  0.00    -0.133 F 
ATOM      3  F   UNL     1      25.372  -1.540  24.536  0.00  0.00    -0.133 F 
ATOM     37  C   UNL     1      25.058  -0.228  24.571  0.00  0.00    +0.575 C 
ENDBRANCH   6  37
ENDBRANCH  33   6
ENDBRANCH  18  24
ENDBRANCH   7  18
ENDBRANCH  23  13
TORSDOF 7
ENDMDL
MODEL 7
REMARK VINA RESULT:      -7.7     32.204     37.625
REMARK  Name = 45783336
REMARK  7 active torsions:
REMARK  status: ('A' for Active; 'I' for Inactive)
REMARK    1  A    between atoms: O_6  and  C_33
REMARK    2  A    between atoms: O_6  and  C_37
REMARK    3  A    between atoms: N_7  and  C_18
REMARK    4  A    between atoms: C_13  and  C_23
REMARK    5  A    between atoms: C_17  and  C_26
REMARK    6  A    between atoms: C_18  and  C_24
REMARK    7  A    between atoms: C_27  and  C_29
REMARK                            x       y       z     vdW  Elec       q    Type
REMARK                         _______ _______ _______ _____ _____    ______ ____
ROOT
ATOM      4  O   UNL     1      13.384   7.000   7.021  0.00  0.00    -0.336 OA
ATOM      9  N   UNL     1      13.073   7.450   4.848  0.00  0.00    -0.190 NA
ATOM     10  N   UNL     1      14.641   7.350   6.511  0.00  0.00    -0.056 NA
ATOM     23  C   UNL     1      12.518   7.083   5.977  0.00  0.00    +0.245 A 
ATOM     27  C   UNL     1      14.375   7.602   5.226  0.00  0.00    +0.202 A 
ENDROOT
BRANCH  27  29
ATOM      8  N   UNL     1      18.985   8.587   4.187  0.00  0.00    -0.315 N 
ATOM     11  N   UNL     1      17.363   8.786   2.474  0.00  0.00    -0.240 NA
ATOM     17  C   UNL     1      21.754   8.832   5.024  0.00  0.00    +0.078 C 
ATOM     19  C   UNL     1      20.814   7.796   5.638  0.00  0.00    +0.031 C 
ATOM     20  C   UNL     1      20.977  10.011   4.443  0.00  0.00    +0.031 C 
ATOM     21  C   UNL     1      19.660   7.399   4.715  0.00  0.00    +0.107 C 
ATOM     22  C   UNL     1      19.841   9.576   3.519  0.00  0.00    +0.107 C 
ATOM     25  C   UNL     1      17.655   8.493   3.760  0.00  0.00    +0.122 A 
ATOM     28  C   UNL     1      16.714   8.102   4.700  0.00  0.00    +0.055 A 
ATOM     29  C   UNL     1      15.388   8.005   4.292  0.00  0.00    +0.027 A 
ATOM     32  C   UNL     1      15.049   8.299   2.976  0.00  0.00    +0.031 A 
ATOM     34  C   UNL     1      16.064   8.681   2.114  0.00  0.00    +0.113 A 
BRANCH  17  26
ATOM      5  O   UNL     1      22.971   8.825   2.964  0.00  0.00    -0.276 OA
ATOM     12  N   UNL     1      23.022   6.929   4.266  0.00  0.00    -0.329 N 
ATOM     26  C   UNL     1      22.641   8.218   3.981  0.00  0.00    +0.214 C 
ATOM     38  H   UNL     1      23.625   6.415   3.632  0.00  0.00    +0.145 HD
ATOM     39  H   UNL     1      22.690   6.422   5.080  0.00  0.00    +0.145 HD
ENDBRANCH  17  26
ENDBRANCH  27  29
BRANCH  23  13
ATOM      7  N   UNL     1      10.509   5.769   5.322  0.00  0.00    -0.287 NA
ATOM     13  C   UNL     1      11.071   6.750   6.272  0.00  0.00    +0.146 C 
ATOM     14  C   UNL     1      10.881   6.106   7.658  0.00  0.00    +0.030 C 
ATOM     15  C   UNL     1      10.151   4.797   7.391  0.00  0.00    +0.017 C 
ATOM     16  C   UNL     1       9.480   5.029   6.053  0.00  0.00    +0.085 C 
BRANCH   7  18
ATOM     18  C   UNL     1       9.986   6.380   4.107  0.00  0.00    +0.120 C 
BRANCH  18  24
ATOM     24  C   UNL     1      10.467   5.670   2.870  0.00  0.00    -0.030 A 
ATOM     30  C   UNL     1      11.518   4.756   2.955  0.00  0.00    +0.051 A 
ATOM     31  C   UNL     1       9.864   5.927   1.639  0.00  0.00    +0.005 A 
ATOM     33  C   UNL     1      11.965   4.099   1.809  0.00  0.00    +0.130 A 
ATOM     35  C   UNL     1      10.311   5.268   0.492  0.00  0.00    +0.004 A 
ATOM     36  C   UNL     1      11.361   4.354   0.578  0.00  0.00    +0.046 A 
BRANCH  33   6
ATOM      6  O   UNL     1      12.990   3.208   1.892  0.00  0.00    -0.406 OA
BRANCH   6  37
ATOM      1  F   UNL     1      15.238   3.030   2.273  0.00  0.00    -0.133 F 
ATOM      2  F   UNL     1      14.388   4.976   1.758  0.00  0.00    -0.133 F 
ATOM      3  F   UNL     1      14.532   3.432   0.217  0.00  0.00    -0.133 F 
ATOM     37  C   UNL     1      14.295   3.646   1.529  0.00  0.00    +0.575 C 
ENDBRANCH   6  37
ENDBRANCH  33   6
ENDBRANCH  18  24
ENDBRANCH   7  18
ENDBRANCH  23  13
TORSDOF 7
ENDMDL
MODEL 8
REMARK VINA RESULT:      -7.6     30.579     36.279
REMARK  Name = 45783336
REMARK  7 active torsions:
REMARK  status: ('A' for Active; 'I' for Inactive)
REMARK    1  A    between atoms: O_6  and  C_33
REMARK    2  A    between atoms: O_6  and  C_37
REMARK    3  A    between atoms: N_7  and  C_18
REMARK    4  A    between atoms: C_13  and  C_23
REMARK    5  A    between atoms: C_17  and  C_26
REMARK    6  A    between atoms: C_18  and  C_24
REMARK    7  A    between atoms: C_27  and  C_29
REMARK                            x       y       z     vdW  Elec       q    Type
REMARK                         _______ _______ _______ _____ _____    ______ ____
ROOT
ATOM      4  O   UNL     1      12.272   7.790   2.253  0.00  0.00    -0.336 OA
ATOM      9  N   UNL     1      13.701   6.789   3.658  0.00  0.00    -0.190 NA
ATOM     10  N   UNL     1      12.975   8.820   2.894  0.00  0.00    -0.056 NA
ATOM     23  C   UNL     1      12.761   6.628   2.761  0.00  0.00    +0.245 A 
ATOM     27  C   UNL     1      13.798   8.149   3.706  0.00  0.00    +0.202 A 
ENDROOT
BRANCH  27  29
ATOM      8  N   UNL     1      18.293   8.812   5.338  0.00  0.00    -0.315 N 
ATOM     11  N   UNL     1      16.538  10.096   6.276  0.00  0.00    -0.240 NA
ATOM     17  C   UNL     1      21.113   8.124   5.287  0.00  0.00    +0.078 C 
ATOM     19  C   UNL     1      20.244   8.063   4.032  0.00  0.00    +0.031 C 
ATOM     20  C   UNL     1      20.269   7.987   6.553  0.00  0.00    +0.031 C 
ATOM     21  C   UNL     1      19.030   8.993   4.085  0.00  0.00    +0.107 C 
ATOM     22  C   UNL     1      19.073   8.939   6.575  0.00  0.00    +0.107 C 
ATOM     25  C   UNL     1      16.935   9.151   5.395  0.00  0.00    +0.122 A 
ATOM     28  C   UNL     1      16.079   8.484   4.534  0.00  0.00    +0.055 A 
ATOM     29  C   UNL     1      14.727   8.809   4.579  0.00  0.00    +0.027 A 
ATOM     32  C   UNL     1      14.280   9.776   5.473  0.00  0.00    +0.031 A 
ATOM     34  C   UNL     1      15.217  10.384   6.292  0.00  0.00    +0.113 A 
BRANCH  17  26
ATOM      5  O   UNL     1      22.292   9.960   4.307  0.00  0.00    -0.276 OA
ATOM     12  N   UNL     1      22.233   9.804   6.602  0.00  0.00    -0.329 N 
ATOM     26  C   UNL     1      21.928   9.383   5.329  0.00  0.00    +0.214 C 
ATOM     38  H   UNL     1      22.778  10.646   6.752  0.00  0.00    +0.145 HD
ATOM     39  H   UNL     1      21.977   9.281   7.433  0.00  0.00    +0.145 HD
ENDBRANCH  17  26
ENDBRANCH  27  29
BRANCH  23  13
ATOM      7  N   UNL     1      10.776   5.129   2.696  0.00  0.00    -0.287 NA
ATOM     13  C   UNL     1      12.157   5.349   2.221  0.00  0.00    +0.146 C 
ATOM     14  C   UNL     1      12.048   5.346   0.685  0.00  0.00    +0.030 C 
ATOM     15  C   UNL     1      10.582   5.057   0.391  0.00  0.00    +0.017 C 
ATOM     16  C   UNL     1      10.096   4.365   1.649  0.00  0.00    +0.085 C 
BRANCH   7  18
ATOM     18  C   UNL     1      10.713   4.461   3.989  0.00  0.00    +0.120 C 
BRANCH  18  24
ATOM     24  C   UNL     1      10.019   5.306   5.024  0.00  0.00    -0.030 A 
ATOM     30  C   UNL     1      10.400   5.222   6.363  0.00  0.00    +0.051 A 
ATOM     31  C   UNL     1       8.993   6.172   4.644  0.00  0.00    +0.005 A 
ATOM     33  C   UNL     1       9.756   6.004   7.322  0.00  0.00    +0.130 A 
ATOM     35  C   UNL     1       8.349   6.954   5.604  0.00  0.00    +0.004 A 
ATOM     36  C   UNL     1       8.731   6.870   6.943  0.00  0.00    +0.046 A 
BRANCH  33   6
ATOM      6  O   UNL     1      10.129   5.921   8.628  0.00  0.00    -0.406 OA
BRANCH   6  37
ATOM      1  F   UNL     1       9.375   3.765   8.748  0.00  0.00    -0.133 F 
ATOM      2  F   UNL     1       8.303   5.337   9.821  0.00  0.00    -0.133 F 
ATOM      3  F   UNL     1      10.259   4.689  10.552  0.00  0.00    -0.133 F 
ATOM     37  C   UNL     1       9.530   4.915   9.438  0.00  0.00    +0.575 C 
ENDBRANCH   6  37
ENDBRANCH  33   6
ENDBRANCH  18  24
ENDBRANCH   7  18
ENDBRANCH  23  13
TORSDOF 7
ENDMDL
MODEL 9
REMARK VINA RESULT:      -7.3     19.688     22.242
REMARK  Name = 45783336
REMARK  7 active torsions:
REMARK  status: ('A' for Active; 'I' for Inactive)
REMARK    1  A    between atoms: O_6  and  C_33
REMARK    2  A    between atoms: O_6  and  C_37
REMARK    3  A    between atoms: N_7  and  C_18
REMARK    4  A    between atoms: C_13  and  C_23
REMARK    5  A    between atoms: C_17  and  C_26
REMARK    6  A    between atoms: C_18  and  C_24
REMARK    7  A    between atoms: C_27  and  C_29
REMARK                            x       y       z     vdW  Elec       q    Type
REMARK                         _______ _______ _______ _____ _____    ______ ____
ROOT
ATOM      4  O   UNL     1      -7.811  -9.755  17.355  0.00  0.00    -0.336 OA
ATOM      9  N   UNL     1      -7.691 -11.209  15.654  0.00  0.00    -0.190 NA
ATOM     10  N   UNL     1      -8.470  -9.149  16.276  0.00  0.00    -0.056 NA
ATOM     23  C   UNL     1      -7.382 -10.963  16.904  0.00  0.00    +0.245 A 
ATOM     27  C   UNL     1      -8.356 -10.068  15.312  0.00  0.00    +0.202 A 
ENDROOT
BRANCH  27  29
ATOM      8  N   UNL     1      -7.742  -9.295  10.587  0.00  0.00    -0.315 N 
ATOM     11  N   UNL     1      -9.944  -9.505  11.431  0.00  0.00    -0.240 NA
ATOM     17  C   UNL     1      -5.984  -8.839   8.321  0.00  0.00    +0.078 C 
ATOM     19  C   UNL     1      -5.571  -9.719   9.500  0.00  0.00    +0.031 C 
ATOM     20  C   UNL     1      -7.055  -7.830   8.732  0.00  0.00    +0.031 C 
ATOM     21  C   UNL     1      -6.757 -10.327  10.252  0.00  0.00    +0.107 C 
ATOM     22  C   UNL     1      -8.227  -8.475   9.470  0.00  0.00    +0.107 C 
ATOM     25  C   UNL     1      -8.613  -9.497  11.664  0.00  0.00    +0.122 A 
ATOM     28  C   UNL     1      -8.043  -9.676  12.915  0.00  0.00    +0.055 A 
ATOM     29  C   UNL     1      -8.895  -9.876  13.996  0.00  0.00    +0.027 A 
ATOM     32  C   UNL     1     -10.271  -9.890  13.795  0.00  0.00    +0.031 A 
ATOM     34  C   UNL     1     -10.741  -9.702  12.506  0.00  0.00    +0.113 A 
BRANCH  17  26
ATOM      5  O   UNL     1      -6.488 -10.891   7.201  0.00  0.00    -0.276 OA
ATOM     12  N   UNL     1      -6.817  -8.919   6.062  0.00  0.00    -0.329 N 
ATOM     26  C   UNL     1      -6.454  -9.664   7.159  0.00  0.00    +0.214 C 
ATOM     38  H   UNL     1      -7.154  -9.372   5.218  0.00  0.00    +0.145 HD
ATOM     39  H   UNL     1      -6.724  -7.910   6.024  0.00  0.00    +0.145 HD
ENDBRANCH  17  26
ENDBRANCH  27  29
BRANCH  23  13
ATOM      7  N   UNL     1      -5.167 -11.663  17.795  0.00  0.00    -0.287 NA
ATOM     13  C   UNL     1      -6.631 -11.825  17.896  0.00  0.00    +0.146 C 
ATOM     14  C   UNL     1      -6.964 -11.476  19.358  0.00  0.00    +0.030 C 
ATOM     15  C   UNL     1      -5.620 -11.191  20.014  0.00  0.00    +0.017 C 
ATOM     16  C   UNL     1      -4.630 -11.922  19.131  0.00  0.00    +0.085 C 
BRANCH   7  18
ATOM     18  C   UNL     1      -4.562 -12.522  16.785  0.00  0.00    +0.120 C 
BRANCH  18  24
ATOM     24  C   UNL     1      -3.489 -11.805  16.010  0.00  0.00    -0.030 A 
ATOM     30  C   UNL     1      -3.304 -12.084  14.655  0.00  0.00    +0.051 A 
ATOM     31  C   UNL     1      -2.678 -10.865  16.644  0.00  0.00    +0.005 A 
ATOM     33  C   UNL     1      -2.309 -11.422  13.936  0.00  0.00    +0.130 A 
ATOM     35  C   UNL     1      -1.683 -10.201  15.924  0.00  0.00    +0.004 A 
ATOM     36  C   UNL     1      -1.499 -10.480  14.571  0.00  0.00    +0.046 A 
BRANCH  33   6
ATOM      6  O   UNL     1      -2.129 -11.695  12.615  0.00  0.00    -0.406 OA
BRANCH   6  37
ATOM      1  F   UNL     1      -3.669 -10.072  12.139  0.00  0.00    -0.133 F 
ATOM      2  F   UNL     1      -3.002 -11.418  10.552  0.00  0.00    -0.133 F 
ATOM      3  F   UNL     1      -1.632  -9.889  11.301  0.00  0.00    -0.133 F 
ATOM     37  C   UNL     1      -2.605 -10.753  11.661  0.00  0.00    +0.575 C 
ENDBRANCH   6  37
ENDBRANCH  33   6
ENDBRANCH  18  24
ENDBRANCH   7  18
ENDBRANCH  23  13
TORSDOF 7
ENDMDL
MODEL 10
REMARK VINA RESULT:      -7.1     22.104     23.433
REMARK  Name = 45783336
REMARK  7 active torsions:
REMARK  status: ('A' for Active; 'I' for Inactive)
REMARK    1  A    between atoms: O_6  and  C_33
REMARK    2  A    between atoms: O_6  and  C_37
REMARK    3  A    between atoms: N_7  and  C_18
REMARK    4  A    between atoms: C_13  and  C_23
REMARK    5  A    between atoms: C_17  and  C_26
REMARK    6  A    between atoms: C_18  and  C_24
REMARK    7  A    between atoms: C_27  and  C_29
REMARK                            x       y       z     vdW  Elec       q    Type
REMARK                         _______ _______ _______ _____ _____    ______ ____
ROOT
ATOM      4  O   UNL     1      -6.359 -14.153   9.077  0.00  0.00    -0.336 OA
ATOM      9  N   UNL     1      -4.312 -13.318   9.440  0.00  0.00    -0.190 NA
ATOM     10  N   UNL     1      -6.109 -14.315  10.447  0.00  0.00    -0.056 NA
ATOM     23  C   UNL     1      -5.252 -13.560   8.560  0.00  0.00    +0.245 A 
ATOM     27  C   UNL     1      -4.883 -13.798  10.582  0.00  0.00    +0.202 A 
ENDROOT
BRANCH  27  29
ATOM      8  N   UNL     1      -4.529 -12.163  15.110  0.00  0.00    -0.315 N 
ATOM     11  N   UNL     1      -2.876 -13.655  14.304  0.00  0.00    -0.240 NA
ATOM     17  C   UNL     1      -5.539 -10.510  17.272  0.00  0.00    +0.078 C 
ATOM     19  C   UNL     1      -6.471 -11.177  16.263  0.00  0.00    +0.031 C 
ATOM     20  C   UNL     1      -4.140 -10.317  16.691  0.00  0.00    +0.031 C 
ATOM     21  C   UNL     1      -5.876 -12.432  15.619  0.00  0.00    +0.107 C 
ATOM     22  C   UNL     1      -3.574 -11.592  16.068  0.00  0.00    +0.107 C 
ATOM     25  C   UNL     1      -4.010 -12.955  14.078  0.00  0.00    +0.122 A 
ATOM     28  C   UNL     1      -4.704 -12.968  12.879  0.00  0.00    +0.055 A 
ATOM     29  C   UNL     1      -4.202 -13.749  11.844  0.00  0.00    +0.027 A 
ATOM     32  C   UNL     1      -3.036 -14.483  12.038  0.00  0.00    +0.031 A 
ATOM     34  C   UNL     1      -2.418 -14.402  13.274  0.00  0.00    +0.113 A 
BRANCH  17  26
ATOM      5  O   UNL     1      -4.408 -11.638  19.054  0.00  0.00    -0.276 OA
ATOM     12  N   UNL     1      -6.708 -11.569  19.094  0.00  0.00    -0.329 N 
ATOM     26  C   UNL     1      -5.475 -11.285  18.556  0.00  0.00    +0.214 C 
ATOM     38  H   UNL     1      -6.787 -12.086  19.963  0.00  0.00    +0.145 HD
ATOM     39  H   UNL     1      -7.580 -11.323  18.636  0.00  0.00    +0.145 HD
ENDBRANCH  17  26
ENDBRANCH  27  29
BRANCH  23  13
ATOM      7  N   UNL     1      -4.752 -11.929   6.748  0.00  0.00    -0.287 NA
ATOM     13  C   UNL     1      -5.273 -13.272   7.073  0.00  0.00    +0.146 C 
ATOM     14  C   UNL     1      -4.388 -14.241   6.268  0.00  0.00    +0.030 C 
ATOM     15  C   UNL     1      -3.441 -13.350   5.476  0.00  0.00    +0.017 C 
ATOM     16  C   UNL     1      -4.173 -12.025   5.407  0.00  0.00    +0.085 C 
BRANCH   7  18
ATOM     18  C   UNL     1      -5.764 -10.885   6.834  0.00  0.00    +0.120 C 
BRANCH  18  24
ATOM     24  C   UNL     1      -5.512  -9.955   7.992  0.00  0.00    -0.030 A 
ATOM     30  C   UNL     1      -4.266  -9.943   8.618  0.00  0.00    +0.051 A 
ATOM     31  C   UNL     1      -6.526  -9.108   8.439  0.00  0.00    +0.005 A 
ATOM     33  C   UNL     1      -4.032  -9.083   9.691  0.00  0.00    +0.130 A 
ATOM     35  C   UNL     1      -6.292  -8.247   9.513  0.00  0.00    +0.004 A 
ATOM     36  C   UNL     1      -5.045  -8.234  10.138  0.00  0.00    +0.046 A 
BRANCH  33   6
ATOM      6  O   UNL     1      -2.817  -9.072  10.302  0.00  0.00    -0.406 OA
BRANCH   6  37
ATOM      1  F   UNL     1      -3.541  -9.909  12.303  0.00  0.00    -0.133 F 
ATOM      2  F   UNL     1      -1.396  -9.709  11.936  0.00  0.00    -0.133 F 
ATOM      3  F   UNL     1      -2.518 -11.264  10.887  0.00  0.00    -0.133 F 
ATOM     37  C   UNL     1      -2.583  -9.999  11.356  0.00  0.00    +0.575 C 
ENDBRANCH   6  37
ENDBRANCH  33   6
ENDBRANCH  18  24
ENDBRANCH   7  18
ENDBRANCH  23  13
TORSDOF 7
ENDMDL
