MODEL 1
REMARK VINA RESULT:      -9.2      0.000      0.000
REMARK  Name = 23983673
REMARK  6 active torsions:
REMARK  status: ('A' for Active; 'I' for Inactive)
REMARK    1  A    between atoms: O_4  and  C_30
REMARK    2  A    between atoms: O_4  and  C_31
REMARK    3  A    between atoms: N_5  and  C_13
REMARK    4  A    between atoms: N_6  and  C_14
REMARK    5  A    between atoms: N_9  and  C_21
REMARK    6  A    between atoms: C_19  and  C_20
REMARK                            x       y       z     vdW  Elec       q    Type
REMARK                         _______ _______ _______ _____ _____    ______ ____
ROOT
ATOM      3  O   UNL     1     -16.560   5.167  23.469  0.00  0.00    -0.252 OA
ATOM      6  N   UNL     1     -16.150   2.891  23.458  0.00  0.00    -0.292 N 
ATOM      9  N   UNL     1     -14.636   4.292  22.448  0.00  0.00    -0.269 N 
ATOM     18  C   UNL     1     -15.843   4.221  23.149  0.00  0.00    +0.304 C 
ATOM     37  H   UNL     1     -15.471   2.175  23.218  0.00  0.00    +0.151 HD
ATOM     38  H   UNL     1     -14.163   3.411  22.263  0.00  0.00    +0.156 HD
ENDROOT
BRANCH   6  14
ATOM      1  O   UNL     1     -18.344   2.652  26.373  0.00  0.00    -0.370 OA
ATOM      2  O   UNL     1     -16.971   0.265  24.899  0.00  0.00    -0.370 OA
ATOM     11  C   UNL     1     -16.560   1.126  25.977  0.00  0.00    +0.175 C 
ATOM     12  C   UNL     1     -17.099   2.511  25.672  0.00  0.00    +0.171 C 
ATOM     13  C   UNL     1     -17.259   0.719  27.263  0.00  0.00    +0.166 C 
ATOM     14  C   UNL     1     -17.335   2.495  24.179  0.00  0.00    +0.131 C 
ATOM     15  C   UNL     1     -18.581   1.475  27.159  0.00  0.00    +0.190 C 
ATOM     16  C   UNL     1     -17.677   1.039  23.919  0.00  0.00    +0.185 C 
BRANCH  13   5
ATOM      5  N   UNL     1     -16.412   1.047  28.480  0.00  0.00    -0.243 N 
ATOM      7  N   UNL     1     -15.443   0.211  28.885  0.00  0.00    -0.065 NA
ATOM      8  N   UNL     1     -14.879   0.754  29.959  0.00  0.00    -0.128 NA
ATOM     17  C   UNL     1     -16.497   2.144  29.281  0.00  0.00    +0.140 A 
ATOM     19  C   UNL     1     -15.514   1.938  30.215  0.00  0.00    +0.131 A 
BRANCH  19  20
ATOM     10  N   UNL     1     -15.027   2.226  32.498  0.00  0.00    -0.253 NA
ATOM     20  C   UNL     1     -15.192   2.816  31.293  0.00  0.00    +0.092 A 
ATOM     22  C   UNL     1     -15.066   4.178  31.071  0.00  0.00    +0.030 A 
ATOM     25  C   UNL     1     -14.750   4.988  32.157  0.00  0.00    +0.004 A 
ATOM     26  C   UNL     1     -14.721   3.046  33.530  0.00  0.00    +0.111 A 
ATOM     29  C   UNL     1     -14.573   4.418  33.413  0.00  0.00    +0.020 A 
ENDBRANCH  19  20
ENDBRANCH  13   5
ENDBRANCH   6  14
BRANCH   9  21
ATOM     21  C   UNL     1     -13.983   5.447  21.958  0.00  0.00    +0.035 A 
ATOM     23  C   UNL     1     -14.707   6.620  21.741  0.00  0.00    +0.027 A 
ATOM     24  C   UNL     1     -12.614   5.414  21.694  0.00  0.00    +0.027 A 
ATOM     27  C   UNL     1     -14.063   7.758  21.259  0.00  0.00    +0.048 A 
ATOM     28  C   UNL     1     -11.969   6.554  21.211  0.00  0.00    +0.048 A 
ATOM     30  C   UNL     1     -12.693   7.726  20.994  0.00  0.00    +0.129 A 
BRANCH  30   4
ATOM      4  O   UNL     1     -12.064   8.838  20.526  0.00  0.00    -0.456 OA
BRANCH   4  31
ATOM     31  C   UNL     1     -11.658   8.838  19.202  0.00  0.00    +0.128 A 
ATOM     32  C   UNL     1     -12.551   8.465  18.198  0.00  0.00    +0.046 A 
ATOM     33  C   UNL     1     -10.355   9.210  18.872  0.00  0.00    +0.046 A 
ATOM     34  C   UNL     1     -12.142   8.464  16.864  0.00  0.00    +0.004 A 
ATOM     35  C   UNL     1      -9.945   9.211  17.539  0.00  0.00    +0.004 A 
ATOM     36  C   UNL     1     -10.839   8.837  16.535  0.00  0.00    +0.000 A 
ENDBRANCH   4  31
ENDBRANCH  30   4
ENDBRANCH   9  21
TORSDOF 6
ENDMDL
MODEL 2
REMARK VINA RESULT:      -8.7      1.353      1.920
REMARK  Name = 23983673
REMARK  6 active torsions:
REMARK  status: ('A' for Active; 'I' for Inactive)
REMARK    1  A    between atoms: O_4  and  C_30
REMARK    2  A    between atoms: O_4  and  C_31
REMARK    3  A    between atoms: N_5  and  C_13
REMARK    4  A    between atoms: N_6  and  C_14
REMARK    5  A    between atoms: N_9  and  C_21
REMARK    6  A    between atoms: C_19  and  C_20
REMARK                            x       y       z     vdW  Elec       q    Type
REMARK                         _______ _______ _______ _____ _____    ______ ____
ROOT
ATOM      3  O   UNL     1     -16.685   5.068  23.296  0.00  0.00    -0.252 OA
ATOM      6  N   UNL     1     -16.163   2.845  23.661  0.00  0.00    -0.292 N 
ATOM      9  N   UNL     1     -14.700   4.141  22.455  0.00  0.00    -0.269 N 
ATOM     18  C   UNL     1     -15.916   4.122  23.144  0.00  0.00    +0.304 C 
ATOM     37  H   UNL     1     -15.445   2.136  23.549  0.00  0.00    +0.151 HD
ATOM     38  H   UNL     1     -14.180   3.266  22.422  0.00  0.00    +0.156 HD
ENDROOT
BRANCH   6  14
ATOM      1  O   UNL     1     -18.268   2.722  26.649  0.00  0.00    -0.370 OA
ATOM      2  O   UNL     1     -17.067   0.266  25.138  0.00  0.00    -0.370 OA
ATOM     11  C   UNL     1     -16.577   1.107  26.199  0.00  0.00    +0.175 C 
ATOM     12  C   UNL     1     -17.055   2.517  25.907  0.00  0.00    +0.171 C 
ATOM     13  C   UNL     1     -17.252   0.739  27.509  0.00  0.00    +0.166 C 
ATOM     14  C   UNL     1     -17.342   2.511  24.423  0.00  0.00    +0.131 C 
ATOM     15  C   UNL     1     -18.537   1.560  27.446  0.00  0.00    +0.190 C 
ATOM     16  C   UNL     1     -17.765   1.073  24.180  0.00  0.00    +0.185 C 
BRANCH  13   5
ATOM      5  N   UNL     1     -16.350   1.025  28.696  0.00  0.00    -0.243 N 
ATOM      7  N   UNL     1     -15.362   0.178  29.026  0.00  0.00    -0.065 NA
ATOM      8  N   UNL     1     -14.749   0.684  30.092  0.00  0.00    -0.128 NA
ATOM     17  C   UNL     1     -16.397   2.094  29.537  0.00  0.00    +0.140 A 
ATOM     19  C   UNL     1     -15.371   1.857  30.417  0.00  0.00    +0.131 A 
BRANCH  19  20
ATOM     10  N   UNL     1     -15.010   2.114  32.727  0.00  0.00    -0.253 NA
ATOM     20  C   UNL     1     -14.999   2.699  31.508  0.00  0.00    +0.092 A 
ATOM     22  C   UNL     1     -14.656   4.022  31.285  0.00  0.00    +0.030 A 
ATOM     25  C   UNL     1     -14.302   4.797  32.384  0.00  0.00    +0.004 A 
ATOM     26  C   UNL     1     -14.660   2.898  33.772  0.00  0.00    +0.111 A 
ATOM     29  C   UNL     1     -14.302   4.231  33.655  0.00  0.00    +0.020 A 
ENDBRANCH  19  20
ENDBRANCH  13   5
ENDBRANCH   6  14
BRANCH   9  21
ATOM     21  C   UNL     1     -14.094   5.233  21.792  0.00  0.00    +0.035 A 
ATOM     23  C   UNL     1     -14.877   6.128  21.062  0.00  0.00    +0.027 A 
ATOM     24  C   UNL     1     -12.713   5.417  21.867  0.00  0.00    +0.027 A 
ATOM     27  C   UNL     1     -14.280   7.205  20.408  0.00  0.00    +0.048 A 
ATOM     28  C   UNL     1     -12.116   6.495  21.214  0.00  0.00    +0.048 A 
ATOM     30  C   UNL     1     -12.900   7.389  20.484  0.00  0.00    +0.129 A 
BRANCH  30   4
ATOM      4  O   UNL     1     -12.317   8.442  19.849  0.00  0.00    -0.456 OA
BRANCH   4  31
ATOM     31  C   UNL     1     -12.665   9.717  20.264  0.00  0.00    +0.128 A 
ATOM     32  C   UNL     1     -12.432  10.110  21.581  0.00  0.00    +0.046 A 
ATOM     33  C   UNL     1     -13.251  10.607  19.364  0.00  0.00    +0.046 A 
ATOM     34  C   UNL     1     -12.785  11.393  21.999  0.00  0.00    +0.004 A 
ATOM     35  C   UNL     1     -13.602  11.891  19.780  0.00  0.00    +0.004 A 
ATOM     36  C   UNL     1     -13.370  12.284  21.099  0.00  0.00    +0.000 A 
ENDBRANCH   4  31
ENDBRANCH  30   4
ENDBRANCH   9  21
TORSDOF 6
ENDMDL
MODEL 3
REMARK VINA RESULT:      -8.1     29.155     34.269
REMARK  Name = 23983673
REMARK  6 active torsions:
REMARK  status: ('A' for Active; 'I' for Inactive)
REMARK    1  A    between atoms: O_4  and  C_30
REMARK    2  A    between atoms: O_4  and  C_31
REMARK    3  A    between atoms: N_5  and  C_13
REMARK    4  A    between atoms: N_6  and  C_14
REMARK    5  A    between atoms: N_9  and  C_21
REMARK    6  A    between atoms: C_19  and  C_20
REMARK                            x       y       z     vdW  Elec       q    Type
REMARK                         _______ _______ _______ _____ _____    ______ ____
ROOT
ATOM      3  O   UNL     1      16.492   6.100  19.865  0.00  0.00    -0.252 OA
ATOM      6  N   UNL     1      15.384   7.197  21.574  0.00  0.00    -0.292 N 
ATOM      9  N   UNL     1      17.659   6.922  21.728  0.00  0.00    -0.269 N 
ATOM     18  C   UNL     1      16.525   6.680  20.949  0.00  0.00    +0.304 C 
ATOM     37  H   UNL     1      15.507   7.722  22.435  0.00  0.00    +0.151 HD
ATOM     38  H   UNL     1      17.514   7.418  22.605  0.00  0.00    +0.156 HD
ENDROOT
BRANCH   6  14
ATOM      1  O   UNL     1      12.928   6.804  18.893  0.00  0.00    -0.370 OA
ATOM      2  O   UNL     1      13.304   9.329  20.694  0.00  0.00    -0.370 OA
ATOM     11  C   UNL     1      13.898   8.906  19.453  0.00  0.00    +0.175 C 
ATOM     12  C   UNL     1      14.069   7.401  19.531  0.00  0.00    +0.171 C 
ATOM     13  C   UNL     1      12.922   9.121  18.309  0.00  0.00    +0.166 C 
ATOM     14  C   UNL     1      14.059   7.103  21.012  0.00  0.00    +0.131 C 
ATOM     15  C   UNL     1      12.093   7.839  18.354  0.00  0.00    +0.190 C 
ATOM     16  C   UNL     1      13.152   8.193  21.556  0.00  0.00    +0.185 C 
BRANCH  13   5
ATOM      5  N   UNL     1      13.649   9.384  17.003  0.00  0.00    -0.243 N 
ATOM      7  N   UNL     1      13.655   8.465  16.024  0.00  0.00    -0.065 NA
ATOM      8  N   UNL     1      14.360   8.968  15.016  0.00  0.00    -0.128 NA
ATOM     17  C   UNL     1      14.348  10.497  16.651  0.00  0.00    +0.140 A 
ATOM     19  C   UNL     1      14.791  10.212  15.384  0.00  0.00    +0.131 A 
BRANCH  19  20
ATOM     10  N   UNL     1      15.229  11.127  13.262  0.00  0.00    -0.253 NA
ATOM     20  C   UNL     1      15.582  11.073  14.566  0.00  0.00    +0.092 A 
ATOM     22  C   UNL     1      16.635  11.788  15.115  0.00  0.00    +0.030 A 
ATOM     25  C   UNL     1      17.372  12.612  14.271  0.00  0.00    +0.004 A 
ATOM     26  C   UNL     1      15.969  11.939  12.473  0.00  0.00    +0.111 A 
ATOM     29  C   UNL     1      17.039  12.694  12.924  0.00  0.00    +0.020 A 
ENDBRANCH  19  20
ENDBRANCH  13   5
ENDBRANCH   6  14
BRANCH   9  21
ATOM     21  C   UNL     1      18.998   6.561  21.450  0.00  0.00    +0.035 A 
ATOM     23  C   UNL     1      20.048   7.272  22.032  0.00  0.00    +0.027 A 
ATOM     24  C   UNL     1      19.269   5.492  20.595  0.00  0.00    +0.027 A 
ATOM     27  C   UNL     1      21.368   6.916  21.758  0.00  0.00    +0.048 A 
ATOM     28  C   UNL     1      20.590   5.135  20.322  0.00  0.00    +0.048 A 
ATOM     30  C   UNL     1      21.639   5.847  20.903  0.00  0.00    +0.129 A 
BRANCH  30   4
ATOM      4  O   UNL     1      22.928   5.497  20.638  0.00  0.00    -0.456 OA
BRANCH   4  31
ATOM     31  C   UNL     1      23.341   4.231  21.017  0.00  0.00    +0.128 A 
ATOM     32  C   UNL     1      23.001   3.732  22.274  0.00  0.00    +0.046 A 
ATOM     33  C   UNL     1      24.100   3.454  20.141  0.00  0.00    +0.046 A 
ATOM     34  C   UNL     1      23.419   2.457  22.655  0.00  0.00    +0.004 A 
ATOM     35  C   UNL     1      24.517   2.179  20.521  0.00  0.00    +0.004 A 
ATOM     36  C   UNL     1      24.177   1.680  21.779  0.00  0.00    +0.000 A 
ENDBRANCH   4  31
ENDBRANCH  30   4
ENDBRANCH   9  21
TORSDOF 6
ENDMDL
MODEL 4
REMARK VINA RESULT:      -7.9     30.816     34.851
REMARK  Name = 23983673
REMARK  6 active torsions:
REMARK  status: ('A' for Active; 'I' for Inactive)
REMARK    1  A    between atoms: O_4  and  C_30
REMARK    2  A    between atoms: O_4  and  C_31
REMARK    3  A    between atoms: N_5  and  C_13
REMARK    4  A    between atoms: N_6  and  C_14
REMARK    5  A    between atoms: N_9  and  C_21
REMARK    6  A    between atoms: C_19  and  C_20
REMARK                            x       y       z     vdW  Elec       q    Type
REMARK                         _______ _______ _______ _____ _____    ______ ____
ROOT
ATOM      3  O   UNL     1       8.991   4.238  -2.885  0.00  0.00    -0.252 OA
ATOM      6  N   UNL     1      10.375   5.992  -2.288  0.00  0.00    -0.292 N 
ATOM      9  N   UNL     1       8.331   6.465  -3.221  0.00  0.00    -0.269 N 
ATOM     18  C   UNL     1       9.197   5.448  -2.813  0.00  0.00    +0.304 C 
ATOM     37  H   UNL     1      10.438   7.002  -2.201  0.00  0.00    +0.151 HD
ATOM     38  H   UNL     1       8.655   7.421  -3.091  0.00  0.00    +0.156 HD
ENDROOT
BRANCH   6  14
ATOM      1  O   UNL     1      11.983   3.622  -0.015  0.00  0.00    -0.370 OA
ATOM      2  O   UNL     1      12.766   6.620  -0.408  0.00  0.00    -0.370 OA
ATOM     11  C   UNL     1      11.827   5.951   0.454  0.00  0.00    +0.175 C 
ATOM     12  C   UNL     1      11.233   4.803  -0.340  0.00  0.00    +0.171 C 
ATOM     13  C   UNL     1      12.561   5.282   1.603  0.00  0.00    +0.166 C 
ATOM     14  C   UNL     1      11.463   5.191  -1.782  0.00  0.00    +0.131 C 
ATOM     15  C   UNL     1      12.957   3.941   0.989  0.00  0.00    +0.190 C 
ATOM     16  C   UNL     1      12.747   5.997  -1.700  0.00  0.00    +0.185 C 
BRANCH  13   5
ATOM      5  N   UNL     1      11.690   5.201   2.843  0.00  0.00    -0.243 N 
ATOM      7  N   UNL     1      11.122   4.040   3.208  0.00  0.00    -0.065 NA
ATOM      8  N   UNL     1      10.427   4.272   4.317  0.00  0.00    -0.128 NA
ATOM     17  C   UNL     1      11.375   6.206   3.705  0.00  0.00    +0.140 A 
ATOM     19  C   UNL     1      10.572   5.594   4.634  0.00  0.00    +0.131 A 
BRANCH  19  20
ATOM     10  N   UNL     1      10.654   6.116   6.927  0.00  0.00    -0.253 NA
ATOM     20  C   UNL     1       9.974   6.229   5.764  0.00  0.00    +0.092 A 
ATOM     22  C   UNL     1       8.772   6.905   5.631  0.00  0.00    +0.030 A 
ATOM     25  C   UNL     1       8.233   7.505   6.764  0.00  0.00    +0.004 A 
ATOM     26  C   UNL     1      10.100   6.712   8.007  0.00  0.00    +0.111 A 
ATOM     29  C   UNL     1       8.904   7.411   7.979  0.00  0.00    +0.020 A 
ENDBRANCH  19  20
ENDBRANCH  13   5
ENDBRANCH   6  14
BRANCH   9  21
ATOM     21  C   UNL     1       7.047   6.333  -3.800  0.00  0.00    +0.035 A 
ATOM     23  C   UNL     1       5.908   6.624  -3.047  0.00  0.00    +0.027 A 
ATOM     24  C   UNL     1       6.918   5.914  -5.125  0.00  0.00    +0.027 A 
ATOM     27  C   UNL     1       4.643   6.494  -3.618  0.00  0.00    +0.048 A 
ATOM     28  C   UNL     1       5.652   5.786  -5.696  0.00  0.00    +0.048 A 
ATOM     30  C   UNL     1       4.515   6.076  -4.943  0.00  0.00    +0.129 A 
BRANCH  30   4
ATOM      4  O   UNL     1       3.279   5.952  -5.501  0.00  0.00    -0.456 OA
BRANCH   4  31
ATOM     31  C   UNL     1       2.584   4.777  -5.271  0.00  0.00    +0.128 A 
ATOM     32  C   UNL     1       3.021   3.583  -5.843  0.00  0.00    +0.046 A 
ATOM     33  C   UNL     1       1.444   4.788  -4.466  0.00  0.00    +0.046 A 
ATOM     34  C   UNL     1       2.319   2.400  -5.612  0.00  0.00    +0.004 A 
ATOM     35  C   UNL     1       0.742   3.605  -4.234  0.00  0.00    +0.004 A 
ATOM     36  C   UNL     1       1.180   2.411  -4.807  0.00  0.00    +0.000 A 
ENDBRANCH   4  31
ENDBRANCH  30   4
ENDBRANCH   9  21
TORSDOF 6
ENDMDL
MODEL 5
REMARK VINA RESULT:      -7.9     16.961     19.494
REMARK  Name = 23983673
REMARK  6 active torsions:
REMARK  status: ('A' for Active; 'I' for Inactive)
REMARK    1  A    between atoms: O_4  and  C_30
REMARK    2  A    between atoms: O_4  and  C_31
REMARK    3  A    between atoms: N_5  and  C_13
REMARK    4  A    between atoms: N_6  and  C_14
REMARK    5  A    between atoms: N_9  and  C_21
REMARK    6  A    between atoms: C_19  and  C_20
REMARK                            x       y       z     vdW  Elec       q    Type
REMARK                         _______ _______ _______ _____ _____    ______ ____
ROOT
ATOM      3  O   UNL     1      -8.886  -8.382  17.840  0.00  0.00    -0.252 OA
ATOM      6  N   UNL     1      -9.254 -10.661  17.979  0.00  0.00    -0.292 N 
ATOM      9  N   UNL     1     -10.662  -9.390  16.684  0.00  0.00    -0.269 N 
ATOM     18  C   UNL     1      -9.545  -9.369  17.524  0.00  0.00    +0.304 C 
ATOM     37  H   UNL     1      -9.806 -11.432  17.616  0.00  0.00    +0.151 HD
ATOM     38  H   UNL     1     -11.096 -10.296  16.523  0.00  0.00    +0.156 HD
ENDROOT
BRANCH   6  14
ATOM      1  O   UNL     1      -5.819 -10.434  19.213  0.00  0.00    -0.370 OA
ATOM      2  O   UNL     1      -7.209 -12.997  18.092  0.00  0.00    -0.370 OA
ATOM     11  C   UNL     1      -6.467 -11.928  17.477  0.00  0.00    +0.175 C 
ATOM     12  C   UNL     1      -6.827 -10.652  18.213  0.00  0.00    +0.171 C 
ATOM     13  C   UNL     1      -4.981 -12.112  17.734  0.00  0.00    +0.166 C 
ATOM     14  C   UNL     1      -8.155 -10.963  18.864  0.00  0.00    +0.131 C 
ATOM     15  C   UNL     1      -4.811 -11.448  19.099  0.00  0.00    +0.190 C 
ATOM     16  C   UNL     1      -8.050 -12.455  19.121  0.00  0.00    +0.185 C 
BRANCH  13   5
ATOM      5  N   UNL     1      -4.147 -11.522  16.612  0.00  0.00    -0.243 N 
ATOM      7  N   UNL     1      -2.914 -11.048  16.850  0.00  0.00    -0.065 NA
ATOM      8  N   UNL     1      -2.434 -10.601  15.694  0.00  0.00    -0.128 NA
ATOM     17  C   UNL     1      -4.491 -11.392  15.301  0.00  0.00    +0.140 A 
ATOM     19  C   UNL     1      -3.388 -10.805  14.735  0.00  0.00    +0.131 A 
BRANCH  19  20
ATOM     10  N   UNL     1      -4.398 -10.298  12.672  0.00  0.00    -0.253 NA
ATOM     20  C   UNL     1      -3.244 -10.455  13.359  0.00  0.00    +0.092 A 
ATOM     22  C   UNL     1      -1.984 -10.297  12.806  0.00  0.00    +0.030 A 
ATOM     25  C   UNL     1      -1.902  -9.956  11.460  0.00  0.00    +0.004 A 
ATOM     26  C   UNL     1      -4.278  -9.967  11.367  0.00  0.00    +0.111 A 
ATOM     29  C   UNL     1      -3.067  -9.786  10.720  0.00  0.00    +0.020 A 
ENDBRANCH  19  20
ENDBRANCH  13   5
ENDBRANCH   6  14
BRANCH   9  21
ATOM     21  C   UNL     1     -11.272  -8.299  16.023  0.00  0.00    +0.035 A 
ATOM     23  C   UNL     1     -12.577  -8.414  15.542  0.00  0.00    +0.027 A 
ATOM     24  C   UNL     1     -10.570  -7.105  15.854  0.00  0.00    +0.027 A 
ATOM     27  C   UNL     1     -13.179  -7.338  14.892  0.00  0.00    +0.048 A 
ATOM     28  C   UNL     1     -11.173  -6.028  15.203  0.00  0.00    +0.048 A 
ATOM     30  C   UNL     1     -12.477  -6.144  14.722  0.00  0.00    +0.129 A 
BRANCH  30   4
ATOM      4  O   UNL     1     -13.066  -5.093  14.090  0.00  0.00    -0.456 OA
BRANCH   4  31
ATOM     31  C   UNL     1     -12.693  -4.839  12.780  0.00  0.00    +0.128 A 
ATOM     32  C   UNL     1     -12.675  -5.874  11.846  0.00  0.00    +0.046 A 
ATOM     33  C   UNL     1     -12.333  -3.547  12.396  0.00  0.00    +0.046 A 
ATOM     34  C   UNL     1     -12.298  -5.618  10.528  0.00  0.00    +0.004 A 
ATOM     35  C   UNL     1     -11.957  -3.290  11.078  0.00  0.00    +0.004 A 
ATOM     36  C   UNL     1     -11.939  -4.326  10.144  0.00  0.00    +0.000 A 
ENDBRANCH   4  31
ENDBRANCH  30   4
ENDBRANCH   9  21
TORSDOF 6
ENDMDL
MODEL 6
REMARK VINA RESULT:      -7.8      2.310      3.785
REMARK  Name = 23983673
REMARK  6 active torsions:
REMARK  status: ('A' for Active; 'I' for Inactive)
REMARK    1  A    between atoms: O_4  and  C_30
REMARK    2  A    between atoms: O_4  and  C_31
REMARK    3  A    between atoms: N_5  and  C_13
REMARK    4  A    between atoms: N_6  and  C_14
REMARK    5  A    between atoms: N_9  and  C_21
REMARK    6  A    between atoms: C_19  and  C_20
REMARK                            x       y       z     vdW  Elec       q    Type
REMARK                         _______ _______ _______ _____ _____    ______ ____
ROOT
ATOM      3  O   UNL     1     -15.039   7.211  20.201  0.00  0.00    -0.252 OA
ATOM      6  N   UNL     1     -14.749   6.376  22.338  0.00  0.00    -0.292 N 
ATOM      9  N   UNL     1     -12.921   7.193  21.212  0.00  0.00    -0.269 N 
ATOM     18  C   UNL     1     -14.297   6.958  21.147  0.00  0.00    +0.304 C 
ATOM     37  H   UNL     1     -14.084   6.262  23.097  0.00  0.00    +0.151 HD
ATOM     38  H   UNL     1     -12.452   6.923  22.074  0.00  0.00    +0.156 HD
ENDROOT
BRANCH   6  14
ATOM      1  O   UNL     1     -17.762   5.894  24.354  0.00  0.00    -0.370 OA
ATOM      2  O   UNL     1     -16.166   3.662  22.860  0.00  0.00    -0.370 OA
ATOM     11  C   UNL     1     -16.057   4.242  24.173  0.00  0.00    +0.175 C 
ATOM     12  C   UNL     1     -16.372   5.719  24.036  0.00  0.00    +0.171 C 
ATOM     13  C   UNL     1     -17.152   3.700  25.075  0.00  0.00    +0.166 C 
ATOM     14  C   UNL     1     -16.126   6.016  22.574  0.00  0.00    +0.131 C 
ATOM     15  C   UNL     1     -18.317   4.634  24.756  0.00  0.00    +0.190 C 
ATOM     16  C   UNL     1     -16.470   4.695  21.912  0.00  0.00    +0.185 C 
BRANCH  13   5
ATOM      5  N   UNL     1     -16.712   3.676  26.527  0.00  0.00    -0.243 N 
ATOM      7  N   UNL     1     -16.991   4.703  27.345  0.00  0.00    -0.065 NA
ATOM      8  N   UNL     1     -16.489   4.404  28.539  0.00  0.00    -0.128 NA
ATOM     17  C   UNL     1     -16.024   2.694  27.170  0.00  0.00    +0.140 A 
ATOM     19  C   UNL     1     -15.892   3.176  28.448  0.00  0.00    +0.131 A 
BRANCH  19  20
ATOM     10  N   UNL     1     -14.241   3.204  30.124  0.00  0.00    -0.253 NA
ATOM     20  C   UNL     1     -15.237   2.510  29.527  0.00  0.00    +0.092 A 
ATOM     22  C   UNL     1     -15.630   1.236  29.904  0.00  0.00    +0.030 A 
ATOM     25  C   UNL     1     -14.957   0.634  30.962  0.00  0.00    +0.004 A 
ATOM     26  C   UNL     1     -13.611   2.586  31.148  0.00  0.00    +0.111 A 
ATOM     29  C   UNL     1     -13.927   1.315  31.601  0.00  0.00    +0.020 A 
ENDBRANCH  19  20
ENDBRANCH  13   5
ENDBRANCH   6  14
BRANCH   9  21
ATOM     21  C   UNL     1     -12.090   7.764  20.221  0.00  0.00    +0.035 A 
ATOM     23  C   UNL     1     -11.651   6.990  19.146  0.00  0.00    +0.027 A 
ATOM     24  C   UNL     1     -11.709   9.103  20.316  0.00  0.00    +0.027 A 
ATOM     27  C   UNL     1     -10.832   7.553  18.169  0.00  0.00    +0.048 A 
ATOM     28  C   UNL     1     -10.890   9.667  19.338  0.00  0.00    +0.048 A 
ATOM     30  C   UNL     1     -10.452   8.892  18.264  0.00  0.00    +0.129 A 
BRANCH  30   4
ATOM      4  O   UNL     1      -9.655   9.443  17.308  0.00  0.00    -0.456 OA
BRANCH   4  31
ATOM     31  C   UNL     1     -10.187  10.461  16.535  0.00  0.00    +0.128 A 
ATOM     32  C   UNL     1      -9.707  11.764  16.669  0.00  0.00    +0.046 A 
ATOM     33  C   UNL     1     -11.206  10.184  15.623  0.00  0.00    +0.046 A 
ATOM     34  C   UNL     1     -10.245  12.789  15.891  0.00  0.00    +0.004 A 
ATOM     35  C   UNL     1     -11.744  11.208  14.845  0.00  0.00    +0.004 A 
ATOM     36  C   UNL     1     -11.264  12.511  14.979  0.00  0.00    +0.000 A 
ENDBRANCH   4  31
ENDBRANCH  30   4
ENDBRANCH   9  21
TORSDOF 6
ENDMDL
MODEL 7
REMARK VINA RESULT:      -7.8     29.248     33.298
REMARK  Name = 23983673
REMARK  6 active torsions:
REMARK  status: ('A' for Active; 'I' for Inactive)
REMARK    1  A    between atoms: O_4  and  C_30
REMARK    2  A    between atoms: O_4  and  C_31
REMARK    3  A    between atoms: N_5  and  C_13
REMARK    4  A    between atoms: N_6  and  C_14
REMARK    5  A    between atoms: N_9  and  C_21
REMARK    6  A    between atoms: C_19  and  C_20
REMARK                            x       y       z     vdW  Elec       q    Type
REMARK                         _______ _______ _______ _____ _____    ______ ____
ROOT
ATOM      3  O   UNL     1      19.187   6.763  20.123  0.00  0.00    -0.252 OA
ATOM      6  N   UNL     1      17.380   7.500  21.365  0.00  0.00    -0.292 N 
ATOM      9  N   UNL     1      19.227   6.698  22.469  0.00  0.00    -0.269 N 
ATOM     18  C   UNL     1      18.664   6.961  21.218  0.00  0.00    +0.304 C 
ATOM     37  H   UNL     1      17.048   7.696  22.305  0.00  0.00    +0.151 HD
ATOM     38  H   UNL     1      18.658   6.921  23.283  0.00  0.00    +0.156 HD
ENDROOT
BRANCH   6  14
ATOM      1  O   UNL     1      14.839   9.480  19.634  0.00  0.00    -0.370 OA
ATOM      2  O   UNL     1      14.661   6.435  20.307  0.00  0.00    -0.370 OA
ATOM     11  C   UNL     1      14.298   7.627  21.027  0.00  0.00    +0.175 C 
ATOM     12  C   UNL     1      15.346   8.676  20.711  0.00  0.00    +0.171 C 
ATOM     13  C   UNL     1      13.005   8.198  20.470  0.00  0.00    +0.166 C 
ATOM     14  C   UNL     1      16.544   7.876  20.252  0.00  0.00    +0.131 C 
ATOM     15  C   UNL     1      13.510   9.050  19.308  0.00  0.00    +0.190 C 
ATOM     16  C   UNL     1      15.896   6.660  19.614  0.00  0.00    +0.185 C 
BRANCH  13   5
ATOM      5  N   UNL     1      12.225   8.944  21.537  0.00  0.00    -0.243 N 
ATOM      7  N   UNL     1      11.373   8.292  22.344  0.00  0.00    -0.065 NA
ATOM      8  N   UNL     1      10.842   9.191  23.166  0.00  0.00    -0.128 NA
ATOM     17  C   UNL     1      12.263  10.275  21.818  0.00  0.00    +0.140 A 
ATOM     19  C   UNL     1      11.377  10.411  22.857  0.00  0.00    +0.131 A 
BRANCH  19  20
ATOM     10  N   UNL     1      11.055  11.580  24.872  0.00  0.00    -0.253 NA
ATOM     20  C   UNL     1      11.054  11.632  23.521  0.00  0.00    +0.092 A 
ATOM     22  C   UNL     1      10.766  12.772  22.788  0.00  0.00    +0.030 A 
ATOM     25  C   UNL     1      10.458  13.935  23.487  0.00  0.00    +0.004 A 
ATOM     26  C   UNL     1      10.751  12.730  25.517  0.00  0.00    +0.111 A 
ATOM     29  C   UNL     1      10.449  13.921  24.877  0.00  0.00    +0.020 A 
ENDBRANCH  19  20
ENDBRANCH  13   5
ENDBRANCH   6  14
BRANCH   9  21
ATOM     21  C   UNL     1      20.502   6.154  22.750  0.00  0.00    +0.035 A 
ATOM     23  C   UNL     1      21.256   6.654  23.813  0.00  0.00    +0.027 A 
ATOM     24  C   UNL     1      21.006   5.115  21.967  0.00  0.00    +0.027 A 
ATOM     27  C   UNL     1      22.512   6.117  24.091  0.00  0.00    +0.048 A 
ATOM     28  C   UNL     1      22.263   4.578  22.245  0.00  0.00    +0.048 A 
ATOM     30  C   UNL     1      23.016   5.079  23.307  0.00  0.00    +0.129 A 
BRANCH  30   4
ATOM      4  O   UNL     1      24.241   4.553  23.580  0.00  0.00    -0.456 OA
BRANCH   4  31
ATOM     31  C   UNL     1      24.521   3.287  23.093  0.00  0.00    +0.128 A 
ATOM     32  C   UNL     1      25.336   3.134  21.973  0.00  0.00    +0.046 A 
ATOM     33  C   UNL     1      23.984   2.164  23.723  0.00  0.00    +0.046 A 
ATOM     34  C   UNL     1      25.616   1.859  21.482  0.00  0.00    +0.004 A 
ATOM     35  C   UNL     1      24.265   0.889  23.234  0.00  0.00    +0.004 A 
ATOM     36  C   UNL     1      25.080   0.736  22.112  0.00  0.00    +0.000 A 
ENDBRANCH   4  31
ENDBRANCH  30   4
ENDBRANCH   9  21
TORSDOF 6
ENDMDL
MODEL 8
REMARK VINA RESULT:      -7.8     16.357     18.503
REMARK  Name = 23983673
REMARK  6 active torsions:
REMARK  status: ('A' for Active; 'I' for Inactive)
REMARK    1  A    between atoms: O_4  and  C_30
REMARK    2  A    between atoms: O_4  and  C_31
REMARK    3  A    between atoms: N_5  and  C_13
REMARK    4  A    between atoms: N_6  and  C_14
REMARK    5  A    between atoms: N_9  and  C_21
REMARK    6  A    between atoms: C_19  and  C_20
REMARK                            x       y       z     vdW  Elec       q    Type
REMARK                         _______ _______ _______ _____ _____    ______ ____
ROOT
ATOM      3  O   UNL     1     -11.300  -8.594  17.814  0.00  0.00    -0.252 OA
ATOM      6  N   UNL     1     -11.070 -10.722  16.938  0.00  0.00    -0.292 N 
ATOM      9  N   UNL     1     -11.773  -9.027  15.557  0.00  0.00    -0.269 N 
ATOM     18  C   UNL     1     -11.379  -9.359  16.856  0.00  0.00    +0.304 C 
ATOM     37  H   UNL     1     -11.095 -11.271  16.084  0.00  0.00    +0.151 HD
ATOM     38  H   UNL     1     -11.783  -9.783  14.875  0.00  0.00    +0.156 HD
ENDROOT
BRANCH   6  14
ATOM      1  O   UNL     1      -8.797 -11.356  19.731  0.00  0.00    -0.370 OA
ATOM      2  O   UNL     1      -9.589 -13.394  17.500  0.00  0.00    -0.370 OA
ATOM     11  C   UNL     1      -8.550 -12.404  17.607  0.00  0.00    +0.175 C 
ATOM     12  C   UNL     1      -9.139 -11.216  18.343  0.00  0.00    +0.171 C 
ATOM     13  C   UNL     1      -7.444 -12.907  18.518  0.00  0.00    +0.166 C 
ATOM     14  C   UNL     1     -10.631 -11.365  18.152  0.00  0.00    +0.131 C 
ATOM     15  C   UNL     1      -7.965 -12.514  19.898  0.00  0.00    +0.190 C 
ATOM     16  C   UNL     1     -10.798 -12.872  18.068  0.00  0.00    +0.185 C 
BRANCH  13   5
ATOM      5  N   UNL     1      -6.099 -12.317  18.135  0.00  0.00    -0.243 N 
ATOM      7  N   UNL     1      -5.203 -11.984  19.077  0.00  0.00    -0.065 NA
ATOM      8  N   UNL     1      -4.135 -11.500  18.452  0.00  0.00    -0.128 NA
ATOM     17  C   UNL     1      -5.633 -12.055  16.883  0.00  0.00    +0.140 A 
ATOM     19  C   UNL     1      -4.383 -11.536  17.107  0.00  0.00    +0.131 A 
BRANCH  19  20
ATOM     10  N   UNL     1      -2.223 -10.804  16.531  0.00  0.00    -0.253 NA
ATOM     20  C   UNL     1      -3.470 -11.098  16.101  0.00  0.00    +0.092 A 
ATOM     22  C   UNL     1      -3.881 -10.996  14.781  0.00  0.00    +0.030 A 
ATOM     25  C   UNL     1      -2.951 -10.564  13.842  0.00  0.00    +0.004 A 
ATOM     26  C   UNL     1      -1.346 -10.387  15.589  0.00  0.00    +0.111 A 
ATOM     29  C   UNL     1      -1.657 -10.252  14.246  0.00  0.00    +0.020 A 
ENDBRANCH  19  20
ENDBRANCH  13   5
ENDBRANCH   6  14
BRANCH   9  21
ATOM     21  C   UNL     1     -12.163  -7.760  15.064  0.00  0.00    +0.035 A 
ATOM     23  C   UNL     1     -13.405  -7.602  14.449  0.00  0.00    +0.027 A 
ATOM     24  C   UNL     1     -11.306  -6.666  15.195  0.00  0.00    +0.027 A 
ATOM     27  C   UNL     1     -13.790  -6.353  13.965  0.00  0.00    +0.048 A 
ATOM     28  C   UNL     1     -11.691  -5.416  14.710  0.00  0.00    +0.048 A 
ATOM     30  C   UNL     1     -12.933  -5.259  14.095  0.00  0.00    +0.129 A 
BRANCH  30   4
ATOM      4  O   UNL     1     -13.310  -4.039  13.625  0.00  0.00    -0.456 OA
BRANCH   4  31
ATOM     31  C   UNL     1     -13.303  -3.848  12.253  0.00  0.00    +0.128 A 
ATOM     32  C   UNL     1     -12.114  -3.979  11.536  0.00  0.00    +0.046 A 
ATOM     33  C   UNL     1     -14.486  -3.523  11.589  0.00  0.00    +0.046 A 
ATOM     34  C   UNL     1     -12.108  -3.785  10.155  0.00  0.00    +0.004 A 
ATOM     35  C   UNL     1     -14.480  -3.330  10.208  0.00  0.00    +0.004 A 
ATOM     36  C   UNL     1     -13.291  -3.461   9.491  0.00  0.00    +0.000 A 
ENDBRANCH   4  31
ENDBRANCH  30   4
ENDBRANCH   9  21
TORSDOF 6
ENDMDL
MODEL 9
REMARK VINA RESULT:      -7.6     22.618     27.048
REMARK  Name = 23983673
REMARK  6 active torsions:
REMARK  status: ('A' for Active; 'I' for Inactive)
REMARK    1  A    between atoms: O_4  and  C_30
REMARK    2  A    between atoms: O_4  and  C_31
REMARK    3  A    between atoms: N_5  and  C_13
REMARK    4  A    between atoms: N_6  and  C_14
REMARK    5  A    between atoms: N_9  and  C_21
REMARK    6  A    between atoms: C_19  and  C_20
REMARK                            x       y       z     vdW  Elec       q    Type
REMARK                         _______ _______ _______ _____ _____    ______ ____
ROOT
ATOM      3  O   UNL     1      -7.287  -9.919   9.205  0.00  0.00    -0.252 OA
ATOM      6  N   UNL     1      -7.041  -9.463   6.951  0.00  0.00    -0.292 N 
ATOM      9  N   UNL     1      -5.163  -9.878   8.207  0.00  0.00    -0.269 N 
ATOM     18  C   UNL     1      -6.556  -9.771   8.228  0.00  0.00    +0.304 C 
ATOM     37  H   UNL     1      -6.377  -9.425   6.184  0.00  0.00    +0.151 HD
ATOM     38  H   UNL     1      -4.707  -9.726   7.310  0.00  0.00    +0.156 HD
ENDROOT
BRANCH   6  14
ATOM      1  O   UNL     1     -10.076  -9.769   4.934  0.00  0.00    -0.370 OA
ATOM      2  O   UNL     1      -8.673  -7.103   5.761  0.00  0.00    -0.370 OA
ATOM     11  C   UNL     1      -8.512  -7.997   4.645  0.00  0.00    +0.175 C 
ATOM     12  C   UNL     1      -8.706  -9.407   5.170  0.00  0.00    +0.171 C 
ATOM     13  C   UNL     1      -9.644  -7.800   3.652  0.00  0.00    +0.166 C 
ATOM     14  C   UNL     1      -8.442  -9.288   6.654  0.00  0.00    +0.131 C 
ATOM     15  C   UNL     1     -10.731  -8.707   4.226  0.00  0.00    +0.190 C 
ATOM     16  C   UNL     1      -8.895  -7.871   6.952  0.00  0.00    +0.185 C 
BRANCH  13   5
ATOM      5  N   UNL     1      -9.202  -8.124   2.237  0.00  0.00    -0.243 N 
ATOM      7  N   UNL     1      -7.942  -8.509   1.984  0.00  0.00    -0.065 NA
ATOM      8  N   UNL     1      -7.850  -8.721   0.675  0.00  0.00    -0.128 NA
ATOM     17  C   UNL     1      -9.951  -8.076   1.101  0.00  0.00    +0.140 A 
ATOM     19  C   UNL     1      -9.072  -8.460   0.120  0.00  0.00    +0.131 A 
BRANCH  19  20
ATOM     10  N   UNL     1      -8.383  -9.070  -2.045  0.00  0.00    -0.253 NA
ATOM     20  C   UNL     1      -9.374  -8.574  -1.270  0.00  0.00    +0.092 A 
ATOM     22  C   UNL     1     -10.615  -8.189  -1.750  0.00  0.00    +0.030 A 
ATOM     25  C   UNL     1     -10.856  -8.321  -3.114  0.00  0.00    +0.004 A 
ATOM     26  C   UNL     1      -8.654  -9.184  -3.365  0.00  0.00    +0.111 A 
ATOM     29  C   UNL     1      -9.861  -8.828  -3.943  0.00  0.00    +0.020 A 
ENDBRANCH  19  20
ENDBRANCH  13   5
ENDBRANCH   6  14
BRANCH   9  21
ATOM     21  C   UNL     1      -4.298 -10.175   9.286  0.00  0.00    +0.035 A 
ATOM     23  C   UNL     1      -3.534  -9.163   9.867  0.00  0.00    +0.027 A 
ATOM     24  C   UNL     1      -4.210 -11.480   9.770  0.00  0.00    +0.027 A 
ATOM     27  C   UNL     1      -2.682  -9.455  10.931  0.00  0.00    +0.048 A 
ATOM     28  C   UNL     1      -3.358 -11.773  10.835  0.00  0.00    +0.048 A 
ATOM     30  C   UNL     1      -2.594 -10.760  11.416  0.00  0.00    +0.129 A 
BRANCH  30   4
ATOM      4  O   UNL     1      -1.764 -11.045  12.456  0.00  0.00    -0.456 OA
BRANCH   4  31
ATOM     31  C   UNL     1      -2.265 -10.895  13.738  0.00  0.00    +0.128 A 
ATOM     32  C   UNL     1      -3.643 -10.901  13.955  0.00  0.00    +0.046 A 
ATOM     33  C   UNL     1      -1.391 -10.735  14.814  0.00  0.00    +0.046 A 
ATOM     34  C   UNL     1      -4.147 -10.748  15.246  0.00  0.00    +0.004 A 
ATOM     35  C   UNL     1      -1.895 -10.583  16.106  0.00  0.00    +0.004 A 
ATOM     36  C   UNL     1      -3.273 -10.589  16.322  0.00  0.00    +0.000 A 
ENDBRANCH   4  31
ENDBRANCH  30   4
ENDBRANCH   9  21
TORSDOF 6
ENDMDL
MODEL 10
REMARK VINA RESULT:      -7.4      2.502      4.589
REMARK  Name = 23983673
REMARK  6 active torsions:
REMARK  status: ('A' for Active; 'I' for Inactive)
REMARK    1  A    between atoms: O_4  and  C_30
REMARK    2  A    between atoms: O_4  and  C_31
REMARK    3  A    between atoms: N_5  and  C_13
REMARK    4  A    between atoms: N_6  and  C_14
REMARK    5  A    between atoms: N_9  and  C_21
REMARK    6  A    between atoms: C_19  and  C_20
REMARK                            x       y       z     vdW  Elec       q    Type
REMARK                         _______ _______ _______ _____ _____    ______ ____
ROOT
ATOM      3  O   UNL     1     -15.142   8.756  20.255  0.00  0.00    -0.252 OA
ATOM      6  N   UNL     1     -15.071   6.687  21.286  0.00  0.00    -0.292 N 
ATOM      9  N   UNL     1     -13.223   7.411  20.130  0.00  0.00    -0.269 N 
ATOM     18  C   UNL     1     -14.527   7.727  20.522  0.00  0.00    +0.304 C 
ATOM     37  H   UNL     1     -14.472   5.901  21.519  0.00  0.00    +0.151 HD
ATOM     38  H   UNL     1     -12.859   6.512  20.437  0.00  0.00    +0.156 HD
ENDROOT
BRANCH   6  14
ATOM      1  O   UNL     1     -17.604   6.282  23.892  0.00  0.00    -0.370 OA
ATOM      2  O   UNL     1     -17.437   4.676  21.219  0.00  0.00    -0.370 OA
ATOM     11  C   UNL     1     -16.865   4.479  22.525  0.00  0.00    +0.175 C 
ATOM     12  C   UNL     1     -16.510   5.850  23.068  0.00  0.00    +0.171 C 
ATOM     13  C   UNL     1     -17.920   3.951  23.481  0.00  0.00    +0.166 C 
ATOM     14  C   UNL     1     -16.404   6.720  21.837  0.00  0.00    +0.131 C 
ATOM     15  C   UNL     1     -18.585   5.238  23.962  0.00  0.00    +0.190 C 
ATOM     16  C   UNL     1     -17.404   6.073  20.895  0.00  0.00    +0.185 C 
BRANCH  13   5
ATOM      5  N   UNL     1     -17.302   3.088  24.566  0.00  0.00    -0.243 N 
ATOM      7  N   UNL     1     -16.846   1.857  24.287  0.00  0.00    -0.065 NA
ATOM      8  N   UNL     1     -16.367   1.348  25.417  0.00  0.00    -0.128 NA
ATOM     17  C   UNL     1     -17.130   3.402  25.879  0.00  0.00    +0.140 A 
ATOM     19  C   UNL     1     -16.533   2.282  26.402  0.00  0.00    +0.131 A 
BRANCH  19  20
ATOM     10  N   UNL     1     -16.297   0.858  28.259  0.00  0.00    -0.253 NA
ATOM     20  C   UNL     1     -16.141   2.106  27.763  0.00  0.00    +0.092 A 
ATOM     22  C   UNL     1     -15.638   3.173  28.489  0.00  0.00    +0.030 A 
ATOM     25  C   UNL     1     -15.272   2.945  29.812  0.00  0.00    +0.004 A 
ATOM     26  C   UNL     1     -15.930   0.675  29.548  0.00  0.00    +0.111 A 
ATOM     29  C   UNL     1     -15.417   1.675  30.358  0.00  0.00    +0.020 A 
ENDBRANCH  19  20
ENDBRANCH  13   5
ENDBRANCH   6  14
BRANCH   9  21
ATOM     21  C   UNL     1     -12.337   8.192  19.353  0.00  0.00    +0.035 A 
ATOM     23  C   UNL     1     -12.634   8.464  18.017  0.00  0.00    +0.027 A 
ATOM     24  C   UNL     1     -11.165   8.692  19.921  0.00  0.00    +0.027 A 
ATOM     27  C   UNL     1     -11.761   9.235  17.250  0.00  0.00    +0.048 A 
ATOM     28  C   UNL     1     -10.292   9.464  19.155  0.00  0.00    +0.048 A 
ATOM     30  C   UNL     1     -10.589   9.735  17.819  0.00  0.00    +0.129 A 
BRANCH  30   4
ATOM      4  O   UNL     1      -9.738  10.490  17.072  0.00  0.00    -0.456 OA
BRANCH   4  31
ATOM     31  C   UNL     1      -9.767  11.862  17.254  0.00  0.00    +0.128 A 
ATOM     32  C   UNL     1     -10.855  12.460  17.889  0.00  0.00    +0.046 A 
ATOM     33  C   UNL     1      -8.707  12.648  16.799  0.00  0.00    +0.046 A 
ATOM     34  C   UNL     1     -10.884  13.842  18.070  0.00  0.00    +0.004 A 
ATOM     35  C   UNL     1      -8.736  14.030  16.981  0.00  0.00    +0.004 A 
ATOM     36  C   UNL     1      -9.825  14.628  17.616  0.00  0.00    +0.000 A 
ENDBRANCH   4  31
ENDBRANCH  30   4
ENDBRANCH   9  21
TORSDOF 6
ENDMDL
