MODEL 1
REMARK VINA RESULT:      -6.3      0.000      0.000
REMARK  Name = 56775759
REMARK  8 active torsions:
REMARK  status: ('A' for Active; 'I' for Inactive)
REMARK    1  A    between atoms: O_3  and  C_25
REMARK    2  A    between atoms: O_3  and  C_26
REMARK    3  A    between atoms: N_4  and  C_7
REMARK    4  A    between atoms: N_4  and  C_8
REMARK    5  A    between atoms: N_5  and  C_17
REMARK    6  A    between atoms: C_7  and  C_11
REMARK    7  A    between atoms: C_11  and  C_16
REMARK    8  A    between atoms: C_19  and  C_20
REMARK                            x       y       z     vdW  Elec       q    Type
REMARK                         _______ _______ _______ _____ _____    ______ ____
ROOT
ATOM     11  C   UNL     1      19.243   6.605  22.031  0.00  0.00    +0.085 C 
ENDROOT
BRANCH  11  16
ATOM      2  O   UNL     1      17.152   6.021  19.142  0.00  0.00    -0.354 OA
ATOM      6  N   UNL     1      18.335   5.868  19.856  0.00  0.00    -0.083 NA
ATOM     16  C   UNL     1      18.144   6.549  20.989  0.00  0.00    +0.086 A 
ATOM     18  C   UNL     1      16.874   7.146  21.046  0.00  0.00    +0.076 A 
ATOM     19  C   UNL     1      16.290   6.785  19.861  0.00  0.00    +0.167 A 
BRANCH  19  20
ATOM     20  C   UNL     1      15.016   7.030  19.249  0.00  0.00    +0.020 A 
ATOM     21  C   UNL     1      13.843   6.791  19.963  0.00  0.00    +0.015 A 
ATOM     22  C   UNL     1      14.952   7.508  17.940  0.00  0.00    +0.015 A 
ATOM     23  C   UNL     1      12.603   7.030  19.368  0.00  0.00    +0.046 A 
ATOM     24  C   UNL     1      13.714   7.747  17.345  0.00  0.00    +0.046 A 
ATOM     25  C   UNL     1      12.539   7.508  18.059  0.00  0.00    +0.120 A 
BRANCH  25   3
ATOM      3  O   UNL     1      11.331   7.745  17.479  0.00  0.00    -0.495 OA
ATOM     26  C   UNL     1      11.272   8.781  16.501  0.00  0.00    +0.277 C 
ENDBRANCH  25   3
ENDBRANCH  19  20
ENDBRANCH  11  16
BRANCH  11   7
ATOM      1  O   UNL     1      21.432   9.137  21.937  0.00  0.00    -0.376 OA
ATOM      7  C   UNL     1      20.457   7.292  21.486  0.00  0.00    +0.072 C 
ATOM      9  C   UNL     1      20.351   8.750  21.058  0.00  0.00    +0.184 C 
ATOM     10  C   UNL     1      21.523   7.790  22.456  0.00  0.00    +0.184 C 
BRANCH   7   4
ATOM      4  N   UNL     1      21.112   6.532  20.417  0.00  0.00    -0.304 NA
ATOM     27  H   UNL     1      21.603   7.081  19.712  0.00  0.00    +0.123 HD
BRANCH   4   8
ATOM      5  N   UNL     1      23.692   3.165  20.692  0.00  0.00    -0.305 NA
ATOM      8  C   UNL     1      21.994   5.528  21.007  0.00  0.00    +0.057 C 
ATOM     12  C   UNL     1      23.382   5.600  20.367  0.00  0.00    +0.034 C 
ATOM     13  C   UNL     1      21.413   4.121  20.838  0.00  0.00    +0.034 C 
ATOM     14  C   UNL     1      24.292   4.491  20.903  0.00  0.00    +0.085 C 
ATOM     15  C   UNL     1      22.387   3.060  21.358  0.00  0.00    +0.085 C 
ATOM     17  C   UNL     1      24.594   2.115  21.162  0.00  0.00    +0.104 C 
ENDBRANCH   4   8
ENDBRANCH   7   4
ENDBRANCH  11   7
TORSDOF 6
ENDMDL
MODEL 2
REMARK VINA RESULT:      -6.3      5.726      8.595
REMARK  Name = 56775759
REMARK  8 active torsions:
REMARK  status: ('A' for Active; 'I' for Inactive)
REMARK    1  A    between atoms: O_3  and  C_25
REMARK    2  A    between atoms: O_3  and  C_26
REMARK    3  A    between atoms: N_4  and  C_7
REMARK    4  A    between atoms: N_4  and  C_8
REMARK    5  A    between atoms: N_5  and  C_17
REMARK    6  A    between atoms: C_7  and  C_11
REMARK    7  A    between atoms: C_11  and  C_16
REMARK    8  A    between atoms: C_19  and  C_20
REMARK                            x       y       z     vdW  Elec       q    Type
REMARK                         _______ _______ _______ _____ _____    ______ ____
ROOT
ATOM     11  C   UNL     1      10.972   8.478  19.847  0.00  0.00    +0.085 C 
ENDROOT
BRANCH  11  16
ATOM      2  O   UNL     1      11.004   9.297  23.367  0.00  0.00    -0.354 OA
ATOM      6  N   UNL     1      10.806   8.416  22.311  0.00  0.00    -0.083 NA
ATOM     16  C   UNL     1      11.081   9.125  21.213  0.00  0.00    +0.086 A 
ATOM     18  C   UNL     1      11.454  10.447  21.511  0.00  0.00    +0.076 A 
ATOM     19  C   UNL     1      11.389  10.504  22.878  0.00  0.00    +0.167 A 
BRANCH  19  20
ATOM     20  C   UNL     1      11.634  11.523  23.857  0.00  0.00    +0.020 A 
ATOM     21  C   UNL     1      10.579  12.301  24.331  0.00  0.00    +0.015 A 
ATOM     22  C   UNL     1      12.927  11.735  24.334  0.00  0.00    +0.015 A 
ATOM     23  C   UNL     1      10.817  13.293  25.284  0.00  0.00    +0.046 A 
ATOM     24  C   UNL     1      13.166  12.725  25.288  0.00  0.00    +0.046 A 
ATOM     25  C   UNL     1      12.110  13.505  25.762  0.00  0.00    +0.120 A 
BRANCH  25   3
ATOM      3  O   UNL     1      12.342  14.469  26.694  0.00  0.00    -0.495 OA
ATOM     26  C   UNL     1      11.213  15.201  27.166  0.00  0.00    +0.277 C 
ENDBRANCH  25   3
ENDBRANCH  19  20
ENDBRANCH  11  16
BRANCH  11   7
ATOM      1  O   UNL     1      13.344   8.359  17.488  0.00  0.00    -0.376 OA
ATOM      7  C   UNL     1      12.323   8.076  19.341  0.00  0.00    +0.072 C 
ATOM      9  C   UNL     1      12.426   7.365  17.997  0.00  0.00    +0.184 C 
ATOM     10  C   UNL     1      13.218   9.133  18.703  0.00  0.00    +0.184 C 
BRANCH   7   4
ATOM      4  N   UNL     1      13.105   7.330  20.331  0.00  0.00    -0.304 NA
ATOM     27  H   UNL     1      13.084   6.314  20.246  0.00  0.00    +0.123 HD
BRANCH   4   8
ATOM      5  N   UNL     1      17.178   7.769  21.467  0.00  0.00    -0.305 NA
ATOM      8  C   UNL     1      14.479   7.827  20.335  0.00  0.00    +0.057 C 
ATOM     12  C   UNL     1      15.457   6.683  20.056  0.00  0.00    +0.034 C 
ATOM     13  C   UNL     1      14.818   8.490  21.673  0.00  0.00    +0.034 C 
ATOM     14  C   UNL     1      16.907   7.164  20.154  0.00  0.00    +0.085 C 
ATOM     15  C   UNL     1      16.290   8.912  21.719  0.00  0.00    +0.085 C 
ATOM     17  C   UNL     1      18.579   8.177  21.563  0.00  0.00    +0.104 C 
ENDBRANCH   4   8
ENDBRANCH   7   4
ENDBRANCH  11   7
TORSDOF 6
ENDMDL
MODEL 3
REMARK VINA RESULT:      -6.3      4.123      9.542
REMARK  Name = 56775759
REMARK  8 active torsions:
REMARK  status: ('A' for Active; 'I' for Inactive)
REMARK    1  A    between atoms: O_3  and  C_25
REMARK    2  A    between atoms: O_3  and  C_26
REMARK    3  A    between atoms: N_4  and  C_7
REMARK    4  A    between atoms: N_4  and  C_8
REMARK    5  A    between atoms: N_5  and  C_17
REMARK    6  A    between atoms: C_7  and  C_11
REMARK    7  A    between atoms: C_11  and  C_16
REMARK    8  A    between atoms: C_19  and  C_20
REMARK                            x       y       z     vdW  Elec       q    Type
REMARK                         _______ _______ _______ _____ _____    ______ ____
ROOT
ATOM     11  C   UNL     1      13.536   8.826  19.974  0.00  0.00    +0.085 C 
ENDROOT
BRANCH  11  16
ATOM      2  O   UNL     1      16.199   6.588  18.993  0.00  0.00    -0.354 OA
ATOM      6  N   UNL     1      14.958   7.182  18.800  0.00  0.00    -0.083 NA
ATOM     16  C   UNL     1      14.798   7.998  19.846  0.00  0.00    +0.086 A 
ATOM     18  C   UNL     1      15.895   7.961  20.723  0.00  0.00    +0.076 A 
ATOM     19  C   UNL     1      16.747   7.060  20.142  0.00  0.00    +0.167 A 
BRANCH  19  20
ATOM     20  C   UNL     1      18.040   6.535  20.476  0.00  0.00    +0.020 A 
ATOM     21  C   UNL     1      18.557   5.453  19.765  0.00  0.00    +0.015 A 
ATOM     22  C   UNL     1      18.778   7.108  21.512  0.00  0.00    +0.015 A 
ATOM     23  C   UNL     1      19.815   4.943  20.090  0.00  0.00    +0.046 A 
ATOM     24  C   UNL     1      20.036   6.599  21.836  0.00  0.00    +0.046 A 
ATOM     25  C   UNL     1      20.554   5.516  21.125  0.00  0.00    +0.120 A 
BRANCH  25   3
ATOM      3  O   UNL     1      21.782   5.021  21.440  0.00  0.00    -0.495 OA
ATOM     26  C   UNL     1      22.815   5.183  20.470  0.00  0.00    +0.277 C 
ENDBRANCH  25   3
ENDBRANCH  19  20
ENDBRANCH  11  16
BRANCH  11   7
ATOM      1  O   UNL     1      11.170   6.621  20.838  0.00  0.00    -0.376 OA
ATOM      7  C   UNL     1      12.592   8.208  20.959  0.00  0.00    +0.072 C 
ATOM      9  C   UNL     1      11.127   8.042  20.574  0.00  0.00    +0.184 C 
ATOM     10  C   UNL     1      12.585   6.692  21.125  0.00  0.00    +0.184 C 
BRANCH   7   4
ATOM      4  N   UNL     1      12.665   8.828  22.285  0.00  0.00    -0.304 NA
ATOM     27  H   UNL     1      13.442   8.534  22.875  0.00  0.00    +0.123 HD
BRANCH   4   8
ATOM      5  N   UNL     1      12.393  12.931  23.362  0.00  0.00    -0.305 NA
ATOM      8  C   UNL     1      12.635  10.282  22.142  0.00  0.00    +0.057 C 
ATOM     12  C   UNL     1      13.771  10.917  22.947  0.00  0.00    +0.034 C 
ATOM     13  C   UNL     1      11.289  10.850  22.600  0.00  0.00    +0.034 C 
ATOM     14  C   UNL     1      13.698  12.445  22.890  0.00  0.00    +0.085 C 
ATOM     15  C   UNL     1      11.297  12.381  22.554  0.00  0.00    +0.085 C 
ATOM     17  C   UNL     1      12.356  14.393  23.348  0.00  0.00    +0.104 C 
ENDBRANCH   4   8
ENDBRANCH   7   4
ENDBRANCH  11   7
TORSDOF 6
ENDMDL
MODEL 4
REMARK VINA RESULT:      -6.2     27.862     31.826
REMARK  Name = 56775759
REMARK  8 active torsions:
REMARK  status: ('A' for Active; 'I' for Inactive)
REMARK    1  A    between atoms: O_3  and  C_25
REMARK    2  A    between atoms: O_3  and  C_26
REMARK    3  A    between atoms: N_4  and  C_7
REMARK    4  A    between atoms: N_4  and  C_8
REMARK    5  A    between atoms: N_5  and  C_17
REMARK    6  A    between atoms: C_7  and  C_11
REMARK    7  A    between atoms: C_11  and  C_16
REMARK    8  A    between atoms: C_19  and  C_20
REMARK                            x       y       z     vdW  Elec       q    Type
REMARK                         _______ _______ _______ _____ _____    ______ ____
ROOT
ATOM     11  C   UNL     1      -8.022 -12.785  20.049  0.00  0.00    +0.085 C 
ENDROOT
BRANCH  11  16
ATOM      2  O   UNL     1      -5.267 -10.690  19.007  0.00  0.00    -0.354 OA
ATOM      6  N   UNL     1      -6.224 -11.095  19.930  0.00  0.00    -0.083 NA
ATOM     16  C   UNL     1      -6.886 -12.088  19.328  0.00  0.00    +0.086 A 
ATOM     18  C   UNL     1      -6.396 -12.350  18.038  0.00  0.00    +0.076 A 
ATOM     19  C   UNL     1      -5.379 -11.445  17.884  0.00  0.00    +0.167 A 
BRANCH  19  20
ATOM     20  C   UNL     1      -4.450 -11.142  16.835  0.00  0.00    +0.020 A 
ATOM     21  C   UNL     1      -3.093 -11.002  17.124  0.00  0.00    +0.015 A 
ATOM     22  C   UNL     1      -4.903 -10.988  15.525  0.00  0.00    +0.015 A 
ATOM     23  C   UNL     1      -2.189 -10.708  16.103  0.00  0.00    +0.046 A 
ATOM     24  C   UNL     1      -4.000 -10.695  14.504  0.00  0.00    +0.046 A 
ATOM     25  C   UNL     1      -2.642 -10.554  14.793  0.00  0.00    +0.120 A 
BRANCH  25   3
ATOM      3  O   UNL     1      -1.760 -10.270  13.797  0.00  0.00    -0.495 OA
ATOM     26  C   UNL     1      -2.157 -10.596  12.466  0.00  0.00    +0.277 C 
ENDBRANCH  25   3
ENDBRANCH  19  20
ENDBRANCH  11  16
BRANCH  11   7
ATOM      1  O   UNL     1     -11.273 -12.894  19.259  0.00  0.00    -0.376 OA
ATOM      7  C   UNL     1      -9.333 -12.137  19.725  0.00  0.00    +0.072 C 
ATOM      9  C   UNL     1     -10.092 -12.586  18.483  0.00  0.00    +0.184 C 
ATOM     10  C   UNL     1     -10.580 -12.573  20.486  0.00  0.00    +0.184 C 
BRANCH   7   4
ATOM      4  N   UNL     1      -9.263 -10.673  19.733  0.00  0.00    -0.304 NA
ATOM     27  H   UNL     1      -8.362 -10.268  19.982  0.00  0.00    +0.123 HD
BRANCH   4   8
ATOM      5  N   UNL     1     -10.298  -7.885  16.695  0.00  0.00    -0.305 NA
ATOM      8  C   UNL     1      -9.730 -10.160  18.447  0.00  0.00    +0.057 C 
ATOM     12  C   UNL     1      -8.620  -9.361  17.760  0.00  0.00    +0.034 C 
ATOM     13  C   UNL     1     -10.972  -9.282  18.625  0.00  0.00    +0.034 C 
ATOM     14  C   UNL     1      -9.121  -8.733  16.457  0.00  0.00    +0.085 C 
ATOM     15  C   UNL     1     -11.397  -8.656  17.293  0.00  0.00    +0.085 C 
ATOM     17  C   UNL     1     -10.735  -7.253  15.451  0.00  0.00    +0.104 C 
ENDBRANCH   4   8
ENDBRANCH   7   4
ENDBRANCH  11   7
TORSDOF 6
ENDMDL
MODEL 5
REMARK VINA RESULT:      -6.2     30.436     34.364
REMARK  Name = 56775759
REMARK  8 active torsions:
REMARK  status: ('A' for Active; 'I' for Inactive)
REMARK    1  A    between atoms: O_3  and  C_25
REMARK    2  A    between atoms: O_3  and  C_26
REMARK    3  A    between atoms: N_4  and  C_7
REMARK    4  A    between atoms: N_4  and  C_8
REMARK    5  A    between atoms: N_5  and  C_17
REMARK    6  A    between atoms: C_7  and  C_11
REMARK    7  A    between atoms: C_11  and  C_16
REMARK    8  A    between atoms: C_19  and  C_20
REMARK                            x       y       z     vdW  Elec       q    Type
REMARK                         _______ _______ _______ _____ _____    ______ ____
ROOT
ATOM     11  C   UNL     1     -15.710   3.657  25.049  0.00  0.00    +0.085 C 
ENDROOT
BRANCH  11  16
ATOM      2  O   UNL     1     -15.328   4.690  21.607  0.00  0.00    -0.354 OA
ATOM      6  N   UNL     1     -15.935   3.938  22.606  0.00  0.00    -0.083 NA
ATOM     16  C   UNL     1     -15.306   4.287  23.732  0.00  0.00    +0.086 A 
ATOM     18  C   UNL     1     -14.304   5.246  23.508  0.00  0.00    +0.076 A 
ATOM     19  C   UNL     1     -14.358   5.465  22.158  0.00  0.00    +0.167 A 
BRANCH  19  20
ATOM     20  C   UNL     1     -13.639   6.306  21.244  0.00  0.00    +0.020 A 
ATOM     21  C   UNL     1     -12.245   6.309  21.250  0.00  0.00    +0.015 A 
ATOM     22  C   UNL     1     -14.336   7.118  20.349  0.00  0.00    +0.015 A 
ATOM     23  C   UNL     1     -11.546   7.126  20.360  0.00  0.00    +0.046 A 
ATOM     24  C   UNL     1     -13.637   7.934  19.459  0.00  0.00    +0.046 A 
ATOM     25  C   UNL     1     -12.242   7.939  19.466  0.00  0.00    +0.120 A 
BRANCH  25   3
ATOM      3  O   UNL     1     -11.561   8.733  18.595  0.00  0.00    -0.495 OA
ATOM     26  C   UNL     1     -10.775   8.081  17.600  0.00  0.00    +0.277 C 
ENDBRANCH  25   3
ENDBRANCH  19  20
ENDBRANCH  11  16
BRANCH  11   7
ATOM      1  O   UNL     1     -18.663   5.201  24.731  0.00  0.00    -0.376 OA
ATOM      7  C   UNL     1     -16.924   4.331  25.611  0.00  0.00    +0.072 C 
ATOM      9  C   UNL     1     -17.340   5.686  25.053  0.00  0.00    +0.184 C 
ATOM     10  C   UNL     1     -18.303   3.866  25.156  0.00  0.00    +0.184 C 
BRANCH   7   4
ATOM      4  N   UNL     1     -16.910   4.406  27.075  0.00  0.00    -0.304 NA
ATOM     27  H   UNL     1     -17.809   4.578  27.523  0.00  0.00    +0.123 HD
BRANCH   4   8
ATOM      5  N   UNL     1     -15.924   1.316  29.822  0.00  0.00    -0.305 NA
ATOM      8  C   UNL     1     -16.278   3.204  27.614  0.00  0.00    +0.057 C 
ATOM     12  C   UNL     1     -17.340   2.163  27.977  0.00  0.00    +0.034 C 
ATOM     13  C   UNL     1     -15.431   3.537  28.846  0.00  0.00    +0.034 C 
ATOM     14  C   UNL     1     -16.704   0.936  28.635  0.00  0.00    +0.085 C 
ATOM     15  C   UNL     1     -14.857   2.264  29.477  0.00  0.00    +0.085 C 
ATOM     17  C   UNL     1     -15.365   0.130  30.469  0.00  0.00    +0.104 C 
ENDBRANCH   4   8
ENDBRANCH   7   4
ENDBRANCH  11   7
TORSDOF 6
ENDMDL
MODEL 6
REMARK VINA RESULT:      -6.1     31.208     34.617
REMARK  Name = 56775759
REMARK  8 active torsions:
REMARK  status: ('A' for Active; 'I' for Inactive)
REMARK    1  A    between atoms: O_3  and  C_25
REMARK    2  A    between atoms: O_3  and  C_26
REMARK    3  A    between atoms: N_4  and  C_7
REMARK    4  A    between atoms: N_4  and  C_8
REMARK    5  A    between atoms: N_5  and  C_17
REMARK    6  A    between atoms: C_7  and  C_11
REMARK    7  A    between atoms: C_11  and  C_16
REMARK    8  A    between atoms: C_19  and  C_20
REMARK                            x       y       z     vdW  Elec       q    Type
REMARK                         _______ _______ _______ _____ _____    ______ ____
ROOT
ATOM     11  C   UNL     1     -16.257   2.279  25.924  0.00  0.00    +0.085 C 
ENDROOT
BRANCH  11  16
ATOM      2  O   UNL     1     -16.135   3.555  22.545  0.00  0.00    -0.354 OA
ATOM      6  N   UNL     1     -16.645   2.710  23.523  0.00  0.00    -0.083 NA
ATOM     16  C   UNL     1     -15.964   3.014  24.632  0.00  0.00    +0.086 A 
ATOM     18  C   UNL     1     -15.022   4.033  24.416  0.00  0.00    +0.076 A 
ATOM     19  C   UNL     1     -15.169   4.338  23.089  0.00  0.00    +0.167 A 
BRANCH  19  20
ATOM     20  C   UNL     1     -14.546   5.271  22.194  0.00  0.00    +0.020 A 
ATOM     21  C   UNL     1     -13.157   5.376  22.153  0.00  0.00    +0.015 A 
ATOM     22  C   UNL     1     -15.332   6.072  21.365  0.00  0.00    +0.015 A 
ATOM     23  C   UNL     1     -12.551   6.283  21.282  0.00  0.00    +0.046 A 
ATOM     24  C   UNL     1     -14.727   6.978  20.494  0.00  0.00    +0.046 A 
ATOM     25  C   UNL     1     -13.336   7.084  20.453  0.00  0.00    +0.120 A 
BRANCH  25   3
ATOM      3  O   UNL     1     -12.747   7.966  19.601  0.00  0.00    -0.495 OA
ATOM     26  C   UNL     1     -11.734   7.455  18.737  0.00  0.00    +0.277 C 
ENDBRANCH  25   3
ENDBRANCH  19  20
ENDBRANCH  11  16
BRANCH  11   7
ATOM      1  O   UNL     1     -18.216   4.390  27.631  0.00  0.00    -0.376 OA
ATOM      7  C   UNL     1     -16.514   3.247  27.038  0.00  0.00    +0.072 C 
ATOM      9  C   UNL     1     -17.121   4.605  26.711  0.00  0.00    +0.184 C 
ATOM     10  C   UNL     1     -17.745   3.053  27.916  0.00  0.00    +0.184 C 
BRANCH   7   4
ATOM      4  N   UNL     1     -15.346   3.447  27.901  0.00  0.00    -0.304 NA
ATOM     27  H   UNL     1     -14.998   4.403  27.970  0.00  0.00    +0.123 HD
BRANCH   4   8
ATOM      5  N   UNL     1     -14.663   2.073  31.866  0.00  0.00    -0.305 NA
ATOM      8  C   UNL     1     -15.623   2.895  29.226  0.00  0.00    +0.057 C 
ATOM     12  C   UNL     1     -15.250   3.908  30.311  0.00  0.00    +0.034 C 
ATOM     13  C   UNL     1     -14.856   1.588  29.445  0.00  0.00    +0.034 C 
ATOM     14  C   UNL     1     -15.441   3.311  31.708  0.00  0.00    +0.085 C 
ATOM     15  C   UNL     1     -15.059   1.066  30.871  0.00  0.00    +0.085 C 
ATOM     17  C   UNL     1     -14.815   1.542  33.219  0.00  0.00    +0.104 C 
ENDBRANCH   4   8
ENDBRANCH   7   4
ENDBRANCH  11   7
TORSDOF 6
ENDMDL
MODEL 7
REMARK VINA RESULT:      -6.0      3.515      9.508
REMARK  Name = 56775759
REMARK  8 active torsions:
REMARK  status: ('A' for Active; 'I' for Inactive)
REMARK    1  A    between atoms: O_3  and  C_25
REMARK    2  A    between atoms: O_3  and  C_26
REMARK    3  A    between atoms: N_4  and  C_7
REMARK    4  A    between atoms: N_4  and  C_8
REMARK    5  A    between atoms: N_5  and  C_17
REMARK    6  A    between atoms: C_7  and  C_11
REMARK    7  A    between atoms: C_11  and  C_16
REMARK    8  A    between atoms: C_19  and  C_20
REMARK                            x       y       z     vdW  Elec       q    Type
REMARK                         _______ _______ _______ _____ _____    ______ ____
ROOT
ATOM     11  C   UNL     1      13.458   7.060  19.031  0.00  0.00    +0.085 C 
ENDROOT
BRANCH  11  16
ATOM      2  O   UNL     1      16.084   6.733  21.492  0.00  0.00    -0.354 OA
ATOM      6  N   UNL     1      14.760   6.943  21.127  0.00  0.00    -0.083 NA
ATOM     16  C   UNL     1      14.755   6.875  19.792  0.00  0.00    +0.086 A 
ATOM     18  C   UNL     1      16.033   6.627  19.266  0.00  0.00    +0.076 A 
ATOM     19  C   UNL     1      16.833   6.546  20.375  0.00  0.00    +0.167 A 
BRANCH  19  20
ATOM     20  C   UNL     1      18.231   6.313  20.594  0.00  0.00    +0.020 A 
ATOM     21  C   UNL     1      18.867   5.242  19.967  0.00  0.00    +0.015 A 
ATOM     22  C   UNL     1      18.955   7.159  21.435  0.00  0.00    +0.015 A 
ATOM     23  C   UNL     1      20.227   5.016  20.180  0.00  0.00    +0.046 A 
ATOM     24  C   UNL     1      20.315   6.934  21.648  0.00  0.00    +0.046 A 
ATOM     25  C   UNL     1      20.951   5.862  21.021  0.00  0.00    +0.120 A 
BRANCH  25   3
ATOM      3  O   UNL     1      22.278   5.644  21.227  0.00  0.00    -0.495 OA
ATOM     26  C   UNL     1      22.882   6.312  22.333  0.00  0.00    +0.277 C 
ENDBRANCH  25   3
ENDBRANCH  19  20
ENDBRANCH  11  16
BRANCH  11   7
ATOM      1  O   UNL     1      12.675   9.139  16.526  0.00  0.00    -0.376 OA
ATOM      7  C   UNL     1      13.402   8.417  18.398  0.00  0.00    +0.072 C 
ATOM      9  C   UNL     1      13.934   8.594  16.982  0.00  0.00    +0.184 C 
ATOM     10  C   UNL     1      12.079   8.910  17.823  0.00  0.00    +0.184 C 
BRANCH   7   4
ATOM      4  N   UNL     1      13.968   9.468  19.250  0.00  0.00    -0.304 NA
ATOM     27  H   UNL     1      14.688  10.050  18.824  0.00  0.00    +0.123 HD
BRANCH   4   8
ATOM      5  N   UNL     1      11.920  12.181  21.802  0.00  0.00    -0.305 NA
ATOM      8  C   UNL     1      12.885  10.286  19.792  0.00  0.00    +0.057 C 
ATOM     12  C   UNL     1      13.278  11.765  19.775  0.00  0.00    +0.034 C 
ATOM     13  C   UNL     1      12.534   9.854  21.219  0.00  0.00    +0.034 C 
ATOM     14  C   UNL     1      12.197  12.628  20.429  0.00  0.00    +0.085 C 
ATOM     15  C   UNL     1      11.476  10.781  21.827  0.00  0.00    +0.085 C 
ATOM     17  C   UNL     1      10.923  13.045  22.431  0.00  0.00    +0.104 C 
ENDBRANCH   4   8
ENDBRANCH   7   4
ENDBRANCH  11   7
TORSDOF 6
ENDMDL
MODEL 8
REMARK VINA RESULT:      -5.8      4.300      7.497
REMARK  Name = 56775759
REMARK  8 active torsions:
REMARK  status: ('A' for Active; 'I' for Inactive)
REMARK    1  A    between atoms: O_3  and  C_25
REMARK    2  A    between atoms: O_3  and  C_26
REMARK    3  A    between atoms: N_4  and  C_7
REMARK    4  A    between atoms: N_4  and  C_8
REMARK    5  A    between atoms: N_5  and  C_17
REMARK    6  A    between atoms: C_7  and  C_11
REMARK    7  A    between atoms: C_11  and  C_16
REMARK    8  A    between atoms: C_19  and  C_20
REMARK                            x       y       z     vdW  Elec       q    Type
REMARK                         _______ _______ _______ _____ _____    ______ ____
ROOT
ATOM     11  C   UNL     1      11.344   8.461  19.207  0.00  0.00    +0.085 C 
ENDROOT
BRANCH  11  16
ATOM      2  O   UNL     1      12.943   8.546  15.967  0.00  0.00    -0.354 OA
ATOM      6  N   UNL     1      12.224   7.903  16.968  0.00  0.00    -0.083 NA
ATOM     16  C   UNL     1      12.089   8.813  17.936  0.00  0.00    +0.086 A 
ATOM     18  C   UNL     1      12.696  10.037  17.606  0.00  0.00    +0.076 A 
ATOM     19  C   UNL     1      13.219   9.816  16.360  0.00  0.00    +0.167 A 
BRANCH  19  20
ATOM     20  C   UNL     1      13.960  10.610  15.423  0.00  0.00    +0.020 A 
ATOM     21  C   UNL     1      15.343  10.458  15.322  0.00  0.00    +0.015 A 
ATOM     22  C   UNL     1      13.298  11.533  14.613  0.00  0.00    +0.015 A 
ATOM     23  C   UNL     1      16.064  11.230  14.410  0.00  0.00    +0.046 A 
ATOM     24  C   UNL     1      14.019  12.304  13.701  0.00  0.00    +0.046 A 
ATOM     25  C   UNL     1      15.402  12.153  13.600  0.00  0.00    +0.120 A 
BRANCH  25   3
ATOM      3  O   UNL     1      16.105  12.903  12.709  0.00  0.00    -0.495 OA
ATOM     26  C   UNL     1      16.377  12.315  11.438  0.00  0.00    +0.277 C 
ENDBRANCH  25   3
ENDBRANCH  19  20
ENDBRANCH  11  16
BRANCH  11   7
ATOM      1  O   UNL     1      12.063   7.143  22.200  0.00  0.00    -0.376 OA
ATOM      7  C   UNL     1      12.225   7.693  20.144  0.00  0.00    +0.072 C 
ATOM      9  C   UNL     1      12.572   8.300  21.497  0.00  0.00    +0.184 C 
ATOM     10  C   UNL     1      11.624   6.551  20.956  0.00  0.00    +0.184 C 
BRANCH   7   4
ATOM      4  N   UNL     1      13.459   7.220  19.508  0.00  0.00    -0.304 NA
ATOM     27  H   UNL     1      13.611   7.521  18.546  0.00  0.00    +0.123 HD
BRANCH   4   8
ATOM      5  N   UNL     1      17.494   7.853  20.686  0.00  0.00    -0.305 NA
ATOM      8  C   UNL     1      14.601   7.567  20.352  0.00  0.00    +0.057 C 
ATOM     12  C   UNL     1      15.383   8.729  19.736  0.00  0.00    +0.034 C 
ATOM     13  C   UNL     1      15.524   6.360  20.547  0.00  0.00    +0.034 C 
ATOM     14  C   UNL     1      16.638   9.042  20.554  0.00  0.00    +0.085 C 
ATOM     15  C   UNL     1      16.776   6.751  21.339  0.00  0.00    +0.085 C 
ATOM     17  C   UNL     1      18.712   8.180  21.426  0.00  0.00    +0.104 C 
ENDBRANCH   4   8
ENDBRANCH   7   4
ENDBRANCH  11   7
TORSDOF 6
ENDMDL
MODEL 9
REMARK VINA RESULT:      -5.7     26.491     29.824
REMARK  Name = 56775759
REMARK  8 active torsions:
REMARK  status: ('A' for Active; 'I' for Inactive)
REMARK    1  A    between atoms: O_3  and  C_25
REMARK    2  A    between atoms: O_3  and  C_26
REMARK    3  A    between atoms: N_4  and  C_7
REMARK    4  A    between atoms: N_4  and  C_8
REMARK    5  A    between atoms: N_5  and  C_17
REMARK    6  A    between atoms: C_7  and  C_11
REMARK    7  A    between atoms: C_11  and  C_16
REMARK    8  A    between atoms: C_19  and  C_20
REMARK                            x       y       z     vdW  Elec       q    Type
REMARK                         _______ _______ _______ _____ _____    ______ ____
ROOT
ATOM     11  C   UNL     1      -1.841 -11.439  12.736  0.00  0.00    +0.085 C 
ENDROOT
BRANCH  11  16
ATOM      2  O   UNL     1      -2.972  -9.159  10.170  0.00  0.00    -0.354 OA
ATOM      6  N   UNL     1      -2.079  -9.552  11.159  0.00  0.00    -0.083 NA
ATOM     16  C   UNL     1      -2.567 -10.705  11.627  0.00  0.00    +0.086 A 
ATOM     18  C   UNL     1      -3.754 -11.084  10.978  0.00  0.00    +0.076 A 
ATOM     19  C   UNL     1      -3.966 -10.079  10.072  0.00  0.00    +0.167 A 
BRANCH  19  20
ATOM     20  C   UNL     1      -4.970  -9.808   9.084  0.00  0.00    +0.020 A 
ATOM     21  C   UNL     1      -4.867 -10.372   7.813  0.00  0.00    +0.015 A 
ATOM     22  C   UNL     1      -6.049  -8.981   9.395  0.00  0.00    +0.015 A 
ATOM     23  C   UNL     1      -5.844 -10.109   6.851  0.00  0.00    +0.046 A 
ATOM     24  C   UNL     1      -7.026  -8.718   8.435  0.00  0.00    +0.046 A 
ATOM     25  C   UNL     1      -6.923  -9.281   7.163  0.00  0.00    +0.120 A 
BRANCH  25   3
ATOM      3  O   UNL     1      -7.878  -9.027   6.227  0.00  0.00    -0.495 OA
ATOM     26  C   UNL     1      -8.017  -7.675   5.793  0.00  0.00    +0.277 C 
ENDBRANCH  25   3
ENDBRANCH  19  20
ENDBRANCH  11  16
BRANCH  11   7
ATOM      1  O   UNL     1      -0.743 -10.227  15.657  0.00  0.00    -0.376 OA
ATOM      7  C   UNL     1      -2.047 -10.752  14.051  0.00  0.00    +0.072 C 
ATOM      9  C   UNL     1      -1.509 -11.406  15.318  0.00  0.00    +0.184 C 
ATOM     10  C   UNL     1      -1.141  -9.584  14.425  0.00  0.00    +0.184 C 
BRANCH   7   4
ATOM      4  N   UNL     1      -3.441 -10.360  14.278  0.00  0.00    -0.304 NA
ATOM     27  H   UNL     1      -4.058 -10.405  13.468  0.00  0.00    +0.123 HD
BRANCH   4   8
ATOM      5  N   UNL     1      -6.272 -11.899  17.051  0.00  0.00    -0.305 NA
ATOM      8  C   UNL     1      -3.985 -11.131  15.394  0.00  0.00    +0.057 C 
ATOM     12  C   UNL     1      -5.067 -12.092  14.897  0.00  0.00    +0.034 C 
ATOM     13  C   UNL     1      -4.562 -10.205  16.470  0.00  0.00    +0.034 C 
ATOM     14  C   UNL     1      -5.718 -12.838  16.064  0.00  0.00    +0.085 C 
ATOM     15  C   UNL     1      -5.230 -11.014  17.587  0.00  0.00    +0.085 C 
ATOM     17  C   UNL     1      -6.934 -12.625  18.134  0.00  0.00    +0.104 C 
ENDBRANCH   4   8
ENDBRANCH   7   4
ENDBRANCH  11   7
TORSDOF 6
ENDMDL
MODEL 10
REMARK VINA RESULT:      -5.7     34.544     35.814
REMARK  Name = 56775759
REMARK  8 active torsions:
REMARK  status: ('A' for Active; 'I' for Inactive)
REMARK    1  A    between atoms: O_3  and  C_25
REMARK    2  A    between atoms: O_3  and  C_26
REMARK    3  A    between atoms: N_4  and  C_7
REMARK    4  A    between atoms: N_4  and  C_8
REMARK    5  A    between atoms: N_5  and  C_17
REMARK    6  A    between atoms: C_7  and  C_11
REMARK    7  A    between atoms: C_11  and  C_16
REMARK    8  A    between atoms: C_19  and  C_20
REMARK                            x       y       z     vdW  Elec       q    Type
REMARK                         _______ _______ _______ _____ _____    ______ ____
ROOT
ATOM     11  C   UNL     1     -14.300   1.398  32.286  0.00  0.00    +0.085 C 
ENDROOT
BRANCH  11  16
ATOM      2  O   UNL     1     -15.721   4.647  32.983  0.00  0.00    -0.354 OA
ATOM      6  N   UNL     1     -15.753   3.259  33.014  0.00  0.00    -0.083 NA
ATOM     16  C   UNL     1     -14.614   2.873  32.431  0.00  0.00    +0.086 A 
ATOM     18  C   UNL     1     -13.832   3.964  32.015  0.00  0.00    +0.076 A 
ATOM     19  C   UNL     1     -14.572   5.056  32.385  0.00  0.00    +0.167 A 
BRANCH  19  20
ATOM     20  C   UNL     1     -14.396   6.475  32.280  0.00  0.00    +0.020 A 
ATOM     21  C   UNL     1     -15.390   7.260  31.696  0.00  0.00    +0.015 A 
ATOM     22  C   UNL     1     -13.231   7.071  32.762  0.00  0.00    +0.015 A 
ATOM     23  C   UNL     1     -15.218   8.641  31.594  0.00  0.00    +0.046 A 
ATOM     24  C   UNL     1     -13.059   8.451  32.661  0.00  0.00    +0.046 A 
ATOM     25  C   UNL     1     -14.053   9.236  32.076  0.00  0.00    +0.120 A 
BRANCH  25   3
ATOM      3  O   UNL     1     -13.887  10.584  31.981  0.00  0.00    -0.495 OA
ATOM     26  C   UNL     1     -12.777  11.152  32.673  0.00  0.00    +0.277 C 
ENDBRANCH  25   3
ENDBRANCH  19  20
ENDBRANCH  11  16
BRANCH  11   7
ATOM      1  O   UNL     1     -14.430  -0.833  29.793  0.00  0.00    -0.376 OA
ATOM      7  C   UNL     1     -14.888   0.852  31.021  0.00  0.00    +0.072 C 
ATOM      9  C   UNL     1     -13.962   0.534  29.853  0.00  0.00    +0.184 C 
ATOM     10  C   UNL     1     -15.261  -0.625  30.957  0.00  0.00    +0.184 C 
BRANCH   7   4
ATOM      4  N   UNL     1     -16.017   1.646  30.526  0.00  0.00    -0.304 NA
ATOM     27  H   UNL     1     -16.137   2.565  30.949  0.00  0.00    +0.123 HD
BRANCH   4   8
ATOM      5  N   UNL     1     -17.097   2.640  26.537  0.00  0.00    -0.305 NA
ATOM      8  C   UNL     1     -15.937   1.744  29.071  0.00  0.00    +0.057 C 
ATOM     12  C   UNL     1     -15.921   3.213  28.639  0.00  0.00    +0.034 C 
ATOM     13  C   UNL     1     -17.111   1.017  28.407  0.00  0.00    +0.034 C 
ATOM     14  C   UNL     1     -15.938   3.337  27.113  0.00  0.00    +0.085 C 
ATOM     15  C   UNL     1     -17.089   1.214  26.888  0.00  0.00    +0.085 C 
ATOM     17  C   UNL     1     -17.127   2.810  25.085  0.00  0.00    +0.104 C 
ENDBRANCH   4   8
ENDBRANCH   7   4
ENDBRANCH  11   7
TORSDOF 6
ENDMDL
