MODEL 1
REMARK VINA RESULT:      -7.9      0.000      0.000
REMARK  Name = 7143734
REMARK  2 active torsions:
REMARK  status: ('A' for Active; 'I' for Inactive)
REMARK    1  A    between atoms: C_16  and  C_19
REMARK    2  A    between atoms: C_17  and  C_20
REMARK                            x       y       z     vdW  Elec       q    Type
REMARK                         _______ _______ _______ _____ _____    ______ ____
ROOT
ATOM      2  O   UNL     1      15.185   6.216  21.803  0.00  0.00    -0.267 OA
ATOM      3  O   UNL     1      12.210   6.994  18.335  0.00  0.00    -0.267 OA
ATOM      5  N   UNL     1      11.784   8.994  19.473  0.00  0.00    -0.294 N 
ATOM      6  N   UNL     1      14.089   8.253  21.501  0.00  0.00    -0.311 N 
ATOM      7  C   UNL     1      11.576   8.538  21.908  0.00  0.00    +0.027 C 
ATOM      8  C   UNL     1      12.918  10.451  21.132  0.00  0.00    +0.054 C 
ATOM      9  C   UNL     1      11.931   9.992  22.205  0.00  0.00    +0.018 C 
ATOM     10  C   UNL     1      10.934   8.418  20.513  0.00  0.00    +0.113 C 
ATOM     11  C   UNL     1      12.843   7.684  22.037  0.00  0.00    +0.130 C 
ATOM     12  C   UNL     1      12.251  10.363  19.744  0.00  0.00    +0.117 C 
ATOM     13  C   UNL     1      14.173   9.602  21.145  0.00  0.00    +0.027 A 
ATOM     14  C   UNL     1      15.352  10.129  20.776  0.00  0.00    +0.022 A 
ATOM     15  C   UNL     1      15.211   7.402  21.466  0.00  0.00    +0.259 A 
ATOM     16  C   UNL     1      12.131   8.221  18.361  0.00  0.00    +0.282 C 
ATOM     17  C   UNL     1      16.506   8.011  21.001  0.00  0.00    +0.047 A 
ATOM     18  C   UNL     1      16.532   9.317  20.699  0.00  0.00    +0.015 A 
ENDROOT
BRANCH  17  20
ATOM      1 CL   UNL     1      21.458   4.699  20.430  0.00  0.00    -0.084 Cl
ATOM     20  C   UNL     1      17.725   7.196  20.861  0.00  0.00    -0.013 A 
ATOM     22  C   UNL     1      18.806   7.402  21.719  0.00  0.00    +0.010 A 
ATOM     23  C   UNL     1      17.799   6.216  19.870  0.00  0.00    +0.010 A 
ATOM     26  C   UNL     1      19.960   6.630  21.586  0.00  0.00    +0.020 A 
ATOM     27  C   UNL     1      18.954   5.444  19.737  0.00  0.00    +0.020 A 
ATOM     28  C   UNL     1      20.034   5.651  20.595  0.00  0.00    +0.041 A 
ENDBRANCH  17  20
BRANCH  16  19
ATOM      4  O   UNL     1      13.740   9.302  16.926  0.00  0.00    -0.458 OA
ATOM     19  C   UNL     1      12.455   8.916  17.111  0.00  0.00    +0.189 A 
ATOM     21  C   UNL     1      11.673   9.268  16.045  0.00  0.00    +0.054 A 
ATOM     24  C   UNL     1      12.536   9.919  15.131  0.00  0.00    +0.042 A 
ATOM     25  C   UNL     1      13.782   9.914  15.713  0.00  0.00    +0.196 A 
ENDBRANCH  16  19
TORSDOF 2
ENDMDL
MODEL 2
REMARK VINA RESULT:      -7.8      1.318      1.849
REMARK  Name = 7143734
REMARK  2 active torsions:
REMARK  status: ('A' for Active; 'I' for Inactive)
REMARK    1  A    between atoms: C_16  and  C_19
REMARK    2  A    between atoms: C_17  and  C_20
REMARK                            x       y       z     vdW  Elec       q    Type
REMARK                         _______ _______ _______ _____ _____    ______ ____
ROOT
ATOM      2  O   UNL     1      15.187   5.981  20.118  0.00  0.00    -0.267 OA
ATOM      3  O   UNL     1      13.699   8.074  16.261  0.00  0.00    -0.267 OA
ATOM      5  N   UNL     1      12.697   9.574  17.752  0.00  0.00    -0.294 N 
ATOM      6  N   UNL     1      14.113   8.051  20.129  0.00  0.00    -0.311 N 
ATOM      7  C   UNL     1      11.619   8.312  19.602  0.00  0.00    +0.027 C 
ATOM      8  C   UNL     1      12.980  10.300  20.108  0.00  0.00    +0.054 C 
ATOM      9  C   UNL     1      11.704   9.550  20.489  0.00  0.00    +0.018 C 
ATOM     10  C   UNL     1      11.569   8.718  18.118  0.00  0.00    +0.113 C 
ATOM     11  C   UNL     1      12.812   7.400  19.913  0.00  0.00    +0.130 C 
ATOM     12  C   UNL     1      12.902  10.736  18.632  0.00  0.00    +0.117 C 
ATOM     13  C   UNL     1      14.206   9.433  20.316  0.00  0.00    +0.027 A 
ATOM     14  C   UNL     1      15.385   9.992  20.635  0.00  0.00    +0.022 A 
ATOM     15  C   UNL     1      15.234   7.207  20.243  0.00  0.00    +0.259 A 
ATOM     16  C   UNL     1      13.507   9.218  16.670  0.00  0.00    +0.282 C 
ATOM     17  C   UNL     1      16.549   7.869  20.554  0.00  0.00    +0.047 A 
ATOM     18  C   UNL     1      16.572   9.195  20.750  0.00  0.00    +0.015 A 
ENDROOT
BRANCH  17  20
ATOM      1 CL   UNL     1      21.617   4.701  20.851  0.00  0.00    -0.084 Cl
ATOM     20  C   UNL     1      17.797   7.089  20.628  0.00  0.00    -0.013 A 
ATOM     22  C   UNL     1      18.750   7.386  21.602  0.00  0.00    +0.010 A 
ATOM     23  C   UNL     1      18.026   6.051  19.722  0.00  0.00    +0.010 A 
ATOM     26  C   UNL     1      19.931   6.648  21.671  0.00  0.00    +0.020 A 
ATOM     27  C   UNL     1      19.207   5.313  19.792  0.00  0.00    +0.020 A 
ATOM     28  C   UNL     1      20.160   5.611  20.767  0.00  0.00    +0.041 A 
ENDBRANCH  17  20
BRANCH  16  19
ATOM      4  O   UNL     1      13.749  10.652  14.746  0.00  0.00    -0.458 OA
ATOM     19  C   UNL     1      14.220  10.286  15.961  0.00  0.00    +0.189 A 
ATOM     21  C   UNL     1      15.321  11.021  16.308  0.00  0.00    +0.054 A 
ATOM     24  C   UNL     1      15.550  11.907  15.228  0.00  0.00    +0.042 A 
ATOM     25  C   UNL     1      14.567  11.643  14.303  0.00  0.00    +0.196 A 
ENDBRANCH  16  19
TORSDOF 2
ENDMDL
MODEL 3
REMARK VINA RESULT:      -7.2      3.204      6.659
REMARK  Name = 7143734
REMARK  2 active torsions:
REMARK  status: ('A' for Active; 'I' for Inactive)
REMARK    1  A    between atoms: C_16  and  C_19
REMARK    2  A    between atoms: C_17  and  C_20
REMARK                            x       y       z     vdW  Elec       q    Type
REMARK                         _______ _______ _______ _____ _____    ______ ____
ROOT
ATOM      2  O   UNL     1      13.431  11.760  18.187  0.00  0.00    -0.267 OA
ATOM      3  O   UNL     1      16.092   9.581  21.292  0.00  0.00    -0.267 OA
ATOM      5  N   UNL     1      14.495   7.881  21.106  0.00  0.00    -0.294 N 
ATOM      6  N   UNL     1      13.096   9.538  18.810  0.00  0.00    -0.311 N 
ATOM      7  C   UNL     1      12.216   8.875  21.123  0.00  0.00    +0.027 C 
ATOM      8  C   UNL     1      12.778   7.131  19.478  0.00  0.00    +0.054 C 
ATOM      9  C   UNL     1      11.678   7.638  20.409  0.00  0.00    +0.018 C 
ATOM     10  C   UNL     1      13.474   8.518  21.937  0.00  0.00    +0.113 C 
ATOM     11  C   UNL     1      12.491   9.966  20.081  0.00  0.00    +0.130 C 
ATOM     12  C   UNL     1      14.018   6.741  20.307  0.00  0.00    +0.117 C 
ATOM     13  C   UNL     1      13.161   8.187  18.460  0.00  0.00    +0.027 A 
ATOM     14  C   UNL     1      13.603   7.826  17.244  0.00  0.00    +0.022 A 
ATOM     15  C   UNL     1      13.504  10.557  17.928  0.00  0.00    +0.259 A 
ATOM     16  C   UNL     1      15.789   8.408  21.083  0.00  0.00    +0.282 C 
ATOM     17  C   UNL     1      14.039  10.119  16.592  0.00  0.00    +0.047 A 
ATOM     18  C   UNL     1      14.052   8.810  16.301  0.00  0.00    +0.015 A 
ENDROOT
BRANCH  17  20
ATOM      1 CL   UNL     1      16.139  14.095  12.642  0.00  0.00    -0.084 Cl
ATOM     20  C   UNL     1      14.557  11.097  15.619  0.00  0.00    -0.013 A 
ATOM     22  C   UNL     1      15.883  11.523  15.695  0.00  0.00    +0.010 A 
ATOM     23  C   UNL     1      13.720  11.599  14.621  0.00  0.00    +0.010 A 
ATOM     26  C   UNL     1      16.372  12.449  14.775  0.00  0.00    +0.020 A 
ATOM     27  C   UNL     1      14.209  12.526  13.701  0.00  0.00    +0.020 A 
ATOM     28  C   UNL     1      15.536  12.950  13.777  0.00  0.00    +0.041 A 
ENDBRANCH  17  20
BRANCH  16  19
ATOM      4  O   UNL     1      17.951   7.476  21.605  0.00  0.00    -0.458 OA
ATOM     19  C   UNL     1      16.896   7.502  20.757  0.00  0.00    +0.189 A 
ATOM     21  C   UNL     1      17.077   6.637  19.712  0.00  0.00    +0.054 A 
ATOM     24  C   UNL     1      18.337   6.030  19.928  0.00  0.00    +0.042 A 
ATOM     25  C   UNL     1      18.829   6.573  21.092  0.00  0.00    +0.196 A 
ENDBRANCH  16  19
TORSDOF 2
ENDMDL
MODEL 4
REMARK VINA RESULT:      -7.0     17.236     20.444
REMARK  Name = 7143734
REMARK  2 active torsions:
REMARK  status: ('A' for Active; 'I' for Inactive)
REMARK    1  A    between atoms: C_16  and  C_19
REMARK    2  A    between atoms: C_17  and  C_20
REMARK                            x       y       z     vdW  Elec       q    Type
REMARK                         _______ _______ _______ _____ _____    ______ ____
ROOT
ATOM      2  O   UNL     1      12.200   7.797   2.535  0.00  0.00    -0.267 OA
ATOM      3  O   UNL     1      12.788   6.374  -1.836  0.00  0.00    -0.267 OA
ATOM      5  N   UNL     1      13.556   4.404  -0.834  0.00  0.00    -0.294 N 
ATOM      6  N   UNL     1      12.765   5.604   1.978  0.00  0.00    -0.311 N 
ATOM      7  C   UNL     1      15.069   4.967   1.056  0.00  0.00    +0.027 C 
ATOM      8  C   UNL     1      13.342   3.236   1.346  0.00  0.00    +0.054 C 
ATOM      9  C   UNL     1      14.787   3.604   1.681  0.00  0.00    +0.018 C 
ATOM     10  C   UNL     1      14.880   4.905  -0.470  0.00  0.00    +0.113 C 
ATOM     11  C   UNL     1      14.154   6.009   1.711  0.00  0.00    +0.130 C 
ATOM     12  C   UNL     1      13.175   3.139  -0.184  0.00  0.00    +0.117 C 
ATOM     13  C   UNL     1      12.374   4.265   1.897  0.00  0.00    +0.027 A 
ATOM     14  C   UNL     1      11.135   3.900   2.264  0.00  0.00    +0.022 A 
ATOM     15  C   UNL     1      11.885   6.612   2.418  0.00  0.00    +0.259 A 
ATOM     16  C   UNL     1      12.750   5.153  -1.695  0.00  0.00    +0.282 C 
ATOM     17  C   UNL     1      10.488   6.179   2.776  0.00  0.00    +0.047 A 
ATOM     18  C   UNL     1      10.180   4.876   2.705  0.00  0.00    +0.015 A 
ENDROOT
BRANCH  17  20
ATOM      1 CL   UNL     1       6.338  10.161   4.427  0.00  0.00    -0.084 Cl
ATOM     20  C   UNL     1       9.467   7.159   3.183  0.00  0.00    -0.013 A 
ATOM     22  C   UNL     1       9.091   7.262   4.522  0.00  0.00    +0.010 A 
ATOM     23  C   UNL     1       8.875   7.987   2.228  0.00  0.00    +0.010 A 
ATOM     26  C   UNL     1       8.124   8.189   4.907  0.00  0.00    +0.020 A 
ATOM     27  C   UNL     1       7.907   8.915   2.613  0.00  0.00    +0.020 A 
ATOM     28  C   UNL     1       7.532   9.017   3.953  0.00  0.00    +0.041 A 
ENDBRANCH  17  20
BRANCH  16  19
ATOM      4  O   UNL     1      12.183   3.731  -3.559  0.00  0.00    -0.458 OA
ATOM     19  C   UNL     1      11.745   4.441  -2.493  0.00  0.00    +0.189 A 
ATOM     21  C   UNL     1      10.386   4.351  -2.361  0.00  0.00    +0.054 A 
ATOM     24  C   UNL     1       9.949   3.525  -3.423  0.00  0.00    +0.042 A 
ATOM     25  C   UNL     1      11.079   3.173  -4.123  0.00  0.00    +0.196 A 
ENDBRANCH  16  19
TORSDOF 2
ENDMDL
MODEL 5
REMARK VINA RESULT:      -6.9     12.975     16.942
REMARK  Name = 7143734
REMARK  2 active torsions:
REMARK  status: ('A' for Active; 'I' for Inactive)
REMARK    1  A    between atoms: C_16  and  C_19
REMARK    2  A    between atoms: C_17  and  C_20
REMARK                            x       y       z     vdW  Elec       q    Type
REMARK                         _______ _______ _______ _____ _____    ______ ____
ROOT
ATOM      2  O   UNL     1      12.539   7.630   2.807  0.00  0.00    -0.267 OA
ATOM      3  O   UNL     1      12.530   6.542   7.312  0.00  0.00    -0.267 OA
ATOM      5  N   UNL     1      10.732   8.035   7.420  0.00  0.00    -0.294 N 
ATOM      6  N   UNL     1      10.863   8.316   4.276  0.00  0.00    -0.311 N 
ATOM      7  C   UNL     1      11.262  10.073   6.098  0.00  0.00    +0.027 C 
ATOM      8  C   UNL     1       9.050   9.014   5.879  0.00  0.00    +0.054 C 
ATOM      9  C   UNL     1       9.770  10.359   5.952  0.00  0.00    +0.018 C 
ATOM     10  C   UNL     1      11.528   9.260   7.378  0.00  0.00    +0.113 C 
ATOM     11  C   UNL     1      11.750   9.345   4.839  0.00  0.00    +0.130 C 
ATOM     12  C   UNL     1       9.291   8.226   7.182  0.00  0.00    +0.117 C 
ATOM     13  C   UNL     1       9.535   8.198   4.696  0.00  0.00    +0.027 A 
ATOM     14  C   UNL     1       8.708   7.336   4.084  0.00  0.00    +0.022 A 
ATOM     15  C   UNL     1      11.385   7.533   3.228  0.00  0.00    +0.259 A 
ATOM     16  C   UNL     1      11.369   6.807   7.618  0.00  0.00    +0.282 C 
ATOM     17  C   UNL     1      10.446   6.542   2.594  0.00  0.00    +0.047 A 
ATOM     18  C   UNL     1       9.176   6.494   3.020  0.00  0.00    +0.015 A 
ENDROOT
BRANCH  17  20
ATOM      1 CL   UNL     1      12.315   2.819  -1.703  0.00  0.00    -0.084 Cl
ATOM     20  C   UNL     1      10.906   5.626   1.536  0.00  0.00    -0.013 A 
ATOM     22  C   UNL     1      10.392   5.736   0.244  0.00  0.00    +0.010 A 
ATOM     23  C   UNL     1      11.858   4.647   1.825  0.00  0.00    +0.010 A 
ATOM     26  C   UNL     1      10.827   4.869  -0.757  0.00  0.00    +0.020 A 
ATOM     27  C   UNL     1      12.293   3.779   0.823  0.00  0.00    +0.020 A 
ATOM     28  C   UNL     1      11.778   3.891  -0.468  0.00  0.00    +0.041 A 
ENDBRANCH  17  20
BRANCH  16  19
ATOM      4  O   UNL     1      10.525   5.674   9.572  0.00  0.00    -0.458 OA
ATOM     19  C   UNL     1      10.594   5.717   8.221  0.00  0.00    +0.189 A 
ATOM     21  C   UNL     1       9.893   4.687   7.654  0.00  0.00    +0.054 A 
ATOM     24  C   UNL     1       9.349   3.951   8.733  0.00  0.00    +0.042 A 
ATOM     25  C   UNL     1       9.762   4.591   9.879  0.00  0.00    +0.196 A 
ENDBRANCH  16  19
TORSDOF 2
ENDMDL
MODEL 6
REMARK VINA RESULT:      -6.8     13.967     17.922
REMARK  Name = 7143734
REMARK  2 active torsions:
REMARK  status: ('A' for Active; 'I' for Inactive)
REMARK    1  A    between atoms: C_16  and  C_19
REMARK    2  A    between atoms: C_17  and  C_20
REMARK                            x       y       z     vdW  Elec       q    Type
REMARK                         _______ _______ _______ _____ _____    ______ ____
ROOT
ATOM      2  O   UNL     1       8.097   6.969   4.460  0.00  0.00    -0.267 OA
ATOM      3  O   UNL     1       9.810   4.627   0.846  0.00  0.00    -0.267 OA
ATOM      5  N   UNL     1      10.882   6.648   0.356  0.00  0.00    -0.294 N 
ATOM      6  N   UNL     1       9.753   7.827   3.060  0.00  0.00    -0.311 N 
ATOM      7  C   UNL     1       9.283   8.530   0.641  0.00  0.00    +0.027 C 
ATOM      8  C   UNL     1      11.564   8.714   1.552  0.00  0.00    +0.054 C 
ATOM      9  C   UNL     1      10.454   9.487   0.840  0.00  0.00    +0.018 C 
ATOM     10  C   UNL     1       9.717   7.324  -0.212  0.00  0.00    +0.113 C 
ATOM     11  C   UNL     1       8.754   8.105   2.017  0.00  0.00    +0.130 C 
ATOM     12  C   UNL     1      12.017   7.532   0.671  0.00  0.00    +0.117 C 
ATOM     13  C   UNL     1      11.091   8.193   2.895  0.00  0.00    +0.027 A 
ATOM     14  C   UNL     1      11.961   8.042   3.907  0.00  0.00    +0.022 A 
ATOM     15  C   UNL     1       9.275   7.274   4.264  0.00  0.00    +0.259 A 
ATOM     16  C   UNL     1      10.827   5.274   0.605  0.00  0.00    +0.282 C 
ATOM     17  C   UNL     1      10.284   7.073   5.362  0.00  0.00    +0.047 A 
ATOM     18  C   UNL     1      11.548   7.469   5.155  0.00  0.00    +0.015 A 
ENDROOT
BRANCH  17  20
ATOM      1 CL   UNL     1       8.748   4.504  10.544  0.00  0.00    -0.084 Cl
ATOM     20  C   UNL     1       9.906   6.440   6.637  0.00  0.00    -0.013 A 
ATOM     22  C   UNL     1      10.107   5.072   6.825  0.00  0.00    +0.010 A 
ATOM     23  C   UNL     1       9.348   7.209   7.660  0.00  0.00    +0.010 A 
ATOM     26  C   UNL     1       9.749   4.474   8.032  0.00  0.00    +0.020 A 
ATOM     27  C   UNL     1       8.990   6.610   8.868  0.00  0.00    +0.020 A 
ATOM     28  C   UNL     1       9.191   5.242   9.054  0.00  0.00    +0.041 A 
ENDBRANCH  17  20
BRANCH  16  19
ATOM      4  O   UNL     1      12.730   4.377  -0.575  0.00  0.00    -0.458 OA
ATOM     19  C   UNL     1      12.087   4.522   0.607  0.00  0.00    +0.189 A 
ATOM     21  C   UNL     1      12.771   3.910   1.623  0.00  0.00    +0.054 A 
ATOM     24  C   UNL     1      13.922   3.344   1.026  0.00  0.00    +0.042 A 
ATOM     25  C   UNL     1      13.852   3.656  -0.312  0.00  0.00    +0.196 A 
ENDBRANCH  16  19
TORSDOF 2
ENDMDL
MODEL 7
REMARK VINA RESULT:      -6.8     27.171     29.421
REMARK  Name = 7143734
REMARK  2 active torsions:
REMARK  status: ('A' for Active; 'I' for Inactive)
REMARK    1  A    between atoms: C_16  and  C_19
REMARK    2  A    between atoms: C_17  and  C_20
REMARK                            x       y       z     vdW  Elec       q    Type
REMARK                         _______ _______ _______ _____ _____    ______ ____
ROOT
ATOM      2  O   UNL     1      -5.724 -13.160  15.470  0.00  0.00    -0.267 OA
ATOM      3  O   UNL     1     -10.067 -11.555  15.661  0.00  0.00    -0.267 OA
ATOM      5  N   UNL     1      -9.724 -11.600  17.974  0.00  0.00    -0.294 N 
ATOM      6  N   UNL     1      -6.721 -12.425  17.446  0.00  0.00    -0.311 N 
ATOM      7  C   UNL     1      -8.599 -13.724  18.607  0.00  0.00    +0.027 C 
ATOM      8  C   UNL     1      -7.812 -11.594  19.558  0.00  0.00    +0.054 C 
ATOM      9  C   UNL     1      -8.078 -13.063  19.880  0.00  0.00    +0.018 C 
ATOM     10  C   UNL     1      -9.898 -13.042  18.142  0.00  0.00    +0.113 C 
ATOM     11  C   UNL     1      -7.501 -13.668  17.538  0.00  0.00    +0.130 C 
ATOM     12  C   UNL     1      -9.127 -10.911  19.130  0.00  0.00    +0.117 C 
ATOM     13  C   UNL     1      -6.787 -11.455  18.449  0.00  0.00    +0.027 A 
ATOM     14  C   UNL     1      -5.976 -10.385  18.408  0.00  0.00    +0.022 A 
ATOM     15  C   UNL     1      -5.835 -12.311  16.357  0.00  0.00    +0.259 A 
ATOM     16  C   UNL     1     -10.068 -11.003  16.759  0.00  0.00    +0.282 C 
ATOM     17  C   UNL     1      -4.974 -11.078  16.313  0.00  0.00    +0.047 A 
ATOM     18  C   UNL     1      -5.061 -10.196  17.319  0.00  0.00    +0.015 A 
ENDROOT
BRANCH  17  20
ATOM      1 CL   UNL     1      -1.267 -10.049  11.728  0.00  0.00    -0.084 Cl
ATOM     20  C   UNL     1      -4.061 -10.825  15.185  0.00  0.00    -0.013 A 
ATOM     22  C   UNL     1      -2.686 -10.743  15.403  0.00  0.00    +0.010 A 
ATOM     23  C   UNL     1      -4.572 -10.668  13.895  0.00  0.00    +0.010 A 
ATOM     26  C   UNL     1      -1.822 -10.503  14.336  0.00  0.00    +0.020 A 
ATOM     27  C   UNL     1      -3.708 -10.428  12.827  0.00  0.00    +0.020 A 
ATOM     28  C   UNL     1      -2.333 -10.346  13.047  0.00  0.00    +0.041 A 
ENDBRANCH  17  20
BRANCH  16  19
ATOM      4  O   UNL     1      -9.501  -8.686  16.402  0.00  0.00    -0.458 OA
ATOM     19  C   UNL     1     -10.444  -9.585  16.770  0.00  0.00    +0.189 A 
ATOM     21  C   UNL     1     -11.620  -8.965  17.094  0.00  0.00    +0.054 A 
ATOM     24  C   UNL     1     -11.390  -7.581  16.915  0.00  0.00    +0.042 A 
ATOM     25  C   UNL     1     -10.086  -7.462  16.493  0.00  0.00    +0.196 A 
ENDBRANCH  16  19
TORSDOF 2
ENDMDL
MODEL 8
REMARK VINA RESULT:      -6.8     25.843     27.921
REMARK  Name = 7143734
REMARK  2 active torsions:
REMARK  status: ('A' for Active; 'I' for Inactive)
REMARK    1  A    between atoms: C_16  and  C_19
REMARK    2  A    between atoms: C_17  and  C_20
REMARK                            x       y       z     vdW  Elec       q    Type
REMARK                         _______ _______ _______ _____ _____    ______ ____
ROOT
ATOM      2  O   UNL     1     -13.098   9.688  20.680  0.00  0.00    -0.267 OA
ATOM      3  O   UNL     1     -14.433  10.720  16.364  0.00  0.00    -0.267 OA
ATOM      5  N   UNL     1     -12.135  10.870  15.949  0.00  0.00    -0.294 N 
ATOM      6  N   UNL     1     -11.605   9.868  18.897  0.00  0.00    -0.311 N 
ATOM      7  C   UNL     1     -11.034  12.112  17.800  0.00  0.00    +0.027 C 
ATOM      8  C   UNL     1     -10.021  10.036  16.947  0.00  0.00    +0.054 C 
ATOM      9  C   UNL     1      -9.707  11.444  17.452  0.00  0.00    +0.018 C 
ATOM     10  C   UNL     1     -11.939  12.185  16.557  0.00  0.00    +0.113 C 
ATOM     11  C   UNL     1     -11.690  11.335  18.949  0.00  0.00    +0.130 C 
ATOM     12  C   UNL     1     -10.895  10.123  15.681  0.00  0.00    +0.117 C 
ATOM     13  C   UNL     1     -10.742   9.225  18.006  0.00  0.00    +0.027 A 
ATOM     14  C   UNL     1     -10.588   7.892  18.060  0.00  0.00    +0.022 A 
ATOM     15  C   UNL     1     -12.352   9.156  19.856  0.00  0.00    +0.259 A 
ATOM     16  C   UNL     1     -13.432  10.402  15.724  0.00  0.00    +0.282 C 
ATOM     17  C   UNL     1     -12.194   7.659  19.859  0.00  0.00    +0.047 A 
ATOM     18  C   UNL     1     -11.330   7.101  18.998  0.00  0.00    +0.015 A 
ENDROOT
BRANCH  17  20
ATOM      1 CL   UNL     1     -15.379   4.215  23.575  0.00  0.00    -0.084 Cl
ATOM     20  C   UNL     1     -12.978   6.811  20.773  0.00  0.00    -0.013 A 
ATOM     22  C   UNL     1     -14.367   6.937  20.825  0.00  0.00    +0.010 A 
ATOM     23  C   UNL     1     -12.332   5.881  21.589  0.00  0.00    +0.010 A 
ATOM     26  C   UNL     1     -15.109   6.135  21.690  0.00  0.00    +0.020 A 
ATOM     27  C   UNL     1     -13.075   5.078  22.455  0.00  0.00    +0.020 A 
ATOM     28  C   UNL     1     -14.463   5.205  22.505  0.00  0.00    +0.041 A 
ENDBRANCH  17  20
BRANCH  16  19
ATOM      4  O   UNL     1     -13.597   9.884  13.374  0.00  0.00    -0.458 OA
ATOM     19  C   UNL     1     -13.636   9.426  14.647  0.00  0.00    +0.189 A 
ATOM     21  C   UNL     1     -13.869   8.078  14.684  0.00  0.00    +0.054 A 
ATOM     24  C   UNL     1     -13.983   7.670  13.334  0.00  0.00    +0.042 A 
ATOM     25  C   UNL     1     -13.810   8.804  12.576  0.00  0.00    +0.196 A 
ENDBRANCH  16  19
TORSDOF 2
ENDMDL
MODEL 9
REMARK VINA RESULT:      -6.7     26.856     29.382
REMARK  Name = 7143734
REMARK  2 active torsions:
REMARK  status: ('A' for Active; 'I' for Inactive)
REMARK    1  A    between atoms: C_16  and  C_19
REMARK    2  A    between atoms: C_17  and  C_20
REMARK                            x       y       z     vdW  Elec       q    Type
REMARK                         _______ _______ _______ _____ _____    ______ ____
ROOT
ATOM      2  O   UNL     1      -6.761 -10.132  14.076  0.00  0.00    -0.267 OA
ATOM      3  O   UNL     1      -4.833 -14.210  13.016  0.00  0.00    -0.267 OA
ATOM      5  N   UNL     1      -2.818 -13.058  13.309  0.00  0.00    -0.294 N 
ATOM      6  N   UNL     1      -4.472 -10.539  14.255  0.00  0.00    -0.311 N 
ATOM      7  C   UNL     1      -2.962 -10.835  12.206  0.00  0.00    +0.027 C 
ATOM      8  C   UNL     1      -2.009 -11.018  14.469  0.00  0.00    +0.054 C 
ATOM      9  C   UNL     1      -1.857 -10.316  13.121  0.00  0.00    +0.018 C 
ATOM     10  C   UNL     1      -2.835 -12.359  12.026  0.00  0.00    +0.113 C 
ATOM     11  C   UNL     1      -4.319 -10.433  12.796  0.00  0.00    +0.130 C 
ATOM     12  C   UNL     1      -1.842 -12.539  14.282  0.00  0.00    +0.117 C 
ATOM     13  C   UNL     1      -3.364 -10.729  15.085  0.00  0.00    +0.027 A 
ATOM     14  C   UNL     1      -3.509 -10.700  16.420  0.00  0.00    +0.022 A 
ATOM     15  C   UNL     1      -5.766 -10.336  14.773  0.00  0.00    +0.259 A 
ATOM     16  C   UNL     1      -3.727 -14.093  13.541  0.00  0.00    +0.282 C 
ATOM     17  C   UNL     1      -5.903 -10.356  16.272  0.00  0.00    +0.047 A 
ATOM     18  C   UNL     1      -4.801 -10.515  17.017  0.00  0.00    +0.015 A 
ENDROOT
BRANCH  17  20
ATOM      1 CL   UNL     1     -11.251  -9.810  18.901  0.00  0.00    -0.084 Cl
ATOM     20  C   UNL     1      -7.220 -10.221  16.918  0.00  0.00    -0.013 A 
ATOM     22  C   UNL     1      -7.896  -9.002  16.880  0.00  0.00    +0.010 A 
ATOM     23  C   UNL     1      -7.793 -11.315  17.570  0.00  0.00    +0.010 A 
ATOM     26  C   UNL     1      -9.141  -8.874  17.492  0.00  0.00    +0.020 A 
ATOM     27  C   UNL     1      -9.039 -11.187  18.183  0.00  0.00    +0.020 A 
ATOM     28  C   UNL     1      -9.714  -9.967  18.143  0.00  0.00    +0.041 A 
ENDBRANCH  17  20
BRANCH  16  19
ATOM      4  O   UNL     1      -2.206 -15.806  14.297  0.00  0.00    -0.458 OA
ATOM     19  C   UNL     1      -3.359 -15.130  14.512  0.00  0.00    +0.189 A 
ATOM     21  C   UNL     1      -3.986 -15.567  15.647  0.00  0.00    +0.054 A 
ATOM     24  C   UNL     1      -3.161 -16.588  16.175  0.00  0.00    +0.042 A 
ATOM     25  C   UNL     1      -2.091 -16.696  15.318  0.00  0.00    +0.196 A 
ENDBRANCH  16  19
TORSDOF 2
ENDMDL
MODEL 10
REMARK VINA RESULT:      -6.6     22.285     25.508
REMARK  Name = 7143734
REMARK  2 active torsions:
REMARK  status: ('A' for Active; 'I' for Inactive)
REMARK    1  A    between atoms: C_16  and  C_19
REMARK    2  A    between atoms: C_17  and  C_20
REMARK                            x       y       z     vdW  Elec       q    Type
REMARK                         _______ _______ _______ _____ _____    ______ ____
ROOT
ATOM      2  O   UNL     1      -6.425   9.767   5.756  0.00  0.00    -0.267 OA
ATOM      3  O   UNL     1      -3.426  11.769   2.845  0.00  0.00    -0.267 OA
ATOM      5  N   UNL     1      -1.809  10.845   4.261  0.00  0.00    -0.294 N 
ATOM      6  N   UNL     1      -4.124   9.401   5.853  0.00  0.00    -0.311 N 
ATOM      7  C   UNL     1      -2.475  11.202   6.629  0.00  0.00    +0.027 C 
ATOM      8  C   UNL     1      -1.638   9.000   5.913  0.00  0.00    +0.054 C 
ATOM      9  C   UNL     1      -1.601  10.023   7.047  0.00  0.00    +0.018 C 
ATOM     10  C   UNL     1      -1.938  11.833   5.331  0.00  0.00    +0.113 C 
ATOM     11  C   UNL     1      -3.922  10.716   6.481  0.00  0.00    +0.130 C 
ATOM     12  C   UNL     1      -1.063   9.630   4.629  0.00  0.00    +0.117 C 
ATOM     13  C   UNL     1      -3.055   8.524   5.653  0.00  0.00    +0.027 A 
ATOM     14  C   UNL     1      -3.278   7.283   5.192  0.00  0.00    +0.022 A 
ATOM     15  C   UNL     1      -5.452   9.035   5.563  0.00  0.00    +0.259 A 
ATOM     16  C   UNL     1      -2.423  11.082   3.029  0.00  0.00    +0.282 C 
ATOM     17  C   UNL     1      -5.665   7.654   5.002  0.00  0.00    +0.047 A 
ATOM     18  C   UNL     1      -4.604   6.848   4.859  0.00  0.00    +0.015 A 
ENDROOT
BRANCH  17  20
ATOM      1 CL   UNL     1     -11.109   5.777   3.373  0.00  0.00    -0.084 Cl
ATOM     20  C   UNL     1      -7.004   7.192   4.601  0.00  0.00    -0.013 A 
ATOM     22  C   UNL     1      -7.629   7.747   3.484  0.00  0.00    +0.010 A 
ATOM     23  C   UNL     1      -7.650   6.198   5.338  0.00  0.00    +0.010 A 
ATOM     26  C   UNL     1      -8.897   7.310   3.104  0.00  0.00    +0.020 A 
ATOM     27  C   UNL     1      -8.919   5.761   4.958  0.00  0.00    +0.020 A 
ATOM     28  C   UNL     1      -9.543   6.316   3.841  0.00  0.00    +0.041 A 
ENDBRANCH  17  20
BRANCH  16  19
ATOM      4  O   UNL     1      -0.547  10.695   1.562  0.00  0.00    -0.458 OA
ATOM     19  C   UNL     1      -1.849  10.445   1.838  0.00  0.00    +0.189 A 
ATOM     21  C   UNL     1      -2.401   9.606   0.909  0.00  0.00    +0.054 A 
ATOM     24  C   UNL     1      -1.366   9.315  -0.011  0.00  0.00    +0.042 A 
ATOM     25  C   UNL     1      -0.258  10.000   0.430  0.00  0.00    +0.196 A 
ENDBRANCH  16  19
TORSDOF 2
ENDMDL
