MODEL 1
REMARK VINA RESULT:      -8.2      0.000      0.000
REMARK  Name = 44716814
REMARK  5 active torsions:
REMARK  status: ('A' for Active; 'I' for Inactive)
REMARK    1  A    between atoms: N_4  and  C_11
REMARK    2  A    between atoms: N_5  and  C_12
REMARK    3  A    between atoms: N_6  and  C_18
REMARK    4  A    between atoms: C_17  and  C_21
REMARK    5  A    between atoms: C_30  and  C_32
REMARK                            x       y       z     vdW  Elec       q    Type
REMARK                         _______ _______ _______ _____ _____    ______ ____
ROOT
ATOM      4  N   UNL     1      -4.756 -11.996   5.429  0.00  0.00    -0.306 N 
ATOM      7  N   UNL     1      -4.730 -11.122   7.581  0.00  0.00    -0.214 NA
ATOM      8  N   UNL     1      -6.064 -10.121   5.842  0.00  0.00    -0.223 NA
ATOM     15  C   UNL     1      -5.203 -11.039   6.323  0.00  0.00    +0.216 A 
ATOM     17  C   UNL     1      -5.183 -10.172   8.424  0.00  0.00    +0.076 A 
ATOM     19  C   UNL     1      -6.476  -9.202   6.739  0.00  0.00    +0.116 A 
ATOM     20  C   UNL     1      -6.066  -9.177   8.055  0.00  0.00    +0.048 A 
ATOM     38  H   UNL     1      -5.068 -11.906   4.469  0.00  0.00    +0.149 HD
ENDROOT
BRANCH   4  11
ATOM      1  O   UNL     1      -4.134 -14.738   4.137  0.00  0.00    -0.370 OA
ATOM      2  O   UNL     1      -1.517 -13.678   5.464  0.00  0.00    -0.370 OA
ATOM      9  C   UNL     1      -2.642 -13.027   4.851  0.00  0.00    +0.171 C 
ATOM     10  C   UNL     1      -3.073 -13.885   3.676  0.00  0.00    +0.171 C 
ATOM     11  C   UNL     1      -3.831 -13.051   5.781  0.00  0.00    +0.130 C 
ATOM     12  C   UNL     1      -1.844 -14.704   3.349  0.00  0.00    +0.131 C 
ATOM     13  C   UNL     1      -4.450 -14.408   5.497  0.00  0.00    +0.185 C 
ATOM     14  C   UNL     1      -1.181 -14.850   4.707  0.00  0.00    +0.185 C 
BRANCH  12   5
ATOM      3  O   UNL     1       0.338 -15.823   1.870  0.00  0.00    -0.252 OA
ATOM      5  N   UNL     1      -0.987 -14.010   2.420  0.00  0.00    -0.292 N 
ATOM      6  N   UNL     1       0.716 -13.715   0.907  0.00  0.00    -0.269 N 
ATOM     16  C   UNL     1       0.063 -14.633   1.735  0.00  0.00    +0.304 C 
ATOM     39  H   UNL     1      -1.194 -13.040   2.203  0.00  0.00    +0.151 HD
ATOM     40  H   UNL     1       0.362 -12.762   0.913  0.00  0.00    +0.156 HD
BRANCH   6  18
ATOM     18  C   UNL     1       1.821 -13.948   0.055  0.00  0.00    +0.035 A 
ATOM     22  C   UNL     1       3.105 -14.046   0.590  0.00  0.00    +0.023 A 
ATOM     23  C   UNL     1       1.626 -14.079  -1.320  0.00  0.00    +0.023 A 
ATOM     26  C   UNL     1       4.196 -14.274  -0.250  0.00  0.00    +0.002 A 
ATOM     27  C   UNL     1       2.716 -14.307  -2.160  0.00  0.00    +0.002 A 
ATOM     31  C   UNL     1       4.001 -14.405  -1.626  0.00  0.00    +0.000 A 
ENDBRANCH   6  18
ENDBRANCH  12   5
ENDBRANCH   4  11
BRANCH  17  21
ATOM     21  C   UNL     1      -4.677 -10.258   9.774  0.00  0.00    +0.001 A 
ATOM     24  C   UNL     1      -3.377  -9.840  10.059  0.00  0.00    +0.010 A 
ATOM     25  C   UNL     1      -5.488 -10.756  10.793  0.00  0.00    +0.010 A 
ATOM     28  C   UNL     1      -2.888  -9.922  11.362  0.00  0.00    +0.009 A 
ATOM     29  C   UNL     1      -4.999 -10.838  12.096  0.00  0.00    +0.009 A 
ATOM     30  C   UNL     1      -3.699 -10.420  12.381  0.00  0.00    -0.018 A 
BRANCH  30  32
ATOM     32  C   UNL     1      -3.192 -10.506  13.734  0.00  0.00    -0.018 A 
ATOM     33  C   UNL     1      -1.832 -10.320  13.982  0.00  0.00    +0.008 A 
ATOM     34  C   UNL     1      -4.063 -10.775  14.789  0.00  0.00    +0.008 A 
ATOM     35  C   UNL     1      -1.343 -10.402  15.286  0.00  0.00    +0.001 A 
ATOM     36  C   UNL     1      -3.575 -10.858  16.093  0.00  0.00    +0.001 A 
ATOM     37  C   UNL     1      -2.214 -10.672  16.342  0.00  0.00    +0.000 A 
ENDBRANCH  30  32
ENDBRANCH  17  21
TORSDOF 5
ENDMDL
MODEL 2
REMARK VINA RESULT:      -8.1     25.600     27.809
REMARK  Name = 44716814
REMARK  5 active torsions:
REMARK  status: ('A' for Active; 'I' for Inactive)
REMARK    1  A    between atoms: N_4  and  C_11
REMARK    2  A    between atoms: N_5  and  C_12
REMARK    3  A    between atoms: N_6  and  C_18
REMARK    4  A    between atoms: C_17  and  C_21
REMARK    5  A    between atoms: C_30  and  C_32
REMARK                            x       y       z     vdW  Elec       q    Type
REMARK                         _______ _______ _______ _____ _____    ______ ____
ROOT
ATOM      4  N   UNL     1      13.200  13.171  12.232  0.00  0.00    -0.306 N 
ATOM      7  N   UNL     1      13.547  11.815  14.085  0.00  0.00    -0.214 NA
ATOM      8  N   UNL     1      15.374  12.475  12.660  0.00  0.00    -0.223 NA
ATOM     15  C   UNL     1      14.079  12.457  13.028  0.00  0.00    +0.216 A 
ATOM     17  C   UNL     1      14.430  11.126  14.837  0.00  0.00    +0.076 A 
ATOM     19  C   UNL     1      16.202  11.766  13.456  0.00  0.00    +0.116 A 
ATOM     20  C   UNL     1      15.783  11.065  14.568  0.00  0.00    +0.048 A 
ATOM     38  H   UNL     1      13.587  13.612  11.405  0.00  0.00    +0.149 HD
ENDROOT
BRANCH   4  11
ATOM      1  O   UNL     1      10.811  13.982  10.440  0.00  0.00    -0.370 OA
ATOM      2  O   UNL     1       9.805  11.857  12.491  0.00  0.00    -0.370 OA
ATOM      9  C   UNL     1      11.071  12.082  11.850  0.00  0.00    +0.171 C 
ATOM     10  C   UNL     1      10.782  12.545  10.434  0.00  0.00    +0.171 C 
ATOM     11  C   UNL     1      11.779  13.255  12.484  0.00  0.00    +0.130 C 
ATOM     12  C   UNL     1       9.379  12.049  10.165  0.00  0.00    +0.131 C 
ATOM     13  C   UNL     1      11.184  14.442  11.747  0.00  0.00    +0.185 C 
ATOM     14  C   UNL     1       8.750  12.088  11.546  0.00  0.00    +0.185 C 
BRANCH  12   5
ATOM      3  O   UNL     1       9.339  11.302   7.400  0.00  0.00    -0.252 OA
ATOM      5  N   UNL     1       9.393  10.708   9.634  0.00  0.00    -0.292 N 
ATOM      6  N   UNL     1       9.392   9.046   8.048  0.00  0.00    -0.269 N 
ATOM     16  C   UNL     1       9.372  10.427   8.262  0.00  0.00    +0.304 C 
ATOM     39  H   UNL     1       9.488   9.932  10.282  0.00  0.00    +0.151 HD
ATOM     40  H   UNL     1       9.417   8.456   8.876  0.00  0.00    +0.156 HD
BRANCH   6  18
ATOM     18  C   UNL     1       9.381   8.359   6.812  0.00  0.00    +0.035 A 
ATOM     22  C   UNL     1       8.216   7.729   6.374  0.00  0.00    +0.023 A 
ATOM     23  C   UNL     1      10.536   8.312   6.029  0.00  0.00    +0.023 A 
ATOM     26  C   UNL     1       8.205   7.050   5.155  0.00  0.00    +0.002 A 
ATOM     27  C   UNL     1      10.525   7.633   4.811  0.00  0.00    +0.002 A 
ATOM     31  C   UNL     1       9.360   7.003   4.373  0.00  0.00    +0.000 A 
ENDBRANCH   6  18
ENDBRANCH  12   5
ENDBRANCH   4  11
BRANCH  17  21
ATOM     21  C   UNL     1      13.863  10.436  15.972  0.00  0.00    +0.001 A 
ATOM     24  C   UNL     1      14.402  10.626  17.244  0.00  0.00    +0.010 A 
ATOM     25  C   UNL     1      12.777   9.580  15.796  0.00  0.00    +0.010 A 
ATOM     28  C   UNL     1      13.855   9.960  18.340  0.00  0.00    +0.009 A 
ATOM     29  C   UNL     1      12.229   8.914  16.892  0.00  0.00    +0.009 A 
ATOM     30  C   UNL     1      12.768   9.104  18.164  0.00  0.00    -0.018 A 
BRANCH  30  32
ATOM     32  C   UNL     1      12.200   8.412  19.301  0.00  0.00    -0.018 A 
ATOM     33  C   UNL     1      11.284   9.063  20.128  0.00  0.00    +0.008 A 
ATOM     34  C   UNL     1      12.569   7.095  19.571  0.00  0.00    +0.008 A 
ATOM     35  C   UNL     1      10.737   8.396  21.223  0.00  0.00    +0.001 A 
ATOM     36  C   UNL     1      12.023   6.428  20.667  0.00  0.00    +0.001 A 
ATOM     37  C   UNL     1      11.106   7.079  21.494  0.00  0.00    +0.000 A 
ENDBRANCH  30  32
ENDBRANCH  17  21
TORSDOF 5
ENDMDL
MODEL 3
REMARK VINA RESULT:      -8.0     19.175     23.634
REMARK  Name = 44716814
REMARK  5 active torsions:
REMARK  status: ('A' for Active; 'I' for Inactive)
REMARK    1  A    between atoms: N_4  and  C_11
REMARK    2  A    between atoms: N_5  and  C_12
REMARK    3  A    between atoms: N_6  and  C_18
REMARK    4  A    between atoms: C_17  and  C_21
REMARK    5  A    between atoms: C_30  and  C_32
REMARK                            x       y       z     vdW  Elec       q    Type
REMARK                         _______ _______ _______ _____ _____    ______ ____
ROOT
ATOM      4  N   UNL     1      20.144  -5.298  -1.959  0.00  0.00    -0.306 N 
ATOM      7  N   UNL     1      18.127  -4.863  -3.024  0.00  0.00    -0.214 NA
ATOM      8  N   UNL     1      19.213  -3.190  -1.673  0.00  0.00    -0.223 NA
ATOM     15  C   UNL     1      19.117  -4.411  -2.231  0.00  0.00    +0.216 A 
ATOM     17  C   UNL     1      17.140  -3.974  -3.266  0.00  0.00    +0.076 A 
ATOM     19  C   UNL     1      18.193  -2.352  -1.956  0.00  0.00    +0.116 A 
ATOM     20  C   UNL     1      17.121  -2.692  -2.753  0.00  0.00    +0.048 A 
ATOM     38  H   UNL     1      20.865  -4.982  -1.320  0.00  0.00    +0.149 HD
ENDROOT
BRANCH   4  11
ATOM      1  O   UNL     1      21.385  -7.909  -0.854  0.00  0.00    -0.370 OA
ATOM      2  O   UNL     1      18.870  -8.669  -2.536  0.00  0.00    -0.370 OA
ATOM      9  C   UNL     1      19.210  -7.522  -1.740  0.00  0.00    +0.171 C 
ATOM     10  C   UNL     1      19.987  -8.024  -0.538  0.00  0.00    +0.171 C 
ATOM     11  C   UNL     1      20.196  -6.647  -2.478  0.00  0.00    +0.130 C 
ATOM     12  C   UNL     1      19.592  -9.479  -0.425  0.00  0.00    +0.131 C 
ATOM     13  C   UNL     1      21.530  -7.288  -2.140  0.00  0.00    +0.185 C 
ATOM     14  C   UNL     1      19.329  -9.856  -1.872  0.00  0.00    +0.185 C 
BRANCH  12   5
ATOM      3  O   UNL     1      18.849 -11.792   1.092  0.00  0.00    -0.252 OA
ATOM      5  N   UNL     1      18.407  -9.637   0.381  0.00  0.00    -0.292 N 
ATOM      6  N   UNL     1      16.906 -10.668   1.781  0.00  0.00    -0.269 N 
ATOM     16  C   UNL     1      18.116 -10.806   1.095  0.00  0.00    +0.304 C 
ATOM     39  H   UNL     1      17.785  -8.841   0.488  0.00  0.00    +0.151 HD
ATOM     40  H   UNL     1      16.419  -9.782   1.675  0.00  0.00    +0.156 HD
BRANCH   6  18
ATOM     18  C   UNL     1      16.266 -11.618   2.611  0.00  0.00    +0.035 A 
ATOM     22  C   UNL     1      16.210 -11.414   3.989  0.00  0.00    +0.023 A 
ATOM     23  C   UNL     1      15.691 -12.760   2.051  0.00  0.00    +0.023 A 
ATOM     26  C   UNL     1      15.580 -12.350   4.809  0.00  0.00    +0.002 A 
ATOM     27  C   UNL     1      15.062 -13.697   2.871  0.00  0.00    +0.002 A 
ATOM     31  C   UNL     1      15.006 -13.492   4.249  0.00  0.00    +0.000 A 
ENDBRANCH   6  18
ENDBRANCH  12   5
ENDBRANCH   4  11
BRANCH  17  21
ATOM     21  C   UNL     1      16.076  -4.455  -4.115  0.00  0.00    +0.001 A 
ATOM     24  C   UNL     1      16.182  -4.336  -5.500  0.00  0.00    +0.010 A 
ATOM     25  C   UNL     1      14.943  -5.039  -3.550  0.00  0.00    +0.010 A 
ATOM     28  C   UNL     1      15.154  -4.800  -6.321  0.00  0.00    +0.009 A 
ATOM     29  C   UNL     1      13.915  -5.504  -4.370  0.00  0.00    +0.009 A 
ATOM     30  C   UNL     1      14.021  -5.385  -5.756  0.00  0.00    -0.018 A 
BRANCH  30  32
ATOM     32  C   UNL     1      12.954  -5.866  -6.607  0.00  0.00    -0.018 A 
ATOM     33  C   UNL     1      12.914  -7.209  -6.983  0.00  0.00    +0.008 A 
ATOM     34  C   UNL     1      11.967  -4.988  -7.051  0.00  0.00    +0.008 A 
ATOM     35  C   UNL     1      11.886  -7.673  -7.803  0.00  0.00    +0.001 A 
ATOM     36  C   UNL     1      10.939  -5.451  -7.872  0.00  0.00    +0.001 A 
ATOM     37  C   UNL     1      10.898  -6.794  -8.248  0.00  0.00    +0.000 A 
ENDBRANCH  30  32
ENDBRANCH  17  21
TORSDOF 5
ENDMDL
MODEL 4
REMARK VINA RESULT:      -7.9      3.855      5.461
REMARK  Name = 44716814
REMARK  5 active torsions:
REMARK  status: ('A' for Active; 'I' for Inactive)
REMARK    1  A    between atoms: N_4  and  C_11
REMARK    2  A    between atoms: N_5  and  C_12
REMARK    3  A    between atoms: N_6  and  C_18
REMARK    4  A    between atoms: C_17  and  C_21
REMARK    5  A    between atoms: C_30  and  C_32
REMARK                            x       y       z     vdW  Elec       q    Type
REMARK                         _______ _______ _______ _____ _____    ______ ____
ROOT
ATOM      4  N   UNL     1      -5.972 -12.943   0.644  0.00  0.00    -0.306 N 
ATOM      7  N   UNL     1      -6.106 -12.018   2.770  0.00  0.00    -0.214 NA
ATOM      8  N   UNL     1      -7.889 -11.743   1.173  0.00  0.00    -0.223 NA
ATOM     15  C   UNL     1      -6.688 -12.204   1.569  0.00  0.00    +0.216 A 
ATOM     17  C   UNL     1      -6.828 -11.290   3.646  0.00  0.00    +0.076 A 
ATOM     19  C   UNL     1      -8.557 -11.023   2.098  0.00  0.00    +0.116 A 
ATOM     20  C   UNL     1      -8.072 -10.762   3.363  0.00  0.00    +0.048 A 
ATOM     38  H   UNL     1      -6.382 -13.041  -0.278  0.00  0.00    +0.149 HD
ENDROOT
BRANCH   4  11
ATOM      1  O   UNL     1      -4.373 -15.213  -0.723  0.00  0.00    -0.370 OA
ATOM      2  O   UNL     1      -2.336 -13.128   0.390  0.00  0.00    -0.370 OA
ATOM      9  C   UNL     1      -3.675 -13.019  -0.120  0.00  0.00    +0.171 C 
ATOM     10  C   UNL     1      -3.803 -14.008  -1.263  0.00  0.00    +0.171 C 
ATOM     11  C   UNL     1      -4.668 -13.510   0.907  0.00  0.00    +0.130 C 
ATOM     12  C   UNL     1      -2.377 -14.252  -1.700  0.00  0.00    +0.131 C 
ATOM     13  C   UNL     1      -4.687 -15.008   0.663  0.00  0.00    +0.185 C 
ATOM     14  C   UNL     1      -1.606 -14.074  -0.404  0.00  0.00    +0.185 C 
BRANCH  12   5
ATOM      3  O   UNL     1      -0.282 -14.570  -3.627  0.00  0.00    -0.252 OA
ATOM      5  N   UNL     1      -1.964 -13.289  -2.691  0.00  0.00    -0.292 N 
ATOM      6  N   UNL     1      -0.750 -12.417  -4.436  0.00  0.00    -0.269 N 
ATOM     16  C   UNL     1      -0.925 -13.524  -3.600  0.00  0.00    +0.304 C 
ATOM     39  H   UNL     1      -2.492 -12.426  -2.777  0.00  0.00    +0.151 HD
ATOM     40  H   UNL     1      -1.369 -11.625  -4.280  0.00  0.00    +0.156 HD
BRANCH   6  18
ATOM     18  C   UNL     1       0.189 -12.257  -5.481  0.00  0.00    +0.035 A 
ATOM     22  C   UNL     1       1.393 -11.595  -5.242  0.00  0.00    +0.023 A 
ATOM     23  C   UNL     1      -0.087 -12.764  -6.752  0.00  0.00    +0.023 A 
ATOM     26  C   UNL     1       2.320 -11.436  -6.272  0.00  0.00    +0.002 A 
ATOM     27  C   UNL     1       0.839 -12.605  -7.782  0.00  0.00    +0.002 A 
ATOM     31  C   UNL     1       2.043 -11.942  -7.543  0.00  0.00    +0.000 A 
ENDBRANCH   6  18
ENDBRANCH  12   5
ENDBRANCH   4  11
BRANCH  17  21
ATOM     21  C   UNL     1      -6.208 -11.088   4.934  0.00  0.00    +0.001 A 
ATOM     24  C   UNL     1      -6.626 -10.039   5.753  0.00  0.00    +0.010 A 
ATOM     25  C   UNL     1      -5.192 -11.942   5.361  0.00  0.00    +0.010 A 
ATOM     28  C   UNL     1      -6.027  -9.844   6.997  0.00  0.00    +0.009 A 
ATOM     29  C   UNL     1      -4.593 -11.747   6.605  0.00  0.00    +0.009 A 
ATOM     30  C   UNL     1      -5.011 -10.699   7.424  0.00  0.00    -0.018 A 
BRANCH  30  32
ATOM     32  C   UNL     1      -4.390 -10.496   8.714  0.00  0.00    -0.018 A 
ATOM     33  C   UNL     1      -4.059  -9.208   9.136  0.00  0.00    +0.008 A 
ATOM     34  C   UNL     1      -4.121 -11.590   9.538  0.00  0.00    +0.008 A 
ATOM     35  C   UNL     1      -3.460  -9.014  10.380  0.00  0.00    +0.001 A 
ATOM     36  C   UNL     1      -3.521 -11.395  10.781  0.00  0.00    +0.001 A 
ATOM     37  C   UNL     1      -3.190 -10.107  11.204  0.00  0.00    +0.000 A 
ENDBRANCH  30  32
ENDBRANCH  17  21
TORSDOF 5
ENDMDL
MODEL 5
REMARK VINA RESULT:      -7.9     20.593     22.632
REMARK  Name = 44716814
REMARK  5 active torsions:
REMARK  status: ('A' for Active; 'I' for Inactive)
REMARK    1  A    between atoms: N_4  and  C_11
REMARK    2  A    between atoms: N_5  and  C_12
REMARK    3  A    between atoms: N_6  and  C_18
REMARK    4  A    between atoms: C_17  and  C_21
REMARK    5  A    between atoms: C_30  and  C_32
REMARK                            x       y       z     vdW  Elec       q    Type
REMARK                         _______ _______ _______ _____ _____    ______ ____
ROOT
ATOM      4  N   UNL     1       9.278   6.407  -3.896  0.00  0.00    -0.306 N 
ATOM      7  N   UNL     1       9.901   6.100  -1.680  0.00  0.00    -0.214 NA
ATOM      8  N   UNL     1      11.348   5.436  -3.489  0.00  0.00    -0.223 NA
ATOM     15  C   UNL     1      10.217   5.963  -2.982  0.00  0.00    +0.216 A 
ATOM     17  C   UNL     1      10.836   5.652  -0.817  0.00  0.00    +0.076 A 
ATOM     19  C   UNL     1      12.239   5.009  -2.570  0.00  0.00    +0.116 A 
ATOM     20  C   UNL     1      12.036   5.092  -1.208  0.00  0.00    +0.048 A 
ATOM     38  H   UNL     1       9.488   6.258  -4.877  0.00  0.00    +0.149 HD
ENDROOT
BRANCH   4  11
ATOM      1  O   UNL     1       6.883   7.434  -5.565  0.00  0.00    -0.370 OA
ATOM      2  O   UNL     1       5.780   6.345  -2.857  0.00  0.00    -0.370 OA
ATOM      9  C   UNL     1       6.903   5.985  -3.677  0.00  0.00    +0.171 C 
ATOM     10  C   UNL     1       6.469   6.130  -5.123  0.00  0.00    +0.171 C 
ATOM     11  C   UNL     1       8.012   6.998  -3.521  0.00  0.00    +0.130 C 
ATOM     12  C   UNL     1       4.961   6.049  -5.064  0.00  0.00    +0.131 C 
ATOM     13  C   UNL     1       7.621   8.077  -4.515  0.00  0.00    +0.185 C 
ATOM     14  C   UNL     1       4.657   6.642  -3.700  0.00  0.00    +0.185 C 
BRANCH  12   5
ATOM      3  O   UNL     1       2.417   5.148  -6.024  0.00  0.00    -0.252 OA
ATOM      5  N   UNL     1       4.508   4.683  -5.154  0.00  0.00    -0.292 N 
ATOM      6  N   UNL     1       3.085   2.936  -5.605  0.00  0.00    -0.269 N 
ATOM     16  C   UNL     1       3.243   4.325  -5.637  0.00  0.00    +0.304 C 
ATOM     39  H   UNL     1       5.159   3.941  -4.916  0.00  0.00    +0.151 HD
ATOM     40  H   UNL     1       3.870   2.396  -5.252  0.00  0.00    +0.156 HD
BRANCH   6  18
ATOM     18  C   UNL     1       1.958   2.182  -6.007  0.00  0.00    +0.035 A 
ATOM     22  C   UNL     1       1.429   2.345  -7.287  0.00  0.00    +0.023 A 
ATOM     23  C   UNL     1       1.375   1.273  -5.121  0.00  0.00    +0.023 A 
ATOM     26  C   UNL     1       0.317   1.602  -7.683  0.00  0.00    +0.002 A 
ATOM     27  C   UNL     1       0.263   0.531  -5.518  0.00  0.00    +0.002 A 
ATOM     31  C   UNL     1      -0.266   0.694  -6.797  0.00  0.00    +0.000 A 
ENDBRANCH   6  18
ENDBRANCH  12   5
ENDBRANCH   4  11
BRANCH  17  21
ATOM     21  C   UNL     1      10.501   5.797   0.580  0.00  0.00    +0.001 A 
ATOM     24  C   UNL     1      10.823   4.784   1.483  0.00  0.00    +0.010 A 
ATOM     25  C   UNL     1       9.857   6.950   1.028  0.00  0.00    +0.010 A 
ATOM     28  C   UNL     1      10.500   4.923   2.832  0.00  0.00    +0.009 A 
ATOM     29  C   UNL     1       9.534   7.089   2.377  0.00  0.00    +0.009 A 
ATOM     30  C   UNL     1       9.856   6.076   3.279  0.00  0.00    -0.018 A 
BRANCH  30  32
ATOM     32  C   UNL     1       9.520   6.221   4.679  0.00  0.00    -0.018 A 
ATOM     33  C   UNL     1      10.142   5.415   5.633  0.00  0.00    +0.008 A 
ATOM     34  C   UNL     1       8.574   7.166   5.075  0.00  0.00    +0.008 A 
ATOM     35  C   UNL     1       9.819   5.555   6.982  0.00  0.00    +0.001 A 
ATOM     36  C   UNL     1       8.250   7.305   6.424  0.00  0.00    +0.001 A 
ATOM     37  C   UNL     1       8.872   6.500   7.379  0.00  0.00    +0.000 A 
ENDBRANCH  30  32
ENDBRANCH  17  21
TORSDOF 5
ENDMDL
MODEL 6
REMARK VINA RESULT:      -7.8     22.107     24.011
REMARK  Name = 44716814
REMARK  5 active torsions:
REMARK  status: ('A' for Active; 'I' for Inactive)
REMARK    1  A    between atoms: N_4  and  C_11
REMARK    2  A    between atoms: N_5  and  C_12
REMARK    3  A    between atoms: N_6  and  C_18
REMARK    4  A    between atoms: C_17  and  C_21
REMARK    5  A    between atoms: C_30  and  C_32
REMARK                            x       y       z     vdW  Elec       q    Type
REMARK                         _______ _______ _______ _____ _____    ______ ____
ROOT
ATOM      4  N   UNL     1       3.740  13.405   5.548  0.00  0.00    -0.306 N 
ATOM      7  N   UNL     1       1.734  12.345   6.044  0.00  0.00    -0.214 NA
ATOM      8  N   UNL     1       2.842  13.744   7.663  0.00  0.00    -0.223 NA
ATOM     15  C   UNL     1       2.727  13.155   6.457  0.00  0.00    +0.216 A 
ATOM     17  C   UNL     1       0.766  12.119   6.956  0.00  0.00    +0.076 A 
ATOM     19  C   UNL     1       1.840  13.475   8.526  0.00  0.00    +0.116 A 
ATOM     20  C   UNL     1       0.766  12.663   8.225  0.00  0.00    +0.048 A 
ATOM     38  H   UNL     1       4.516  13.971   5.872  0.00  0.00    +0.149 HD
ENDROOT
BRANCH   4  11
ATOM      1  O   UNL     1       6.057  12.881   3.565  0.00  0.00    -0.370 OA
ATOM      2  O   UNL     1       3.865  10.713   3.087  0.00  0.00    -0.370 OA
ATOM      9  C   UNL     1       4.295  11.436   4.252  0.00  0.00    +0.171 C 
ATOM     10  C   UNL     1       5.800  11.594   4.152  0.00  0.00    +0.171 C 
ATOM     11  C   UNL     1       3.771  12.852   4.212  0.00  0.00    +0.130 C 
ATOM     12  C   UNL     1       6.224  10.491   3.209  0.00  0.00    +0.131 C 
ATOM     13  C   UNL     1       4.812  13.569   3.371  0.00  0.00    +0.185 C 
ATOM     14  C   UNL     1       5.013  10.355   2.304  0.00  0.00    +0.185 C 
BRANCH  12   5
ATOM      3  O   UNL     1       8.620   9.809   4.622  0.00  0.00    -0.252 OA
ATOM      5  N   UNL     1       6.485   9.265   3.923  0.00  0.00    -0.292 N 
ATOM      6  N   UNL     1       7.653   7.746   5.188  0.00  0.00    -0.269 N 
ATOM     16  C   UNL     1       7.689   9.009   4.590  0.00  0.00    +0.304 C 
ATOM     39  H   UNL     1       5.738   8.582   4.000  0.00  0.00    +0.151 HD
ATOM     40  H   UNL     1       6.801   7.206   5.065  0.00  0.00    +0.156 HD
BRANCH   6  18
ATOM     18  C   UNL     1       8.666   7.118   5.951  0.00  0.00    +0.035 A 
ATOM     22  C   UNL     1       9.523   6.198   5.349  0.00  0.00    +0.023 A 
ATOM     23  C   UNL     1       8.807   7.420   7.307  0.00  0.00    +0.023 A 
ATOM     26  C   UNL     1      10.521   5.578   6.101  0.00  0.00    +0.002 A 
ATOM     27  C   UNL     1       9.805   6.800   8.058  0.00  0.00    +0.002 A 
ATOM     31  C   UNL     1      10.662   5.880   7.456  0.00  0.00    +0.000 A 
ENDBRANCH   6  18
ENDBRANCH  12   5
ENDBRANCH   4  11
BRANCH  17  21
ATOM     21  C   UNL     1      -0.301  11.250   6.517  0.00  0.00    +0.001 A 
ATOM     24  C   UNL     1      -0.892  10.363   7.416  0.00  0.00    +0.010 A 
ATOM     25  C   UNL     1      -0.741  11.300   5.195  0.00  0.00    +0.010 A 
ATOM     28  C   UNL     1      -1.923   9.525   6.992  0.00  0.00    +0.009 A 
ATOM     29  C   UNL     1      -1.771  10.462   4.771  0.00  0.00    +0.009 A 
ATOM     30  C   UNL     1      -2.363   9.574   5.670  0.00  0.00    -0.018 A 
BRANCH  30  32
ATOM     32  C   UNL     1      -3.432   8.704   5.230  0.00  0.00    -0.018 A 
ATOM     33  C   UNL     1      -3.385   7.340   5.518  0.00  0.00    +0.008 A 
ATOM     34  C   UNL     1      -4.509   9.229   4.517  0.00  0.00    +0.008 A 
ATOM     35  C   UNL     1      -4.415   6.502   5.094  0.00  0.00    +0.001 A 
ATOM     36  C   UNL     1      -5.539   8.391   4.092  0.00  0.00    +0.001 A 
ATOM     37  C   UNL     1      -5.493   7.026   4.381  0.00  0.00    +0.000 A 
ENDBRANCH  30  32
ENDBRANCH  17  21
TORSDOF 5
ENDMDL
MODEL 7
REMARK VINA RESULT:      -7.8     29.808     34.640
REMARK  Name = 44716814
REMARK  5 active torsions:
REMARK  status: ('A' for Active; 'I' for Inactive)
REMARK    1  A    between atoms: N_4  and  C_11
REMARK    2  A    between atoms: N_5  and  C_12
REMARK    3  A    between atoms: N_6  and  C_18
REMARK    4  A    between atoms: C_17  and  C_21
REMARK    5  A    between atoms: C_30  and  C_32
REMARK                            x       y       z     vdW  Elec       q    Type
REMARK                         _______ _______ _______ _____ _____    ______ ____
ROOT
ATOM      4  N   UNL     1     -13.378   7.994  33.832  0.00  0.00    -0.306 N 
ATOM      7  N   UNL     1     -14.159   6.158  32.645  0.00  0.00    -0.214 NA
ATOM      8  N   UNL     1     -13.797   6.046  35.024  0.00  0.00    -0.223 NA
ATOM     15  C   UNL     1     -13.797   6.676  33.834  0.00  0.00    +0.216 A 
ATOM     17  C   UNL     1     -14.558   4.869  32.682  0.00  0.00    +0.076 A 
ATOM     19  C   UNL     1     -14.207   4.761  34.989  0.00  0.00    +0.116 A 
ATOM     20  C   UNL     1     -14.604   4.114  33.837  0.00  0.00    +0.048 A 
ATOM     38  H   UNL     1     -13.054   8.373  34.715  0.00  0.00    +0.149 HD
ENDROOT
BRANCH   4  11
ATOM      1  O   UNL     1     -13.089  11.048  33.418  0.00  0.00    -0.370 OA
ATOM      2  O   UNL     1     -11.717   9.610  31.012  0.00  0.00    -0.370 OA
ATOM      9  C   UNL     1     -11.896   9.260  32.394  0.00  0.00    +0.171 C 
ATOM     10  C   UNL     1     -11.762  10.537  33.202  0.00  0.00    +0.171 C 
ATOM     11  C   UNL     1     -13.317   8.814  32.642  0.00  0.00    +0.130 C 
ATOM     12  C   UNL     1     -10.983  11.465  32.297  0.00  0.00    +0.131 C 
ATOM     13  C   UNL     1     -14.044  10.127  32.871  0.00  0.00    +0.185 C 
ATOM     14  C   UNL     1     -11.417  11.010  30.915  0.00  0.00    +0.185 C 
BRANCH  12   5
ATOM      3  O   UNL     1      -8.944  13.380  31.682  0.00  0.00    -0.252 OA
ATOM      5  N   UNL     1      -9.562  11.300  32.480  0.00  0.00    -0.292 N 
ATOM      6  N   UNL     1      -7.332  11.849  32.437  0.00  0.00    -0.269 N 
ATOM     16  C   UNL     1      -8.627  12.290  32.152  0.00  0.00    +0.304 C 
ATOM     39  H   UNL     1      -9.227  10.452  32.927  0.00  0.00    +0.151 HD
ATOM     40  H   UNL     1      -7.243  10.913  32.824  0.00  0.00    +0.156 HD
BRANCH   6  18
ATOM     18  C   UNL     1      -6.116  12.548  32.251  0.00  0.00    +0.035 A 
ATOM     22  C   UNL     1      -5.079  12.401  33.171  0.00  0.00    +0.023 A 
ATOM     23  C   UNL     1      -5.955  13.385  31.146  0.00  0.00    +0.023 A 
ATOM     26  C   UNL     1      -3.881  13.092  32.989  0.00  0.00    +0.002 A 
ATOM     27  C   UNL     1      -4.757  14.076  30.964  0.00  0.00    +0.002 A 
ATOM     31  C   UNL     1      -3.720  13.929  31.884  0.00  0.00    +0.000 A 
ENDBRANCH   6  18
ENDBRANCH  12   5
ENDBRANCH   4  11
BRANCH  17  21
ATOM     21  C   UNL     1     -14.946   4.310  31.409  0.00  0.00    +0.001 A 
ATOM     24  C   UNL     1     -15.805   5.018  30.569  0.00  0.00    +0.010 A 
ATOM     25  C   UNL     1     -14.461   3.062  31.018  0.00  0.00    +0.010 A 
ATOM     28  C   UNL     1     -16.179   4.479  29.338  0.00  0.00    +0.009 A 
ATOM     29  C   UNL     1     -14.836   2.523  29.788  0.00  0.00    +0.009 A 
ATOM     30  C   UNL     1     -15.694   3.231  28.948  0.00  0.00    -0.018 A 
BRANCH  30  32
ATOM     32  C   UNL     1     -16.083   2.670  27.672  0.00  0.00    -0.018 A 
ATOM     33  C   UNL     1     -16.458   1.330  27.584  0.00  0.00    +0.008 A 
ATOM     34  C   UNL     1     -16.082   3.471  26.530  0.00  0.00    +0.008 A 
ATOM     35  C   UNL     1     -16.833   0.790  26.354  0.00  0.00    +0.001 A 
ATOM     36  C   UNL     1     -16.456   2.931  25.299  0.00  0.00    +0.001 A 
ATOM     37  C   UNL     1     -16.832   1.590  25.211  0.00  0.00    +0.000 A 
ENDBRANCH  30  32
ENDBRANCH  17  21
TORSDOF 5
ENDMDL
MODEL 8
REMARK VINA RESULT:      -7.7      4.257      7.829
REMARK  Name = 44716814
REMARK  5 active torsions:
REMARK  status: ('A' for Active; 'I' for Inactive)
REMARK    1  A    between atoms: N_4  and  C_11
REMARK    2  A    between atoms: N_5  and  C_12
REMARK    3  A    between atoms: N_6  and  C_18
REMARK    4  A    between atoms: C_17  and  C_21
REMARK    5  A    between atoms: C_30  and  C_32
REMARK                            x       y       z     vdW  Elec       q    Type
REMARK                         _______ _______ _______ _____ _____    ______ ____
ROOT
ATOM      4  N   UNL     1      -3.387 -10.299  12.354  0.00  0.00    -0.306 N 
ATOM      7  N   UNL     1      -4.191 -10.784  14.478  0.00  0.00    -0.214 NA
ATOM      8  N   UNL     1      -1.845 -10.397  14.088  0.00  0.00    -0.223 NA
ATOM     15  C   UNL     1      -3.130 -10.501  13.698  0.00  0.00    +0.216 A 
ATOM     17  C   UNL     1      -3.904 -10.979  15.782  0.00  0.00    +0.076 A 
ATOM     19  C   UNL     1      -1.629 -10.604  15.404  0.00  0.00    +0.116 A 
ATOM     20  C   UNL     1      -2.629 -10.901  16.307  0.00  0.00    +0.048 A 
ATOM     38  H   UNL     1      -2.586 -10.138  11.754  0.00  0.00    +0.149 HD
ENDROOT
BRANCH   4  11
ATOM      1  O   UNL     1      -4.725  -8.766  10.022  0.00  0.00    -0.370 OA
ATOM      2  O   UNL     1      -5.943 -11.637  10.119  0.00  0.00    -0.370 OA
ATOM      9  C   UNL     1      -4.650 -11.106  10.452  0.00  0.00    +0.171 C 
ATOM     10  C   UNL     1      -4.335 -10.022   9.439  0.00  0.00    +0.171 C 
ATOM     11  C   UNL     1      -4.708 -10.374  11.771  0.00  0.00    +0.130 C 
ATOM     12  C   UNL     1      -5.222 -10.351   8.259  0.00  0.00    +0.131 C 
ATOM     13  C   UNL     1      -5.182  -8.990  11.364  0.00  0.00    +0.185 C 
ATOM     14  C   UNL     1      -6.423 -10.998   8.927  0.00  0.00    +0.185 C 
BRANCH  12   5
ATOM      3  O   UNL     1      -5.694 -10.609   5.446  0.00  0.00    -0.252 OA
ATOM      5  N   UNL     1      -4.570 -11.267   7.356  0.00  0.00    -0.292 N 
ATOM      6  N   UNL     1      -4.075 -12.308   5.369  0.00  0.00    -0.269 N 
ATOM     16  C   UNL     1      -4.860 -11.330   5.988  0.00  0.00    +0.304 C 
ATOM     39  H   UNL     1      -3.819 -11.849   7.715  0.00  0.00    +0.151 HD
ATOM     40  H   UNL     1      -3.431 -12.820   5.965  0.00  0.00    +0.156 HD
BRANCH   6  18
ATOM     18  C   UNL     1      -4.067 -12.678   4.004  0.00  0.00    +0.035 A 
ATOM     22  C   UNL     1      -2.902 -12.541   3.251  0.00  0.00    +0.023 A 
ATOM     23  C   UNL     1      -5.227 -13.180   3.410  0.00  0.00    +0.023 A 
ATOM     26  C   UNL     1      -2.893 -12.905   1.904  0.00  0.00    +0.002 A 
ATOM     27  C   UNL     1      -5.218 -13.544   2.063  0.00  0.00    +0.002 A 
ATOM     31  C   UNL     1      -4.052 -13.407   1.311  0.00  0.00    +0.000 A 
ENDBRANCH   6  18
ENDBRANCH  12   5
ENDBRANCH   4  11
BRANCH  17  21
ATOM     21  C   UNL     1      -5.039 -11.283  16.621  0.00  0.00    +0.001 A 
ATOM     24  C   UNL     1      -5.616 -12.552  16.580  0.00  0.00    +0.010 A 
ATOM     25  C   UNL     1      -5.557 -10.309  17.474  0.00  0.00    +0.010 A 
ATOM     28  C   UNL     1      -6.712 -12.847  17.390  0.00  0.00    +0.009 A 
ATOM     29  C   UNL     1      -6.653 -10.604  18.284  0.00  0.00    +0.009 A 
ATOM     30  C   UNL     1      -7.230 -11.873  18.243  0.00  0.00    -0.018 A 
BRANCH  30  32
ATOM     32  C   UNL     1      -8.367 -12.178  19.084  0.00  0.00    -0.018 A 
ATOM     33  C   UNL     1      -9.338 -11.205  19.325  0.00  0.00    +0.008 A 
ATOM     34  C   UNL     1      -8.493 -13.445  19.654  0.00  0.00    +0.008 A 
ATOM     35  C   UNL     1     -10.434 -11.500  20.136  0.00  0.00    +0.001 A 
ATOM     36  C   UNL     1      -9.588 -13.739  20.466  0.00  0.00    +0.001 A 
ATOM     37  C   UNL     1     -10.560 -12.766  20.707  0.00  0.00    +0.000 A 
ENDBRANCH  30  32
ENDBRANCH  17  21
TORSDOF 5
ENDMDL
MODEL 9
REMARK VINA RESULT:      -7.6     22.664     25.009
REMARK  Name = 44716814
REMARK  5 active torsions:
REMARK  status: ('A' for Active; 'I' for Inactive)
REMARK    1  A    between atoms: N_4  and  C_11
REMARK    2  A    between atoms: N_5  and  C_12
REMARK    3  A    between atoms: N_6  and  C_18
REMARK    4  A    between atoms: C_17  and  C_21
REMARK    5  A    between atoms: C_30  and  C_32
REMARK                            x       y       z     vdW  Elec       q    Type
REMARK                         _______ _______ _______ _____ _____    ______ ____
ROOT
ATOM      4  N   UNL     1       5.768  12.843   2.257  0.00  0.00    -0.306 N 
ATOM      7  N   UNL     1       6.925  10.936   2.902  0.00  0.00    -0.214 NA
ATOM      8  N   UNL     1       7.033  11.758   0.640  0.00  0.00    -0.223 NA
ATOM     15  C   UNL     1       6.613  11.801   1.919  0.00  0.00    +0.216 A 
ATOM     17  C   UNL     1       7.748   9.930   2.537  0.00  0.00    +0.076 A 
ATOM     19  C   UNL     1       7.852  10.727   0.343  0.00  0.00    +0.116 A 
ATOM     20  C   UNL     1       8.247   9.774   1.259  0.00  0.00    +0.048 A 
ATOM     38  H   UNL     1       5.488  13.467   1.509  0.00  0.00    +0.149 HD
ENDROOT
BRANCH   4  11
ATOM      1  O   UNL     1       3.262  14.339   3.287  0.00  0.00    -0.370 OA
ATOM      2  O   UNL     1       3.799  11.925   5.190  0.00  0.00    -0.370 OA
ATOM      9  C   UNL     1       4.027  12.141   3.788  0.00  0.00    +0.171 C 
ATOM     10  C   UNL     1       2.862  12.958   3.263  0.00  0.00    +0.171 C 
ATOM     11  C   UNL     1       5.227  13.036   3.585  0.00  0.00    +0.130 C 
ATOM     12  C   UNL     1       1.759  12.713   4.269  0.00  0.00    +0.131 C 
ATOM     13  C   UNL     1       4.631  14.427   3.711  0.00  0.00    +0.185 C 
ATOM     14  C   UNL     1       2.536  12.498   5.556  0.00  0.00    +0.185 C 
BRANCH  12   5
ATOM      3  O   UNL     1      -0.823  12.004   5.285  0.00  0.00    -0.252 OA
ATOM      5  N   UNL     1       0.988  11.545   3.922  0.00  0.00    -0.292 N 
ATOM      6  N   UNL     1      -0.777  10.075   3.948  0.00  0.00    -0.269 N 
ATOM     16  C   UNL     1      -0.273  11.270   4.467  0.00  0.00    +0.304 C 
ATOM     39  H   UNL     1       1.345  10.925   3.202  0.00  0.00    +0.151 HD
ATOM     40  H   UNL     1      -0.191   9.585   3.277  0.00  0.00    +0.156 HD
BRANCH   6  18
ATOM     18  C   UNL     1      -2.013   9.453   4.242  0.00  0.00    +0.035 A 
ATOM     22  C   UNL     1      -2.089   8.493   5.250  0.00  0.00    +0.023 A 
ATOM     23  C   UNL     1      -3.158   9.802   3.524  0.00  0.00    +0.023 A 
ATOM     26  C   UNL     1      -3.307   7.879   5.540  0.00  0.00    +0.002 A 
ATOM     27  C   UNL     1      -4.377   9.188   3.814  0.00  0.00    +0.002 A 
ATOM     31  C   UNL     1      -4.452   8.228   4.822  0.00  0.00    +0.000 A 
ENDBRANCH   6  18
ENDBRANCH  12   5
ENDBRANCH   4  11
BRANCH  17  21
ATOM     21  C   UNL     1       8.084   9.000   3.588  0.00  0.00    +0.001 A 
ATOM     24  C   UNL     1       7.826   9.328   4.919  0.00  0.00    +0.010 A 
ATOM     25  C   UNL     1       8.666   7.772   3.273  0.00  0.00    +0.010 A 
ATOM     28  C   UNL     1       8.151   8.429   5.934  0.00  0.00    +0.009 A 
ATOM     29  C   UNL     1       8.991   6.874   4.289  0.00  0.00    +0.009 A 
ATOM     30  C   UNL     1       8.733   7.202   5.619  0.00  0.00    -0.018 A 
BRANCH  30  32
ATOM     32  C   UNL     1       9.070   6.269   6.673  0.00  0.00    -0.018 A 
ATOM     33  C   UNL     1       8.878   6.625   8.008  0.00  0.00    +0.008 A 
ATOM     34  C   UNL     1       9.588   5.014   6.354  0.00  0.00    +0.008 A 
ATOM     35  C   UNL     1       9.203   5.726   9.023  0.00  0.00    +0.001 A 
ATOM     36  C   UNL     1       9.914   4.116   7.369  0.00  0.00    +0.001 A 
ATOM     37  C   UNL     1       9.721   4.471   8.705  0.00  0.00    +0.000 A 
ENDBRANCH  30  32
ENDBRANCH  17  21
TORSDOF 5
ENDMDL
MODEL 10
REMARK VINA RESULT:      -7.6     32.595     36.669
REMARK  Name = 44716814
REMARK  5 active torsions:
REMARK  status: ('A' for Active; 'I' for Inactive)
REMARK    1  A    between atoms: N_4  and  C_11
REMARK    2  A    between atoms: N_5  and  C_12
REMARK    3  A    between atoms: N_6  and  C_18
REMARK    4  A    between atoms: C_17  and  C_21
REMARK    5  A    between atoms: C_30  and  C_32
REMARK                            x       y       z     vdW  Elec       q    Type
REMARK                         _______ _______ _______ _____ _____    ______ ____
ROOT
ATOM      4  N   UNL     1      -6.863  12.367  34.302  0.00  0.00    -0.306 N 
ATOM      7  N   UNL     1      -5.241  11.232  35.517  0.00  0.00    -0.214 NA
ATOM      8  N   UNL     1      -4.645  12.958  33.945  0.00  0.00    -0.223 NA
ATOM     15  C   UNL     1      -5.525  12.178  34.602  0.00  0.00    +0.216 A 
ATOM     17  C   UNL     1      -3.928  11.072  35.782  0.00  0.00    +0.076 A 
ATOM     19  C   UNL     1      -3.350  12.745  34.259  0.00  0.00    +0.116 A 
ATOM     20  C   UNL     1      -2.928  11.807  35.178  0.00  0.00    +0.048 A 
ATOM     38  H   UNL     1      -7.078  13.040  33.575  0.00  0.00    +0.149 HD
ENDROOT
BRANCH   4  11
ATOM      1  O   UNL     1      -9.933  12.751  34.319  0.00  0.00    -0.370 OA
ATOM      2  O   UNL     1      -9.340   9.693  34.485  0.00  0.00    -0.370 OA
ATOM      9  C   UNL     1      -8.654  10.795  33.869  0.00  0.00    +0.171 C 
ATOM     10  C   UNL     1      -9.713  11.736  33.325  0.00  0.00    +0.171 C 
ATOM     11  C   UNL     1      -7.935  11.614  34.914  0.00  0.00    +0.130 C 
ATOM     12  C   UNL     1     -10.940  10.865  33.182  0.00  0.00    +0.131 C 
ATOM     13  C   UNL     1      -9.021  12.553  35.408  0.00  0.00    +0.185 C 
ATOM     14  C   UNL     1     -10.754   9.856  34.301  0.00  0.00    +0.185 C 
BRANCH  12   5
ATOM      3  O   UNL     1     -11.791  12.025  30.705  0.00  0.00    -0.252 OA
ATOM      5  N   UNL     1     -10.973  10.218  31.893  0.00  0.00    -0.292 N 
ATOM      6  N   UNL     1     -11.327   9.987  29.635  0.00  0.00    -0.269 N 
ATOM     16  C   UNL     1     -11.405  10.859  30.726  0.00  0.00    +0.304 C 
ATOM     39  H   UNL     1     -10.606   9.274  31.816  0.00  0.00    +0.151 HD
ATOM     40  H   UNL     1     -10.986   9.048  29.825  0.00  0.00    +0.156 HD
BRANCH   6  18
ATOM     18  C   UNL     1     -11.669  10.249  28.288  0.00  0.00    +0.035 A 
ATOM     22  C   UNL     1     -10.667  10.386  27.329  0.00  0.00    +0.023 A 
ATOM     23  C   UNL     1     -13.010  10.370  27.919  0.00  0.00    +0.023 A 
ATOM     26  C   UNL     1     -11.002  10.647  26.000  0.00  0.00    +0.002 A 
ATOM     27  C   UNL     1     -13.345  10.631  26.591  0.00  0.00    +0.002 A 
ATOM     31  C   UNL     1     -12.343  10.768  25.631  0.00  0.00    +0.000 A 
ENDBRANCH   6  18
ENDBRANCH  12   5
ENDBRANCH   4  11
BRANCH  17  21
ATOM     21  C   UNL     1      -3.620  10.057  36.762  0.00  0.00    +0.001 A 
ATOM     24  C   UNL     1      -4.509   9.802  37.805  0.00  0.00    +0.010 A 
ATOM     25  C   UNL     1      -2.433   9.332  36.665  0.00  0.00    +0.010 A 
ATOM     28  C   UNL     1      -4.212   8.822  38.752  0.00  0.00    +0.009 A 
ATOM     29  C   UNL     1      -2.135   8.352  37.612  0.00  0.00    +0.009 A 
ATOM     30  C   UNL     1      -3.025   8.096  38.655  0.00  0.00    -0.018 A 
BRANCH  30  32
ATOM     32  C   UNL     1      -2.716   7.080  39.637  0.00  0.00    -0.018 A 
ATOM     33  C   UNL     1      -3.436   7.020  40.830  0.00  0.00    +0.008 A 
ATOM     34  C   UNL     1      -1.697   6.160  39.391  0.00  0.00    +0.008 A 
ATOM     35  C   UNL     1      -3.138   6.040  41.776  0.00  0.00    +0.001 A 
ATOM     36  C   UNL     1      -1.398   5.181  40.338  0.00  0.00    +0.001 A 
ATOM     37  C   UNL     1      -2.119   5.120  41.531  0.00  0.00    +0.000 A 
ENDBRANCH  30  32
ENDBRANCH  17  21
TORSDOF 5
ENDMDL
