MODEL 1
REMARK VINA RESULT:      -8.6      0.000      0.000
REMARK  Name = 45360706
REMARK  8 active torsions:
REMARK  status: ('A' for Active; 'I' for Inactive)
REMARK    1  A    between atoms: O_4  and  C_32
REMARK    2  A    between atoms: N_7  and  C_13
REMARK    3  A    between atoms: N_7  and  C_20
REMARK    4  A    between atoms: C_12  and  C_17
REMARK    5  A    between atoms: C_17  and  C_19
REMARK    6  A    between atoms: C_19  and  C_21
REMARK    7  A    between atoms: C_20  and  C_24
REMARK    8  A    between atoms: C_29  and  C_32
REMARK                            x       y       z     vdW  Elec       q    Type
REMARK                         _______ _______ _______ _____ _____    ______ ____
ROOT
ATOM      1  O   UNL     1      11.829   7.469  17.791  0.00  0.00    -0.274 OA
ATOM      5  N   UNL     1      13.830   6.747  20.758  0.00  0.00    -0.286 NA
ATOM      6  N   UNL     1      14.059   7.742  18.144  0.00  0.00    -0.313 N 
ATOM     11  C   UNL     1      12.667   6.612  19.871  0.00  0.00    +0.145 C 
ATOM     12  C   UNL     1      15.117   6.665  20.077  0.00  0.00    +0.075 C 
ATOM     13  C   UNL     1      12.127   7.675  21.987  0.00  0.00    +0.070 C 
ATOM     14  C   UNL     1      11.497   7.197  20.677  0.00  0.00    +0.048 C 
ATOM     15  C   UNL     1      13.586   7.905  21.615  0.00  0.00    +0.104 C 
ATOM     16  C   UNL     1      15.226   7.727  18.995  0.00  0.00    +0.123 C 
ATOM     18  C   UNL     1      12.807   7.327  18.531  0.00  0.00    +0.230 C 
ATOM     36  H   UNL     1      14.143   8.198  17.241  0.00  0.00    +0.149 HD
ENDROOT
BRANCH  13   7
ATOM      7  N   UNL     1      11.476   8.854  22.536  0.00  0.00    -0.305 NA
ATOM     37  H   UNL     1      10.506   8.627  22.757  0.00  0.00    +0.123 HD
BRANCH   7  20
ATOM     20  C   UNL     1      11.496   9.954  21.582  0.00  0.00    +0.156 C 
BRANCH  20  24
ATOM      3  O   UNL     1      11.121  11.256  23.605  0.00  0.00    -0.461 OA
ATOM     24  C   UNL     1      11.259  11.282  22.252  0.00  0.00    +0.119 A 
ATOM     27  C   UNL     1      11.143  12.568  21.780  0.00  0.00    +0.046 A 
ATOM     29  C   UNL     1      10.917  12.540  23.999  0.00  0.00    +0.131 A 
ATOM     30  C   UNL     1      10.922  13.386  22.913  0.00  0.00    +0.047 A 
BRANCH  29  32
ATOM     32  C   UNL     1      10.740  12.757  25.441  0.00  0.00    +0.230 C 
BRANCH  32   4
ATOM      4  O   UNL     1      12.002  12.687  26.110  0.00  0.00    -0.387 OA
ATOM     38  H   UNL     1      11.942  11.961  26.753  0.00  0.00    +0.210 HD
ENDBRANCH  32   4
ENDBRANCH  29  32
ENDBRANCH  20  24
ENDBRANCH   7  20
ENDBRANCH  13   7
BRANCH  12  17
ATOM     17  C   UNL     1      16.303   6.737  21.039  0.00  0.00    +0.029 C 
BRANCH  17  19
ATOM     19  C   UNL     1      17.613   7.044  20.326  0.00  0.00    +0.097 C 
BRANCH  19  21
ATOM      2  O   UNL     1      18.692   8.274  22.048  0.00  0.00    -0.276 OA
ATOM      8  N   UNL     1      19.749   6.332  21.332  0.00  0.00    -0.298 N 
ATOM      9  N   UNL     1      21.810   4.316  21.598  0.00  0.00    -0.312 N 
ATOM     10  N   UNL     1      23.553   3.012  20.685  0.00  0.00    -0.240 NA
ATOM     21  C   UNL     1      18.726   7.280  21.317  0.00  0.00    +0.216 C 
ATOM     22  C   UNL     1      19.783   5.148  20.470  0.00  0.00    +0.126 C 
ATOM     23  C   UNL     1      20.867   6.492  22.258  0.00  0.00    +0.126 C 
ATOM     25  C   UNL     1      21.193   4.581  20.297  0.00  0.00    +0.125 C 
ATOM     26  C   UNL     1      21.409   5.148  22.737  0.00  0.00    +0.125 C 
ATOM     28  C   UNL     1      22.777   3.325  21.747  0.00  0.00    +0.121 A 
ATOM     31  C   UNL     1      22.880   2.720  22.989  0.00  0.00    +0.043 A 
ATOM     33  C   UNL     1      23.842   1.729  23.152  0.00  0.00    +0.005 A 
ATOM     34  C   UNL     1      24.477   2.044  20.882  0.00  0.00    +0.113 A 
ATOM     35  C   UNL     1      24.659   1.378  22.084  0.00  0.00    +0.020 A 
ENDBRANCH  19  21
ENDBRANCH  17  19
ENDBRANCH  12  17
TORSDOF 8
ENDMDL
MODEL 2
REMARK VINA RESULT:      -7.6     27.587     30.265
REMARK  Name = 45360706
REMARK  8 active torsions:
REMARK  status: ('A' for Active; 'I' for Inactive)
REMARK    1  A    between atoms: O_4  and  C_32
REMARK    2  A    between atoms: N_7  and  C_13
REMARK    3  A    between atoms: N_7  and  C_20
REMARK    4  A    between atoms: C_12  and  C_17
REMARK    5  A    between atoms: C_17  and  C_19
REMARK    6  A    between atoms: C_19  and  C_21
REMARK    7  A    between atoms: C_20  and  C_24
REMARK    8  A    between atoms: C_29  and  C_32
REMARK                            x       y       z     vdW  Elec       q    Type
REMARK                         _______ _______ _______ _____ _____    ______ ____
ROOT
ATOM      1  O   UNL     1      -5.059 -13.810  17.514  0.00  0.00    -0.274 OA
ATOM      5  N   UNL     1      -3.742 -10.771  15.978  0.00  0.00    -0.286 NA
ATOM      6  N   UNL     1      -3.936 -13.538  15.555  0.00  0.00    -0.313 N 
ATOM     11  C   UNL     1      -4.219 -11.600  17.092  0.00  0.00    +0.145 C 
ATOM     12  C   UNL     1      -2.767 -11.428  15.115  0.00  0.00    +0.075 C 
ATOM     13  C   UNL     1      -5.712  -9.757  16.576  0.00  0.00    +0.070 C 
ATOM     14  C   UNL     1      -5.527 -10.929  17.540  0.00  0.00    +0.048 C 
ATOM     15  C   UNL     1      -4.919 -10.179  15.347  0.00  0.00    +0.104 C 
ATOM     16  C   UNL     1      -3.335 -12.712  14.534  0.00  0.00    +0.123 C 
ATOM     18  C   UNL     1      -4.461 -13.064  16.733  0.00  0.00    +0.230 C 
ATOM     36  H   UNL     1      -4.086 -14.519  15.337  0.00  0.00    +0.149 HD
ENDROOT
BRANCH  13   7
ATOM      7  N   UNL     1      -7.109  -9.466  16.293  0.00  0.00    -0.305 NA
ATOM     37  H   UNL     1      -7.185  -8.520  15.920  0.00  0.00    +0.123 HD
BRANCH   7  20
ATOM     20  C   UNL     1      -7.918  -9.561  17.502  0.00  0.00    +0.156 C 
BRANCH  20  24
ATOM      3  O   UNL     1      -9.333  -7.864  16.481  0.00  0.00    -0.461 OA
ATOM     24  C   UNL     1      -9.274  -8.932  17.319  0.00  0.00    +0.119 A 
ATOM     27  C   UNL     1     -10.517  -9.211  17.835  0.00  0.00    +0.046 A 
ATOM     29  C   UNL     1     -10.629  -7.457  16.462  0.00  0.00    +0.131 A 
ATOM     30  C   UNL     1     -11.398  -8.254  17.279  0.00  0.00    +0.047 A 
BRANCH  29  32
ATOM     32  C   UNL     1     -10.935  -6.299  15.610  0.00  0.00    +0.230 C 
BRANCH  32   4
ATOM      4  O   UNL     1      -9.738  -5.578  15.308  0.00  0.00    -0.387 OA
ATOM     38  H   UNL     1      -9.082  -5.823  15.982  0.00  0.00    +0.210 HD
ENDBRANCH  32   4
ENDBRANCH  29  32
ENDBRANCH  20  24
ENDBRANCH   7  20
ENDBRANCH  13   7
BRANCH  12  17
ATOM     17  C   UNL     1      -2.239 -10.511  14.010  0.00  0.00    +0.029 C 
BRANCH  17  19
ATOM     19  C   UNL     1      -2.292 -11.166  12.637  0.00  0.00    +0.097 C 
BRANCH  19  21
ATOM      2  O   UNL     1      -1.174  -9.617  11.225  0.00  0.00    -0.276 OA
ATOM      8  N   UNL     1      -3.474  -9.811  10.948  0.00  0.00    -0.298 N 
ATOM      9  N   UNL     1      -5.916  -9.233   9.505  0.00  0.00    -0.312 N 
ATOM     10  N   UNL     1      -8.158  -8.497   9.452  0.00  0.00    -0.240 NA
ATOM     21  C   UNL     1      -2.251 -10.129  11.541  0.00  0.00    +0.216 C 
ATOM     22  C   UNL     1      -4.749 -10.427  11.318  0.00  0.00    +0.126 C 
ATOM     23  C   UNL     1      -3.520  -8.813   9.883  0.00  0.00    +0.126 C 
ATOM     25  C   UNL     1      -5.956  -9.571  10.929  0.00  0.00    +0.125 C 
ATOM     26  C   UNL     1      -4.605  -9.122   8.856  0.00  0.00    +0.125 C 
ATOM     28  C   UNL     1      -7.086  -8.987   8.791  0.00  0.00    +0.121 A 
ATOM     31  C   UNL     1      -7.070  -9.263   7.433  0.00  0.00    +0.043 A 
ATOM     33  C   UNL     1      -8.231  -9.022   6.707  0.00  0.00    +0.005 A 
ATOM     34  C   UNL     1      -9.268  -8.275   8.713  0.00  0.00    +0.113 A 
ATOM     35  C   UNL     1      -9.356  -8.519   7.351  0.00  0.00    +0.020 A 
ENDBRANCH  19  21
ENDBRANCH  17  19
ENDBRANCH  12  17
TORSDOF 8
ENDMDL
MODEL 3
REMARK VINA RESULT:      -7.5      2.901      4.083
REMARK  Name = 45360706
REMARK  8 active torsions:
REMARK  status: ('A' for Active; 'I' for Inactive)
REMARK    1  A    between atoms: O_4  and  C_32
REMARK    2  A    between atoms: N_7  and  C_13
REMARK    3  A    between atoms: N_7  and  C_20
REMARK    4  A    between atoms: C_12  and  C_17
REMARK    5  A    between atoms: C_17  and  C_19
REMARK    6  A    between atoms: C_19  and  C_21
REMARK    7  A    between atoms: C_20  and  C_24
REMARK    8  A    between atoms: C_29  and  C_32
REMARK                            x       y       z     vdW  Elec       q    Type
REMARK                         _______ _______ _______ _____ _____    ______ ____
ROOT
ATOM      1  O   UNL     1      12.678   6.538  20.067  0.00  0.00    -0.274 OA
ATOM      5  N   UNL     1      15.431   8.535  21.394  0.00  0.00    -0.286 NA
ATOM      6  N   UNL     1      14.922   6.272  19.815  0.00  0.00    -0.313 N 
ATOM     11  C   UNL     1      14.055   8.024  21.356  0.00  0.00    +0.145 C 
ATOM     12  C   UNL     1      16.457   7.504  21.277  0.00  0.00    +0.075 C 
ATOM     13  C   UNL     1      14.203  10.389  20.828  0.00  0.00    +0.070 C 
ATOM     14  C   UNL     1      13.197   9.251  21.009  0.00  0.00    +0.048 C 
ATOM     15  C   UNL     1      15.496   9.667  20.474  0.00  0.00    +0.104 C 
ATOM     16  C   UNL     1      16.286   6.713  19.991  0.00  0.00    +0.123 C 
ATOM     18  C   UNL     1      13.824   6.903  20.346  0.00  0.00    +0.230 C 
ATOM     36  H   UNL     1      14.755   5.513  19.160  0.00  0.00    +0.149 HD
ENDROOT
BRANCH  13   7
ATOM      7  N   UNL     1      13.789  11.362  19.828  0.00  0.00    -0.305 NA
ATOM     37  H   UNL     1      12.812  11.197  19.586  0.00  0.00    +0.123 HD
BRANCH   7  20
ATOM     20  C   UNL     1      14.598  11.248  18.622  0.00  0.00    +0.156 C 
BRANCH  20  24
ATOM      3  O   UNL     1      12.817   9.789  17.832  0.00  0.00    -0.461 OA
ATOM     24  C   UNL     1      13.826  10.631  17.486  0.00  0.00    +0.119 A 
ATOM     27  C   UNL     1      13.921  10.734  16.118  0.00  0.00    +0.046 A 
ATOM     29  C   UNL     1      12.261   9.351  16.672  0.00  0.00    +0.131 A 
ATOM     30  C   UNL     1      12.904   9.904  15.589  0.00  0.00    +0.047 A 
BRANCH  29  32
ATOM     32  C   UNL     1      11.134   8.418  16.803  0.00  0.00    +0.230 C 
BRANCH  32   4
ATOM      4  O   UNL     1      11.580   7.179  17.362  0.00  0.00    -0.387 OA
ATOM     38  H   UNL     1      11.711   7.329  18.313  0.00  0.00    +0.210 HD
ENDBRANCH  32   4
ENDBRANCH  29  32
ENDBRANCH  20  24
ENDBRANCH   7  20
ENDBRANCH  13   7
BRANCH  12  17
ATOM     17  C   UNL     1      17.875   8.064  21.393  0.00  0.00    +0.029 C 
BRANCH  17  19
ATOM     19  C   UNL     1      18.941   7.010  21.125  0.00  0.00    +0.097 C 
BRANCH  19  21
ATOM      2  O   UNL     1      19.885   7.787  23.162  0.00  0.00    -0.276 OA
ATOM      8  N   UNL     1      20.907   5.951  22.170  0.00  0.00    -0.298 N 
ATOM      9  N   UNL     1      22.811   3.770  22.219  0.00  0.00    -0.312 N 
ATOM     10  N   UNL     1      24.572   2.544  21.236  0.00  0.00    -0.240 NA
ATOM     21  C   UNL     1      19.946   6.959  22.249  0.00  0.00    +0.216 C 
ATOM     22  C   UNL     1      20.973   4.963  21.091  0.00  0.00    +0.126 C 
ATOM     23  C   UNL     1      21.920   5.837  23.216  0.00  0.00    +0.126 C 
ATOM     25  C   UNL     1      22.360   4.335  20.946  0.00  0.00    +0.125 C 
ATOM     26  C   UNL     1      22.331   4.387  23.460  0.00  0.00    +0.125 C 
ATOM     28  C   UNL     1      23.699   2.698  22.256  0.00  0.00    +0.121 A 
ATOM     31  C   UNL     1      23.628   1.853  23.352  0.00  0.00    +0.043 A 
ATOM     33  C   UNL     1      24.509   0.778  23.402  0.00  0.00    +0.005 A 
ATOM     34  C   UNL     1      25.413   1.488  21.320  0.00  0.00    +0.113 A 
ATOM     35  C   UNL     1      25.422   0.585  22.371  0.00  0.00    +0.020 A 
ENDBRANCH  19  21
ENDBRANCH  17  19
ENDBRANCH  12  17
TORSDOF 8
ENDMDL
MODEL 4
REMARK VINA RESULT:      -7.5      2.538     11.861
REMARK  Name = 45360706
REMARK  8 active torsions:
REMARK  status: ('A' for Active; 'I' for Inactive)
REMARK    1  A    between atoms: O_4  and  C_32
REMARK    2  A    between atoms: N_7  and  C_13
REMARK    3  A    between atoms: N_7  and  C_20
REMARK    4  A    between atoms: C_12  and  C_17
REMARK    5  A    between atoms: C_17  and  C_19
REMARK    6  A    between atoms: C_19  and  C_21
REMARK    7  A    between atoms: C_20  and  C_24
REMARK    8  A    between atoms: C_29  and  C_32
REMARK                            x       y       z     vdW  Elec       q    Type
REMARK                         _______ _______ _______ _____ _____    ______ ____
ROOT
ATOM      1  O   UNL     1      20.464   8.596  23.141  0.00  0.00    -0.274 OA
ATOM      5  N   UNL     1      18.347   6.249  21.315  0.00  0.00    -0.286 NA
ATOM      6  N   UNL     1      18.650   8.991  21.827  0.00  0.00    -0.313 N 
ATOM     11  C   UNL     1      19.300   6.647  22.358  0.00  0.00    +0.145 C 
ATOM     12  C   UNL     1      17.188   7.126  21.195  0.00  0.00    +0.075 C 
ATOM     13  C   UNL     1      20.277   5.175  20.693  0.00  0.00    +0.070 C 
ATOM     14  C   UNL     1      20.602   5.918  21.990  0.00  0.00    +0.048 C 
ATOM     15  C   UNL     1      19.120   5.972  20.107  0.00  0.00    +0.104 C 
ATOM     16  C   UNL     1      17.618   8.557  20.914  0.00  0.00    +0.123 C 
ATOM     18  C   UNL     1      19.536   8.151  22.458  0.00  0.00    +0.230 C 
ATOM     36  H   UNL     1      18.805   9.990  21.919  0.00  0.00    +0.149 HD
ENDROOT
BRANCH  13   7
ATOM      7  N   UNL     1      21.418   5.065  19.797  0.00  0.00    -0.305 NA
ATOM     37  H   UNL     1      21.482   4.107  19.452  0.00  0.00    +0.123 HD
BRANCH   7  20
ATOM     20  C   UNL     1      22.658   5.400  20.487  0.00  0.00    +0.156 C 
BRANCH  20  24
ATOM      3  O   UNL     1      23.436   3.176  21.096  0.00  0.00    -0.461 OA
ATOM     24  C   UNL     1      23.678   4.299  20.370  0.00  0.00    +0.119 A 
ATOM     27  C   UNL     1      24.851   4.174  19.663  0.00  0.00    +0.046 A 
ATOM     29  C   UNL     1      24.466   2.324  20.849  0.00  0.00    +0.131 A 
ATOM     30  C   UNL     1      25.363   2.892  19.973  0.00  0.00    +0.047 A 
BRANCH  29  32
ATOM     32  C   UNL     1      24.415   1.026  21.535  0.00  0.00    +0.230 C 
BRANCH  32   4
ATOM      4  O   UNL     1      23.873   1.182  22.849  0.00  0.00    -0.387 OA
ATOM     38  H   UNL     1      24.073   0.366  23.336  0.00  0.00    +0.210 HD
ENDBRANCH  32   4
ENDBRANCH  29  32
ENDBRANCH  20  24
ENDBRANCH   7  20
ENDBRANCH  13   7
BRANCH  12  17
ATOM     17  C   UNL     1      16.182   6.640  20.149  0.00  0.00    +0.029 C 
BRANCH  17  19
ATOM     19  C   UNL     1      15.363   7.779  19.557  0.00  0.00    +0.097 C 
BRANCH  19  21
ATOM      2  O   UNL     1      13.265   6.668  19.633  0.00  0.00    -0.276 OA
ATOM      8  N   UNL     1      13.389   8.737  20.683  0.00  0.00    -0.298 N 
ATOM      9  N   UNL     1      12.261  10.799  22.373  0.00  0.00    -0.312 N 
ATOM     10  N   UNL     1      11.697  13.055  22.782  0.00  0.00    -0.240 NA
ATOM     21  C   UNL     1      13.912   7.667  19.957  0.00  0.00    +0.216 C 
ATOM     22  C   UNL     1      14.161   9.918  21.075  0.00  0.00    +0.126 C 
ATOM     23  C   UNL     1      11.990   8.708  21.103  0.00  0.00    +0.126 C 
ATOM     25  C   UNL     1      13.279  11.131  21.374  0.00  0.00    +0.125 C 
ATOM     26  C   UNL     1      11.780   9.416  22.439  0.00  0.00    +0.125 C 
ATOM     28  C   UNL     1      11.736  11.775  23.216  0.00  0.00    +0.121 A 
ATOM     31  C   UNL     1      11.281  11.363  24.459  0.00  0.00    +0.043 A 
ATOM     33  C   UNL     1      10.754  12.327  25.311  0.00  0.00    +0.005 A 
ATOM     34  C   UNL     1      11.178  13.964  23.638  0.00  0.00    +0.113 A 
ATOM     35  C   UNL     1      10.698  13.654  24.901  0.00  0.00    +0.020 A 
ENDBRANCH  19  21
ENDBRANCH  17  19
ENDBRANCH  12  17
TORSDOF 8
ENDMDL
MODEL 5
REMARK VINA RESULT:      -7.4     27.874     30.121
REMARK  Name = 45360706
REMARK  8 active torsions:
REMARK  status: ('A' for Active; 'I' for Inactive)
REMARK    1  A    between atoms: O_4  and  C_32
REMARK    2  A    between atoms: N_7  and  C_13
REMARK    3  A    between atoms: N_7  and  C_20
REMARK    4  A    between atoms: C_12  and  C_17
REMARK    5  A    between atoms: C_17  and  C_19
REMARK    6  A    between atoms: C_19  and  C_21
REMARK    7  A    between atoms: C_20  and  C_24
REMARK    8  A    between atoms: C_29  and  C_32
REMARK                            x       y       z     vdW  Elec       q    Type
REMARK                         _______ _______ _______ _____ _____    ______ ____
ROOT
ATOM      1  O   UNL     1      -8.047 -12.462  19.344  0.00  0.00    -0.274 OA
ATOM      5  N   UNL     1      -5.597 -10.380  17.613  0.00  0.00    -0.286 NA
ATOM      6  N   UNL     1      -6.102 -13.048  18.321  0.00  0.00    -0.313 N 
ATOM     11  C   UNL     1      -6.696 -10.642  18.552  0.00  0.00    +0.145 C 
ATOM     12  C   UNL     1      -4.479 -11.309  17.725  0.00  0.00    +0.075 C 
ATOM     13  C   UNL     1      -7.375  -9.296  16.649  0.00  0.00    +0.070 C 
ATOM     14  C   UNL     1      -7.901  -9.901  17.952  0.00  0.00    +0.048 C 
ATOM     15  C   UNL     1      -6.194 -10.188  16.294  0.00  0.00    +0.104 C 
ATOM     16  C   UNL     1      -4.941 -12.742  17.517  0.00  0.00    +0.123 C 
ATOM     18  C   UNL     1      -7.018 -12.120  18.753  0.00  0.00    +0.230 C 
ATOM     36  H   UNL     1      -6.318 -14.028  18.479  0.00  0.00    +0.149 HD
ENDROOT
BRANCH  13   7
ATOM      7  N   UNL     1      -8.385  -9.227  15.604  0.00  0.00    -0.305 NA
ATOM     37  H   UNL     1      -8.291  -8.342  15.106  0.00  0.00    +0.123 HD
BRANCH   7  20
ATOM     20  C   UNL     1      -9.726  -9.308  16.168  0.00  0.00    +0.156 C 
BRANCH  20  24
ATOM      3  O   UNL     1     -10.980  -7.707  14.830  0.00  0.00    -0.461 OA
ATOM     24  C   UNL     1     -10.463  -8.000  16.053  0.00  0.00    +0.119 A 
ATOM     27  C   UNL     1     -10.738  -6.993  16.947  0.00  0.00    +0.046 A 
ATOM     29  C   UNL     1     -11.593  -6.500  14.947  0.00  0.00    +0.131 A 
ATOM     30  C   UNL     1     -11.473  -6.019  16.231  0.00  0.00    +0.047 A 
BRANCH  29  32
ATOM     32  C   UNL     1     -12.234  -5.977  13.733  0.00  0.00    +0.230 C 
BRANCH  32   4
ATOM      4  O   UNL     1     -11.865  -4.610  13.529  0.00  0.00    -0.387 OA
ATOM     38  H   UNL     1     -11.935  -4.167  14.391  0.00  0.00    +0.210 HD
ENDBRANCH  32   4
ENDBRANCH  29  32
ENDBRANCH  20  24
ENDBRANCH   7  20
ENDBRANCH  13   7
BRANCH  12  17
ATOM     17  C   UNL     1      -3.324 -10.963  16.783  0.00  0.00    +0.029 C 
BRANCH  17  19
ATOM     19  C   UNL     1      -3.261 -11.889  15.576  0.00  0.00    +0.097 C 
BRANCH  19  21
ATOM      2  O   UNL     1      -1.223 -11.124  14.624  0.00  0.00    -0.276 OA
ATOM      8  N   UNL     1      -3.132 -10.916  13.314  0.00  0.00    -0.298 N 
ATOM      9  N   UNL     1      -4.431 -10.326  10.795  0.00  0.00    -0.312 N 
ATOM     10  N   UNL     1      -6.079  -9.198   9.535  0.00  0.00    -0.240 NA
ATOM     21  C   UNL     1      -2.438 -11.278  14.468  0.00  0.00    +0.216 C 
ATOM     22  C   UNL     1      -4.571 -11.108  13.128  0.00  0.00    +0.126 C 
ATOM     23  C   UNL     1      -2.408 -10.313  12.197  0.00  0.00    +0.126 C 
ATOM     25  C   UNL     1      -5.159 -10.187  12.058  0.00  0.00    +0.125 C 
ATOM     26  C   UNL     1      -3.014 -10.697  10.850  0.00  0.00    +0.125 C 
ATOM     28  C   UNL     1      -5.055 -10.080   9.574  0.00  0.00    +0.121 A 
ATOM     31  C   UNL     1      -4.576 -10.763   8.468  0.00  0.00    +0.043 A 
ATOM     33  C   UNL     1      -5.190 -10.527   7.242  0.00  0.00    +0.005 A 
ATOM     34  C   UNL     1      -6.649  -8.994   8.326  0.00  0.00    +0.113 A 
ATOM     35  C   UNL     1      -6.247  -9.627   7.161  0.00  0.00    +0.020 A 
ENDBRANCH  19  21
ENDBRANCH  17  19
ENDBRANCH  12  17
TORSDOF 8
ENDMDL
MODEL 6
REMARK VINA RESULT:      -7.4      2.090      2.585
REMARK  Name = 45360706
REMARK  8 active torsions:
REMARK  status: ('A' for Active; 'I' for Inactive)
REMARK    1  A    between atoms: O_4  and  C_32
REMARK    2  A    between atoms: N_7  and  C_13
REMARK    3  A    between atoms: N_7  and  C_20
REMARK    4  A    between atoms: C_12  and  C_17
REMARK    5  A    between atoms: C_17  and  C_19
REMARK    6  A    between atoms: C_19  and  C_21
REMARK    7  A    between atoms: C_20  and  C_24
REMARK    8  A    between atoms: C_29  and  C_32
REMARK                            x       y       z     vdW  Elec       q    Type
REMARK                         _______ _______ _______ _____ _____    ______ ____
ROOT
ATOM      1  O   UNL     1      10.825   8.408  17.957  0.00  0.00    -0.274 OA
ATOM      5  N   UNL     1      12.983   7.553  20.775  0.00  0.00    -0.286 NA
ATOM      6  N   UNL     1      13.062   8.004  18.007  0.00  0.00    -0.313 N 
ATOM     11  C   UNL     1      11.703   7.661  20.064  0.00  0.00    +0.145 C 
ATOM     12  C   UNL     1      14.058   6.958  19.989  0.00  0.00    +0.075 C 
ATOM     13  C   UNL     1      11.856   9.156  21.971  0.00  0.00    +0.070 C 
ATOM     14  C   UNL     1      10.907   8.708  20.859  0.00  0.00    +0.048 C 
ATOM     15  C   UNL     1      13.236   8.846  21.406  0.00  0.00    +0.104 C 
ATOM     16  C   UNL     1      14.296   7.748  18.712  0.00  0.00    +0.123 C 
ATOM     18  C   UNL     1      11.825   8.077  18.601  0.00  0.00    +0.230 C 
ATOM     36  H   UNL     1      13.127   8.263  17.027  0.00  0.00    +0.149 HD
ENDROOT
BRANCH  13   7
ATOM      7  N   UNL     1      11.682  10.551  22.343  0.00  0.00    -0.305 NA
ATOM     37  H   UNL     1      12.599  10.985  22.453  0.00  0.00    +0.123 HD
BRANCH   7  20
ATOM     20  C   UNL     1      10.951  10.671  23.598  0.00  0.00    +0.156 C 
BRANCH  20  24
ATOM      3  O   UNL     1      10.743  12.706  24.915  0.00  0.00    -0.461 OA
ATOM     24  C   UNL     1      11.564  11.703  24.507  0.00  0.00    +0.119 A 
ATOM     27  C   UNL     1      12.823  11.863  25.036  0.00  0.00    +0.046 A 
ATOM     29  C   UNL     1      11.487  13.515  25.715  0.00  0.00    +0.131 A 
ATOM     30  C   UNL     1      12.774  13.038  25.821  0.00  0.00    +0.047 A 
BRANCH  29  32
ATOM     32  C   UNL     1      10.798  14.682  26.281  0.00  0.00    +0.230 C 
BRANCH  32   4
ATOM      4  O   UNL     1      11.081  14.795  27.678  0.00  0.00    -0.387 OA
ATOM     38  H   UNL     1      11.684  15.550  27.784  0.00  0.00    +0.210 HD
ENDBRANCH  32   4
ENDBRANCH  29  32
ENDBRANCH  20  24
ENDBRANCH   7  20
ENDBRANCH  13   7
BRANCH  12  17
ATOM     17  C   UNL     1      15.354   6.795  20.785  0.00  0.00    +0.029 C 
BRANCH  17  19
ATOM     19  C   UNL     1      16.568   7.320  20.031  0.00  0.00    +0.097 C 
BRANCH  19  21
ATOM      2  O   UNL     1      17.231   5.479  18.684  0.00  0.00    -0.276 OA
ATOM      8  N   UNL     1      18.629   6.032  20.457  0.00  0.00    -0.298 N 
ATOM      9  N   UNL     1      21.109   5.743  21.921  0.00  0.00    -0.312 N 
ATOM     10  N   UNL     1      22.289   5.395  23.936  0.00  0.00    -0.240 NA
ATOM     21  C   UNL     1      17.499   6.194  19.653  0.00  0.00    +0.216 C 
ATOM     22  C   UNL     1      18.950   6.887  21.601  0.00  0.00    +0.126 C 
ATOM     23  C   UNL     1      19.576   4.961  20.160  0.00  0.00    +0.126 C 
ATOM     25  C   UNL     1      19.898   6.214  22.596  0.00  0.00    +0.125 C 
ATOM     26  C   UNL     1      21.009   5.353  20.511  0.00  0.00    +0.125 C 
ATOM     28  C   UNL     1      22.317   5.633  22.606  0.00  0.00    +0.121 A 
ATOM     31  C   UNL     1      23.480   5.774  21.867  0.00  0.00    +0.043 A 
ATOM     33  C   UNL     1      24.693   5.667  22.537  0.00  0.00    +0.005 A 
ATOM     34  C   UNL     1      23.488   5.296  24.553  0.00  0.00    +0.113 A 
ATOM     35  C   UNL     1      24.707   5.423  23.906  0.00  0.00    +0.020 A 
ENDBRANCH  19  21
ENDBRANCH  17  19
ENDBRANCH  12  17
TORSDOF 8
ENDMDL
MODEL 7
REMARK VINA RESULT:      -7.3      2.922      4.235
REMARK  Name = 45360706
REMARK  8 active torsions:
REMARK  status: ('A' for Active; 'I' for Inactive)
REMARK    1  A    between atoms: O_4  and  C_32
REMARK    2  A    between atoms: N_7  and  C_13
REMARK    3  A    between atoms: N_7  and  C_20
REMARK    4  A    between atoms: C_12  and  C_17
REMARK    5  A    between atoms: C_17  and  C_19
REMARK    6  A    between atoms: C_19  and  C_21
REMARK    7  A    between atoms: C_20  and  C_24
REMARK    8  A    between atoms: C_29  and  C_32
REMARK                            x       y       z     vdW  Elec       q    Type
REMARK                         _______ _______ _______ _____ _____    ______ ____
ROOT
ATOM      1  O   UNL     1      12.719   6.941  21.165  0.00  0.00    -0.274 OA
ATOM      5  N   UNL     1      16.216   7.932  21.506  0.00  0.00    -0.286 NA
ATOM      6  N   UNL     1      14.556   6.204  20.046  0.00  0.00    -0.313 N 
ATOM     11  C   UNL     1      14.825   7.780  21.954  0.00  0.00    +0.145 C 
ATOM     12  C   UNL     1      16.789   6.730  20.912  0.00  0.00    +0.075 C 
ATOM     13  C   UNL     1      15.467  10.098  21.627  0.00  0.00    +0.070 C 
ATOM     14  C   UNL     1      14.300   9.218  22.077  0.00  0.00    +0.048 C 
ATOM     15  C   UNL     1      16.288   9.173  20.739  0.00  0.00    +0.104 C 
ATOM     16  C   UNL     1      15.963   6.266  19.724  0.00  0.00    +0.123 C 
ATOM     18  C   UNL     1      13.944   6.963  21.014  0.00  0.00    +0.230 C 
ATOM     36  H   UNL     1      13.960   5.648  19.440  0.00  0.00    +0.149 HD
ENDROOT
BRANCH  13   7
ATOM      7  N   UNL     1      15.038  11.316  20.956  0.00  0.00    -0.305 NA
ATOM     37  H   UNL     1      15.170  12.108  21.585  0.00  0.00    +0.123 HD
BRANCH   7  20
ATOM     20  C   UNL     1      13.631  11.239  20.584  0.00  0.00    +0.156 C 
BRANCH  20  24
ATOM      3  O   UNL     1      12.571   9.628  19.101  0.00  0.00    -0.461 OA
ATOM     24  C   UNL     1      13.446  10.662  19.206  0.00  0.00    +0.119 A 
ATOM     27  C   UNL     1      13.991  10.961  17.979  0.00  0.00    +0.046 A 
ATOM     29  C   UNL     1      12.556   9.263  17.791  0.00  0.00    +0.131 A 
ATOM     30  C   UNL     1      13.413  10.054  17.060  0.00  0.00    +0.047 A 
BRANCH  29  32
ATOM     32  C   UNL     1      11.666   8.149  17.437  0.00  0.00    +0.230 C 
BRANCH  32   4
ATOM      4  O   UNL     1      12.074   6.957  18.112  0.00  0.00    -0.387 OA
ATOM     38  H   UNL     1      12.587   6.432  17.474  0.00  0.00    +0.210 HD
ENDBRANCH  32   4
ENDBRANCH  29  32
ENDBRANCH  20  24
ENDBRANCH   7  20
ENDBRANCH  13   7
BRANCH  12  17
ATOM     17  C   UNL     1      18.259   6.904  20.523  0.00  0.00    +0.029 C 
BRANCH  17  19
ATOM     19  C   UNL     1      19.062   7.627  21.596  0.00  0.00    +0.097 C 
BRANCH  19  21
ATOM      2  O   UNL     1      19.532   6.204  23.439  0.00  0.00    -0.276 OA
ATOM      8  N   UNL     1      21.163   6.351  21.790  0.00  0.00    -0.298 N 
ATOM      9  N   UNL     1      23.645   5.470  20.586  0.00  0.00    -0.312 N 
ATOM     10  N   UNL     1      25.781   5.925  19.690  0.00  0.00    -0.240 NA
ATOM     21  C   UNL     1      19.931   6.662  22.365  0.00  0.00    +0.216 C 
ATOM     22  C   UNL     1      21.630   6.888  20.510  0.00  0.00    +0.126 C 
ATOM     23  C   UNL     1      22.065   5.429  22.474  0.00  0.00    +0.126 C 
ATOM     25  C   UNL     1      23.152   6.831  20.363  0.00  0.00    +0.125 C 
ATOM     26  C   UNL     1      22.888   4.600  21.492  0.00  0.00    +0.125 C 
ATOM     28  C   UNL     1      24.818   5.023  19.985  0.00  0.00    +0.121 A 
ATOM     31  C   UNL     1      24.922   3.665  19.728  0.00  0.00    +0.043 A 
ATOM     33  C   UNL     1      26.088   3.204  19.128  0.00  0.00    +0.005 A 
ATOM     34  C   UNL     1      26.901   5.439  19.108  0.00  0.00    +0.113 A 
ATOM     35  C   UNL     1      27.102   4.101  18.808  0.00  0.00    +0.020 A 
ENDBRANCH  19  21
ENDBRANCH  17  19
ENDBRANCH  12  17
TORSDOF 8
ENDMDL
MODEL 8
REMARK VINA RESULT:      -7.2     27.176     31.425
REMARK  Name = 45360706
REMARK  8 active torsions:
REMARK  status: ('A' for Active; 'I' for Inactive)
REMARK    1  A    between atoms: O_4  and  C_32
REMARK    2  A    between atoms: N_7  and  C_13
REMARK    3  A    between atoms: N_7  and  C_20
REMARK    4  A    between atoms: C_12  and  C_17
REMARK    5  A    between atoms: C_17  and  C_19
REMARK    6  A    between atoms: C_19  and  C_21
REMARK    7  A    between atoms: C_20  and  C_24
REMARK    8  A    between atoms: C_29  and  C_32
REMARK                            x       y       z     vdW  Elec       q    Type
REMARK                         _______ _______ _______ _____ _____    ______ ____
ROOT
ATOM      1  O   UNL     1      -2.732 -14.595  14.042  0.00  0.00    -0.274 OA
ATOM      5  N   UNL     1      -2.371 -11.431  12.257  0.00  0.00    -0.286 NA
ATOM      6  N   UNL     1      -4.051 -13.671  12.437  0.00  0.00    -0.313 N 
ATOM     11  C   UNL     1      -1.896 -12.580  13.039  0.00  0.00    +0.145 C 
ATOM     12  C   UNL     1      -3.205 -11.786  11.115  0.00  0.00    +0.075 C 
ATOM     13  C   UNL     1      -1.813 -10.492  14.276  0.00  0.00    +0.070 C 
ATOM     14  C   UNL     1      -1.483 -11.981  14.393  0.00  0.00    +0.048 C 
ATOM     15  C   UNL     1      -2.895 -10.451  13.205  0.00  0.00    +0.104 C 
ATOM     16  C   UNL     1      -4.420 -12.584  11.560  0.00  0.00    +0.123 C 
ATOM     18  C   UNL     1      -2.932 -13.684  13.233  0.00  0.00    +0.230 C 
ATOM     36  H   UNL     1      -4.723 -14.422  12.561  0.00  0.00    +0.149 HD
ENDROOT
BRANCH  13   7
ATOM      7  N   UNL     1      -2.223  -9.898  15.539  0.00  0.00    -0.305 NA
ATOM     37  H   UNL     1      -1.425  -9.422  15.959  0.00  0.00    +0.123 HD
BRANCH   7  20
ATOM     20  C   UNL     1      -2.703 -10.917  16.463  0.00  0.00    +0.156 C 
BRANCH  20  24
ATOM      3  O   UNL     1      -4.469 -11.098  18.129  0.00  0.00    -0.461 OA
ATOM     24  C   UNL     1      -4.125 -10.663  16.888  0.00  0.00    +0.119 A 
ATOM     27  C   UNL     1      -5.199 -10.064  16.273  0.00  0.00    +0.046 A 
ATOM     29  C   UNL     1      -5.776 -10.773  18.307  0.00  0.00    +0.131 A 
ATOM     30  C   UNL     1      -6.271 -10.134  17.193  0.00  0.00    +0.047 A 
BRANCH  29  32
ATOM     32  C   UNL     1      -6.370 -11.151  19.597  0.00  0.00    +0.230 C 
BRANCH  32   4
ATOM      4  O   UNL     1      -7.357 -10.192  19.987  0.00  0.00    -0.387 OA
ATOM     38  H   UNL     1      -7.291 -10.095  20.951  0.00  0.00    +0.210 HD
ENDBRANCH  32   4
ENDBRANCH  29  32
ENDBRANCH  20  24
ENDBRANCH   7  20
ENDBRANCH  13   7
BRANCH  12  17
ATOM     17  C   UNL     1      -3.621 -10.571  10.284  0.00  0.00    +0.029 C 
BRANCH  17  19
ATOM     19  C   UNL     1      -4.384 -10.961   9.026  0.00  0.00    +0.097 C 
BRANCH  19  21
ATOM      2  O   UNL     1      -6.164  -9.652   9.897  0.00  0.00    -0.276 OA
ATOM      8  N   UNL     1      -6.187 -10.053   7.608  0.00  0.00    -0.298 N 
ATOM      9  N   UNL     1      -7.255  -9.586   4.958  0.00  0.00    -0.312 N 
ATOM     10  N   UNL     1      -8.116 -10.382   2.909  0.00  0.00    -0.240 NA
ATOM     21  C   UNL     1      -5.656 -10.160   8.894  0.00  0.00    +0.216 C 
ATOM     22  C   UNL     1      -5.577 -10.649   6.418  0.00  0.00    +0.126 C 
ATOM     23  C   UNL     1      -7.420  -9.300   7.398  0.00  0.00    +0.126 C 
ATOM     25  C   UNL     1      -6.575 -10.844   5.275  0.00  0.00    +0.125 C 
ATOM     26  C   UNL     1      -7.443  -8.610   6.036  0.00  0.00    +0.125 C 
ATOM     28  C   UNL     1      -7.742  -9.335   3.678  0.00  0.00    +0.121 A 
ATOM     31  C   UNL     1      -7.813  -8.011   3.275  0.00  0.00    +0.043 A 
ATOM     33  C   UNL     1      -8.297  -7.745   1.999  0.00  0.00    +0.005 A 
ATOM     34  C   UNL     1      -8.583 -10.084   1.676  0.00  0.00    +0.113 A 
ATOM     35  C   UNL     1      -8.691  -8.795   1.177  0.00  0.00    +0.020 A 
ENDBRANCH  19  21
ENDBRANCH  17  19
ENDBRANCH  12  17
TORSDOF 8
ENDMDL
MODEL 9
REMARK VINA RESULT:      -7.1      2.753      5.505
REMARK  Name = 45360706
REMARK  8 active torsions:
REMARK  status: ('A' for Active; 'I' for Inactive)
REMARK    1  A    between atoms: O_4  and  C_32
REMARK    2  A    between atoms: N_7  and  C_13
REMARK    3  A    between atoms: N_7  and  C_20
REMARK    4  A    between atoms: C_12  and  C_17
REMARK    5  A    between atoms: C_17  and  C_19
REMARK    6  A    between atoms: C_19  and  C_21
REMARK    7  A    between atoms: C_20  and  C_24
REMARK    8  A    between atoms: C_29  and  C_32
REMARK                            x       y       z     vdW  Elec       q    Type
REMARK                         _______ _______ _______ _____ _____    ______ ____
ROOT
ATOM      1  O   UNL     1      13.743  12.216  26.389  0.00  0.00    -0.274 OA
ATOM      5  N   UNL     1      13.927  12.890  22.806  0.00  0.00    -0.286 NA
ATOM      6  N   UNL     1      15.316  11.592  24.870  0.00  0.00    -0.313 N 
ATOM     11  C   UNL     1      13.484  13.132  24.184  0.00  0.00    +0.145 C 
ATOM     12  C   UNL     1      15.362  12.669  22.667  0.00  0.00    +0.075 C 
ATOM     13  C   UNL     1      11.683  12.417  22.721  0.00  0.00    +0.070 C 
ATOM     14  C   UNL     1      11.973  12.854  24.158  0.00  0.00    +0.048 C 
ATOM     15  C   UNL     1      13.026  11.893  22.232  0.00  0.00    +0.104 C 
ATOM     16  C   UNL     1      15.814  11.493  23.517  0.00  0.00    +0.123 C 
ATOM     18  C   UNL     1      14.173  12.262  25.232  0.00  0.00    +0.230 C 
ATOM     36  H   UNL     1      15.778  11.034  25.581  0.00  0.00    +0.149 HD
ENDROOT
BRANCH  13   7
ATOM      7  N   UNL     1      10.611  11.438  22.628  0.00  0.00    -0.305 NA
ATOM     37  H   UNL     1       9.798  11.783  23.140  0.00  0.00    +0.123 HD
BRANCH   7  20
ATOM     20  C   UNL     1      11.018  10.161  23.199  0.00  0.00    +0.156 C 
BRANCH  20  24
ATOM      3  O   UNL     1      11.010   7.803  22.595  0.00  0.00    -0.461 OA
ATOM     24  C   UNL     1      11.112   9.084  22.151  0.00  0.00    +0.119 A 
ATOM     27  C   UNL     1      11.287   9.110  20.787  0.00  0.00    +0.046 A 
ATOM     29  C   UNL     1      11.120   7.003  21.501  0.00  0.00    +0.131 A 
ATOM     30  C   UNL     1      11.291   7.759  20.365  0.00  0.00    +0.047 A 
BRANCH  29  32
ATOM     32  C   UNL     1      11.036   5.557  21.744  0.00  0.00    +0.230 C 
BRANCH  32   4
ATOM      4  O   UNL     1      11.012   4.848  20.502  0.00  0.00    -0.387 OA
ATOM     38  H   UNL     1      11.784   4.257  20.498  0.00  0.00    +0.210 HD
ENDBRANCH  32   4
ENDBRANCH  29  32
ENDBRANCH  20  24
ENDBRANCH   7  20
ENDBRANCH  13   7
BRANCH  12  17
ATOM     17  C   UNL     1      15.797  12.493  21.211  0.00  0.00    +0.029 C 
BRANCH  17  19
ATOM     19  C   UNL     1      17.004  11.576  21.071  0.00  0.00    +0.097 C 
BRANCH  19  21
ATOM      2  O   UNL     1      15.456   9.921  20.359  0.00  0.00    -0.276 OA
ATOM      8  N   UNL     1      17.503   9.162  21.155  0.00  0.00    -0.298 N 
ATOM      9  N   UNL     1      19.427   7.046  21.603  0.00  0.00    -0.312 N 
ATOM     10  N   UNL     1      20.889   5.850  23.020  0.00  0.00    -0.240 NA
ATOM     21  C   UNL     1      16.575  10.150  20.824  0.00  0.00    +0.216 C 
ATOM     22  C   UNL     1      18.835   9.436  21.698  0.00  0.00    +0.126 C 
ATOM     23  C   UNL     1      17.162   7.756  20.951  0.00  0.00    +0.126 C 
ATOM     25  C   UNL     1      19.426   8.242  22.448  0.00  0.00    +0.125 C 
ATOM     26  C   UNL     1      18.384   6.920  20.581  0.00  0.00    +0.125 C 
ATOM     28  C   UNL     1      20.370   6.037  21.786  0.00  0.00    +0.121 A 
ATOM     31  C   UNL     1      20.714   5.282  20.676  0.00  0.00    +0.043 A 
ATOM     33  C   UNL     1      21.653   4.271  20.843  0.00  0.00    +0.005 A 
ATOM     34  C   UNL     1      21.799   4.857  23.143  0.00  0.00    +0.113 A 
ATOM     35  C   UNL     1      22.212   4.048  22.097  0.00  0.00    +0.020 A 
ENDBRANCH  19  21
ENDBRANCH  17  19
ENDBRANCH  12  17
TORSDOF 8
ENDMDL
MODEL 10
REMARK VINA RESULT:      -7.1     26.906     30.968
REMARK  Name = 45360706
REMARK  8 active torsions:
REMARK  status: ('A' for Active; 'I' for Inactive)
REMARK    1  A    between atoms: O_4  and  C_32
REMARK    2  A    between atoms: N_7  and  C_13
REMARK    3  A    between atoms: N_7  and  C_20
REMARK    4  A    between atoms: C_12  and  C_17
REMARK    5  A    between atoms: C_17  and  C_19
REMARK    6  A    between atoms: C_19  and  C_21
REMARK    7  A    between atoms: C_20  and  C_24
REMARK    8  A    between atoms: C_29  and  C_32
REMARK                            x       y       z     vdW  Elec       q    Type
REMARK                         _______ _______ _______ _____ _____    ______ ____
ROOT
ATOM      1  O   UNL     1      -6.164 -10.718  20.001  0.00  0.00    -0.274 OA
ATOM      5  N   UNL     1      -6.308 -10.970  16.362  0.00  0.00    -0.286 NA
ATOM      6  N   UNL     1      -7.551  -9.685  18.525  0.00  0.00    -0.313 N 
ATOM     11  C   UNL     1      -5.967 -11.426  17.716  0.00  0.00    +0.145 C 
ATOM     12  C   UNL     1      -7.681 -10.501  16.216  0.00  0.00    +0.075 C 
ATOM     13  C   UNL     1      -4.015 -10.869  16.383  0.00  0.00    +0.070 C 
ATOM     14  C   UNL     1      -4.431 -11.401  17.756  0.00  0.00    +0.048 C 
ATOM     15  C   UNL     1      -5.234 -10.082  15.923  0.00  0.00    +0.104 C 
ATOM     16  C   UNL     1      -7.971  -9.362  17.180  0.00  0.00    +0.123 C 
ATOM     18  C   UNL     1      -6.548 -10.569  18.837  0.00  0.00    +0.230 C 
ATOM     36  H   UNL     1      -7.945  -9.136  19.283  0.00  0.00    +0.149 HD
ENDROOT
BRANCH  13   7
ATOM      7  N   UNL     1      -2.795 -10.078  16.424  0.00  0.00    -0.305 NA
ATOM     37  H   UNL     1      -2.926  -9.233  15.867  0.00  0.00    +0.123 HD
BRANCH   7  20
ATOM     20  C   UNL     1      -1.668 -10.827  15.883  0.00  0.00    +0.156 C 
BRANCH  20  24
ATOM      3  O   UNL     1      -2.071 -10.238  13.556  0.00  0.00    -0.461 OA
ATOM     24  C   UNL     1      -1.905 -11.243  14.456  0.00  0.00    +0.119 A 
ATOM     27  C   UNL     1      -1.995 -12.467  13.834  0.00  0.00    +0.046 A 
ATOM     29  C   UNL     1      -2.269 -10.827  12.348  0.00  0.00    +0.131 A 
ATOM     30  C   UNL     1      -2.231 -12.197  12.466  0.00  0.00    +0.047 A 
BRANCH  29  32
ATOM     32  C   UNL     1      -2.473  -9.921  11.209  0.00  0.00    +0.230 C 
BRANCH  32   4
ATOM      4  O   UNL     1      -1.280  -9.178  10.948  0.00  0.00    -0.387 OA
ATOM     38  H   UNL     1      -1.477  -8.247  11.146  0.00  0.00    +0.210 HD
ENDBRANCH  32   4
ENDBRANCH  29  32
ENDBRANCH  20  24
ENDBRANCH   7  20
ENDBRANCH  13   7
BRANCH  12  17
ATOM     17  C   UNL     1      -8.021 -10.102  14.778  0.00  0.00    +0.029 C 
BRANCH  17  19
ATOM     19  C   UNL     1      -8.150 -11.306  13.856  0.00  0.00    +0.097 C 
BRANCH  19  21
ATOM      2  O   UNL     1      -5.969 -11.976  13.195  0.00  0.00    -0.276 OA
ATOM      8  N   UNL     1      -7.182 -10.714  11.666  0.00  0.00    -0.298 N 
ATOM      9  N   UNL     1      -7.538  -9.572   9.030  0.00  0.00    -0.312 N 
ATOM     10  N   UNL     1      -7.994  -7.735   7.619  0.00  0.00    -0.240 NA
ATOM     21  C   UNL     1      -6.998 -11.370  12.884  0.00  0.00    +0.216 C 
ATOM     22  C   UNL     1      -8.408 -10.003  11.295  0.00  0.00    +0.126 C 
ATOM     23  C   UNL     1      -6.112 -10.724  10.673  0.00  0.00    +0.126 C 
ATOM     25  C   UNL     1      -8.180  -8.964  10.197  0.00  0.00    +0.125 C 
ATOM     26  C   UNL     1      -6.655 -10.723   9.247  0.00  0.00    +0.125 C 
ATOM     28  C   UNL     1      -7.729  -9.054   7.751  0.00  0.00    +0.121 A 
ATOM     31  C   UNL     1      -7.632  -9.936   6.688  0.00  0.00    +0.043 A 
ATOM     33  C   UNL     1      -7.820  -9.433   5.406  0.00  0.00    +0.005 A 
ATOM     34  C   UNL     1      -8.171  -7.282   6.358  0.00  0.00    +0.113 A 
ATOM     35  C   UNL     1      -8.096  -8.082   5.228  0.00  0.00    +0.020 A 
ENDBRANCH  19  21
ENDBRANCH  17  19
ENDBRANCH  12  17
TORSDOF 8
ENDMDL
