MODEL 1
REMARK VINA RESULT:      -6.0      0.000      0.000
REMARK  Name = 75536912
REMARK  5 active torsions:
REMARK  status: ('A' for Active; 'I' for Inactive)
REMARK    1  A    between atoms: O_2  and  C_6
REMARK    2  A    between atoms: O_2  and  C_13
REMARK    3  A    between atoms: N_4  and  C_9
REMARK    4  A    between atoms: C_9  and  C_11
REMARK    5  A    between atoms: C_14  and  C_18
REMARK                            x       y       z     vdW  Elec       q    Type
REMARK                         _______ _______ _______ _____ _____    ______ ____
ROOT
ATOM      1  O   UNL     1      12.153   7.348  17.441  0.00  0.00    -0.375 OA
ATOM      4  N   UNL     1      14.060   9.502  17.539  0.00  0.00    -0.289 NA
ATOM      5  C   UNL     1      14.269   8.934  18.871  0.00  0.00    +0.131 C 
ATOM      6  C   UNL     1      14.188   7.403  18.833  0.00  0.00    +0.213 C 
ATOM      7  C   UNL     1      12.654   9.726  17.187  0.00  0.00    +0.113 C 
ATOM      8  C   UNL     1      12.796   6.823  18.596  0.00  0.00    +0.205 C 
ATOM     10  C   UNL     1      11.657   8.665  17.650  0.00  0.00    +0.175 C 
ENDROOT
BRANCH   6   2
ATOM      2  O   UNL     1      14.679   6.906  20.079  0.00  0.00    -0.485 OA
BRANCH   2  13
ATOM     13  C   UNL     1      16.017   6.627  20.142  0.00  0.00    +0.121 A 
ATOM     16  C   UNL     1      16.645   5.981  19.077  0.00  0.00    +0.045 A 
ATOM     17  C   UNL     1      16.752   6.991  21.270  0.00  0.00    +0.045 A 
ATOM     19  C   UNL     1      18.009   5.698  19.142  0.00  0.00    +0.004 A 
ATOM     20  C   UNL     1      18.116   6.708  21.334  0.00  0.00    +0.004 A 
ATOM     21  C   UNL     1      18.745   6.060  20.269  0.00  0.00    +0.000 A 
ENDBRANCH   2  13
ENDBRANCH   6   2
BRANCH   4   9
ATOM      9  C   UNL     1      14.824  10.738  17.357  0.00  0.00    +0.159 C 
BRANCH   9  11
ATOM      3  O   UNL     1      14.096  12.209  15.559  0.00  0.00    -0.464 OA
ATOM     11  C   UNL     1      14.879  11.155  15.911  0.00  0.00    +0.119 A 
ATOM     12  C   UNL     1      15.574  10.685  14.821  0.00  0.00    +0.046 A 
ATOM     14  C   UNL     1      14.295  12.414  14.231  0.00  0.00    +0.102 A 
ATOM     15  C   UNL     1      15.196  11.503  13.731  0.00  0.00    +0.044 A 
ATOM     18  C   UNL     1      13.541  13.521  13.623  0.00  0.00    +0.086 C 
ENDBRANCH   9  11
ENDBRANCH   4   9
TORSDOF 4
ENDMDL
MODEL 2
REMARK VINA RESULT:      -6.0      4.348      6.728
REMARK  Name = 75536912
REMARK  5 active torsions:
REMARK  status: ('A' for Active; 'I' for Inactive)
REMARK    1  A    between atoms: O_2  and  C_6
REMARK    2  A    between atoms: O_2  and  C_13
REMARK    3  A    between atoms: N_4  and  C_9
REMARK    4  A    between atoms: C_9  and  C_11
REMARK    5  A    between atoms: C_14  and  C_18
REMARK                            x       y       z     vdW  Elec       q    Type
REMARK                         _______ _______ _______ _____ _____    ______ ____
ROOT
ATOM      1  O   UNL     1      13.927  11.858  25.142  0.00  0.00    -0.375 OA
ATOM      4  N   UNL     1      11.939  10.686  23.421  0.00  0.00    -0.289 NA
ATOM      5  C   UNL     1      13.050  10.784  22.474  0.00  0.00    +0.131 C 
ATOM      6  C   UNL     1      14.385  10.464  23.159  0.00  0.00    +0.213 C 
ATOM      7  C   UNL     1      11.680  11.912  24.184  0.00  0.00    +0.113 C 
ATOM      8  C   UNL     1      14.885  11.514  24.148  0.00  0.00    +0.205 C 
ATOM     10  C   UNL     1      12.904  12.707  24.634  0.00  0.00    +0.175 C 
ENDROOT
BRANCH   6   2
ATOM      2  O   UNL     1      15.372  10.295  22.141  0.00  0.00    -0.485 OA
BRANCH   2  13
ATOM     13  C   UNL     1      15.232   9.203  21.329  0.00  0.00    +0.121 A 
ATOM     16  C   UNL     1      15.217   9.360  19.943  0.00  0.00    +0.045 A 
ATOM     17  C   UNL     1      15.107   7.931  21.889  0.00  0.00    +0.045 A 
ATOM     19  C   UNL     1      15.075   8.245  19.117  0.00  0.00    +0.004 A 
ATOM     20  C   UNL     1      14.965   6.817  21.063  0.00  0.00    +0.004 A 
ATOM     21  C   UNL     1      14.949   6.974  19.676  0.00  0.00    +0.000 A 
ENDBRANCH   2  13
ENDBRANCH   6   2
BRANCH   4   9
ATOM      9  C   UNL     1      10.711  10.238  22.762  0.00  0.00    +0.159 C 
BRANCH   9  11
ATOM      3  O   UNL     1      10.914   7.855  22.310  0.00  0.00    -0.464 OA
ATOM     11  C   UNL     1      10.971   9.112  21.797  0.00  0.00    +0.119 A 
ATOM     12  C   UNL     1      11.267   9.072  20.454  0.00  0.00    +0.046 A 
ATOM     14  C   UNL     1      11.176   7.004  21.285  0.00  0.00    +0.102 A 
ATOM     15  C   UNL     1      11.399   7.703  20.122  0.00  0.00    +0.044 A 
ATOM     18  C   UNL     1      11.167   5.570  21.611  0.00  0.00    +0.086 C 
ENDBRANCH   9  11
ENDBRANCH   4   9
TORSDOF 4
ENDMDL
MODEL 3
REMARK VINA RESULT:      -5.8     11.348     14.475
REMARK  Name = 75536912
REMARK  5 active torsions:
REMARK  status: ('A' for Active; 'I' for Inactive)
REMARK    1  A    between atoms: O_2  and  C_6
REMARK    2  A    between atoms: O_2  and  C_13
REMARK    3  A    between atoms: N_4  and  C_9
REMARK    4  A    between atoms: C_9  and  C_11
REMARK    5  A    between atoms: C_14  and  C_18
REMARK                            x       y       z     vdW  Elec       q    Type
REMARK                         _______ _______ _______ _____ _____    ______ ____
ROOT
ATOM      1  O   UNL     1      14.704   8.012   6.111  0.00  0.00    -0.375 OA
ATOM      4  N   UNL     1      11.858   7.663   6.367  0.00  0.00    -0.289 NA
ATOM      5  C   UNL     1      11.955   7.788   4.912  0.00  0.00    +0.131 C 
ATOM      6  C   UNL     1      13.209   7.079   4.384  0.00  0.00    +0.213 C 
ATOM      7  C   UNL     1      12.585   8.694   7.116  0.00  0.00    +0.113 C 
ATOM      8  C   UNL     1      14.537   7.753   4.722  0.00  0.00    +0.205 C 
ATOM     10  C   UNL     1      13.935   9.126   6.548  0.00  0.00    +0.175 C 
ENDROOT
BRANCH   6   2
ATOM      2  O   UNL     1      13.097   6.989   2.963  0.00  0.00    -0.485 OA
BRANCH   2  13
ATOM     13  C   UNL     1      13.088   5.729   2.430  0.00  0.00    +0.121 A 
ATOM     16  C   UNL     1      11.919   4.969   2.456  0.00  0.00    +0.045 A 
ATOM     17  C   UNL     1      14.249   5.206   1.859  0.00  0.00    +0.045 A 
ATOM     19  C   UNL     1      11.911   3.685   1.912  0.00  0.00    +0.004 A 
ATOM     20  C   UNL     1      14.240   3.922   1.316  0.00  0.00    +0.004 A 
ATOM     21  C   UNL     1      13.070   3.160   1.342  0.00  0.00    +0.000 A 
ENDBRANCH   2  13
ENDBRANCH   6   2
BRANCH   4   9
ATOM      9  C   UNL     1      10.463   7.614   6.808  0.00  0.00    +0.159 C 
BRANCH   9  11
ATOM      3  O   UNL     1       9.791   6.203   8.674  0.00  0.00    -0.464 OA
ATOM     11  C   UNL     1      10.095   6.258   7.351  0.00  0.00    +0.119 A 
ATOM     12  C   UNL     1       9.994   5.011   6.780  0.00  0.00    +0.046 A 
ATOM     14  C   UNL     1       9.493   4.907   8.951  0.00  0.00    +0.102 A 
ATOM     15  C   UNL     1       9.603   4.134   7.818  0.00  0.00    +0.044 A 
ATOM     18  C   UNL     1       9.127   4.606  10.343  0.00  0.00    +0.086 C 
ENDBRANCH   9  11
ENDBRANCH   4   9
TORSDOF 4
ENDMDL
MODEL 4
REMARK VINA RESULT:      -5.6     26.504     28.351
REMARK  Name = 75536912
REMARK  5 active torsions:
REMARK  status: ('A' for Active; 'I' for Inactive)
REMARK    1  A    between atoms: O_2  and  C_6
REMARK    2  A    between atoms: O_2  and  C_13
REMARK    3  A    between atoms: N_4  and  C_9
REMARK    4  A    between atoms: C_9  and  C_11
REMARK    5  A    between atoms: C_14  and  C_18
REMARK                            x       y       z     vdW  Elec       q    Type
REMARK                         _______ _______ _______ _____ _____    ______ ____
ROOT
ATOM      1  O   UNL     1      -2.733 -13.218  12.505  0.00  0.00    -0.375 OA
ATOM      4  N   UNL     1      -2.682 -11.301  14.652  0.00  0.00    -0.289 NA
ATOM      5  C   UNL     1      -2.389 -10.411  13.528  0.00  0.00    +0.131 C 
ATOM      6  C   UNL     1      -3.204 -10.806  12.290  0.00  0.00    +0.213 C 
ATOM      7  C   UNL     1      -1.875 -12.526  14.685  0.00  0.00    +0.113 C 
ATOM      8  C   UNL     1      -2.785 -12.110  11.615  0.00  0.00    +0.205 C 
ATOM     10  C   UNL     1      -1.581 -13.186  13.340  0.00  0.00    +0.175 C 
ENDROOT
BRANCH   6   2
ATOM      2  O   UNL     1      -3.095  -9.748  11.337  0.00  0.00    -0.485 OA
BRANCH   2  13
ATOM     13  C   UNL     1      -4.209  -9.485  10.587  0.00  0.00    +0.121 A 
ATOM     16  C   UNL     1      -5.405  -9.135  11.214  0.00  0.00    +0.045 A 
ATOM     17  C   UNL     1      -4.147  -9.564   9.195  0.00  0.00    +0.045 A 
ATOM     19  C   UNL     1      -6.540  -8.866  10.449  0.00  0.00    +0.004 A 
ATOM     20  C   UNL     1      -5.282  -9.296   8.431  0.00  0.00    +0.004 A 
ATOM     21  C   UNL     1      -6.479  -8.946   9.058  0.00  0.00    +0.000 A 
ENDBRANCH   2  13
ENDBRANCH   6   2
BRANCH   4   9
ATOM      9  C   UNL     1      -2.578 -10.599  15.933  0.00  0.00    +0.159 C 
BRANCH   9  11
ATOM      3  O   UNL     1      -4.888  -9.941  16.325  0.00  0.00    -0.464 OA
ATOM     11  C   UNL     1      -3.846 -10.710  16.737  0.00  0.00    +0.119 A 
ATOM     12  C   UNL     1      -4.198 -11.446  17.845  0.00  0.00    +0.046 A 
ATOM     14  C   UNL     1      -5.916 -10.190  17.178  0.00  0.00    +0.102 A 
ATOM     15  C   UNL     1      -5.541 -11.109  18.130  0.00  0.00    +0.044 A 
ATOM     18  C   UNL     1      -7.166  -9.460  16.921  0.00  0.00    +0.086 C 
ENDBRANCH   9  11
ENDBRANCH   4   9
TORSDOF 4
ENDMDL
MODEL 5
REMARK VINA RESULT:      -5.5     12.615     15.573
REMARK  Name = 75536912
REMARK  5 active torsions:
REMARK  status: ('A' for Active; 'I' for Inactive)
REMARK    1  A    between atoms: O_2  and  C_6
REMARK    2  A    between atoms: O_2  and  C_13
REMARK    3  A    between atoms: N_4  and  C_9
REMARK    4  A    between atoms: C_9  and  C_11
REMARK    5  A    between atoms: C_14  and  C_18
REMARK                            x       y       z     vdW  Elec       q    Type
REMARK                         _______ _______ _______ _____ _____    ______ ____
ROOT
ATOM      1  O   UNL     1      22.453  -0.948  25.579  0.00  0.00    -0.375 OA
ATOM      4  N   UNL     1      21.368  -3.574  25.117  0.00  0.00    -0.289 NA
ATOM      5  C   UNL     1      20.162  -2.896  25.594  0.00  0.00    +0.131 C 
ATOM      6  C   UNL     1      20.095  -1.458  25.063  0.00  0.00    +0.213 C 
ATOM      7  C   UNL     1      22.556  -3.361  25.950  0.00  0.00    +0.113 C 
ATOM      8  C   UNL     1      21.110  -0.487  25.663  0.00  0.00    +0.205 C 
ATOM     10  C   UNL     1      22.736  -1.962  26.537  0.00  0.00    +0.175 C 
ENDROOT
BRANCH   6   2
ATOM      2  O   UNL     1      18.783  -0.956  25.319  0.00  0.00    -0.485 OA
BRANCH   2  13
ATOM     13  C   UNL     1      17.776  -1.454  24.538  0.00  0.00    +0.121 A 
ATOM     16  C   UNL     1      16.819  -2.305  25.093  0.00  0.00    +0.045 A 
ATOM     17  C   UNL     1      17.705  -1.109  23.188  0.00  0.00    +0.045 A 
ATOM     19  C   UNL     1      15.792  -2.812  24.297  0.00  0.00    +0.004 A 
ATOM     20  C   UNL     1      16.678  -1.616  22.393  0.00  0.00    +0.004 A 
ATOM     21  C   UNL     1      15.721  -2.468  22.947  0.00  0.00    +0.000 A 
ENDBRANCH   2  13
ENDBRANCH   6   2
BRANCH   4   9
ATOM      9  C   UNL     1      21.138  -5.008  24.931  0.00  0.00    +0.159 C 
BRANCH   9  11
ATOM      3  O   UNL     1      20.657  -5.585  22.616  0.00  0.00    -0.464 OA
ATOM     11  C   UNL     1      20.142  -5.279  23.836  0.00  0.00    +0.119 A 
ATOM     12  C   UNL     1      18.767  -5.284  23.792  0.00  0.00    +0.046 A 
ATOM     14  C   UNL     1      19.601  -5.789  21.787  0.00  0.00    +0.102 A 
ATOM     15  C   UNL     1      18.416  -5.615  22.463  0.00  0.00    +0.044 A 
ATOM     18  C   UNL     1      19.923  -6.139  20.395  0.00  0.00    +0.086 C 
ENDBRANCH   9  11
ENDBRANCH   4   9
TORSDOF 4
ENDMDL
MODEL 6
REMARK VINA RESULT:      -5.4     12.386     15.456
REMARK  Name = 75536912
REMARK  5 active torsions:
REMARK  status: ('A' for Active; 'I' for Inactive)
REMARK    1  A    between atoms: O_2  and  C_6
REMARK    2  A    between atoms: O_2  and  C_13
REMARK    3  A    between atoms: N_4  and  C_9
REMARK    4  A    between atoms: C_9  and  C_11
REMARK    5  A    between atoms: C_14  and  C_18
REMARK                            x       y       z     vdW  Elec       q    Type
REMARK                         _______ _______ _______ _____ _____    ______ ____
ROOT
ATOM      1  O   UNL     1      12.662   8.521   2.972  0.00  0.00    -0.375 OA
ATOM      4  N   UNL     1      12.557   7.209   5.532  0.00  0.00    -0.289 NA
ATOM      5  C   UNL     1      11.579   6.398   4.806  0.00  0.00    +0.131 C 
ATOM      6  C   UNL     1      12.025   6.169   3.356  0.00  0.00    +0.213 C 
ATOM      7  C   UNL     1      12.371   8.657   5.393  0.00  0.00    +0.113 C 
ATOM      8  C   UNL     1      11.968   7.395   2.448  0.00  0.00    +0.205 C 
ATOM     10  C   UNL     1      11.941   9.161   4.017  0.00  0.00    +0.175 C 
ENDROOT
BRANCH   6   2
ATOM      2  O   UNL     1      11.192   5.153   2.796  0.00  0.00    -0.485 OA
BRANCH   2  13
ATOM     13  C   UNL     1      11.660   4.531   1.670  0.00  0.00    +0.121 A 
ATOM     16  C   UNL     1      12.917   3.928   1.678  0.00  0.00    +0.045 A 
ATOM     17  C   UNL     1      10.878   4.501   0.515  0.00  0.00    +0.045 A 
ATOM     19  C   UNL     1      13.393   3.294   0.530  0.00  0.00    +0.004 A 
ATOM     20  C   UNL     1      11.354   3.868  -0.632  0.00  0.00    +0.004 A 
ATOM     21  C   UNL     1      12.612   3.264  -0.625  0.00  0.00    +0.000 A 
ENDBRANCH   2  13
ENDBRANCH   6   2
BRANCH   4   9
ATOM      9  C   UNL     1      12.610   6.844   6.948  0.00  0.00    +0.159 C 
BRANCH   9  11
ATOM      3  O   UNL     1      11.038   5.481   8.212  0.00  0.00    -0.464 OA
ATOM     11  C   UNL     1      11.235   6.637   7.525  0.00  0.00    +0.119 A 
ATOM     12  C   UNL     1      10.083   7.390   7.510  0.00  0.00    +0.046 A 
ATOM     14  C   UNL     1       9.749   5.496   8.639  0.00  0.00    +0.102 A 
ATOM     15  C   UNL     1       9.119   6.650   8.234  0.00  0.00    +0.044 A 
ATOM     18  C   UNL     1       9.307   4.328   9.416  0.00  0.00    +0.086 C 
ENDBRANCH   9  11
ENDBRANCH   4   9
TORSDOF 4
ENDMDL
MODEL 7
REMARK VINA RESULT:      -5.4     28.345     30.756
REMARK  Name = 75536912
REMARK  5 active torsions:
REMARK  status: ('A' for Active; 'I' for Inactive)
REMARK    1  A    between atoms: O_2  and  C_6
REMARK    2  A    between atoms: O_2  and  C_13
REMARK    3  A    between atoms: N_4  and  C_9
REMARK    4  A    between atoms: C_9  and  C_11
REMARK    5  A    between atoms: C_14  and  C_18
REMARK                            x       y       z     vdW  Elec       q    Type
REMARK                         _______ _______ _______ _____ _____    ______ ____
ROOT
ATOM      1  O   UNL     1     -10.000 -13.676  19.768  0.00  0.00    -0.375 OA
ATOM      4  N   UNL     1     -10.884 -11.039  19.027  0.00  0.00    -0.289 NA
ATOM      5  C   UNL     1      -9.666 -10.688  19.756  0.00  0.00    +0.131 C 
ATOM      6  C   UNL     1      -8.549 -11.702  19.479  0.00  0.00    +0.213 C 
ATOM      7  C   UNL     1     -11.762 -11.985  19.726  0.00  0.00    +0.113 C 
ATOM      8  C   UNL     1      -8.748 -13.086  20.095  0.00  0.00    +0.205 C 
ATOM     10  C   UNL     1     -11.075 -13.105  20.504  0.00  0.00    +0.175 C 
ENDROOT
BRANCH   6   2
ATOM      2  O   UNL     1      -7.327 -11.158  19.978  0.00  0.00    -0.485 OA
BRANCH   2  13
ATOM     13  C   UNL     1      -6.284 -11.088  19.094  0.00  0.00    +0.121 A 
ATOM     16  C   UNL     1      -5.092 -11.758  19.367  0.00  0.00    +0.045 A 
ATOM     17  C   UNL     1      -6.416 -10.346  17.919  0.00  0.00    +0.045 A 
ATOM     19  C   UNL     1      -4.031 -11.687  18.465  0.00  0.00    +0.004 A 
ATOM     20  C   UNL     1      -5.354 -10.275  17.018  0.00  0.00    +0.004 A 
ATOM     21  C   UNL     1      -4.160 -10.946  17.291  0.00  0.00    +0.000 A 
ENDBRANCH   2  13
ENDBRANCH   6   2
BRANCH   4   9
ATOM      9  C   UNL     1     -11.640  -9.847  18.641  0.00  0.00    +0.159 C 
BRANCH   9  11
ATOM      3  O   UNL     1     -11.398  -7.851  17.269  0.00  0.00    -0.464 OA
ATOM     11  C   UNL     1     -11.011  -9.138  17.471  0.00  0.00    +0.119 A 
ATOM     12  C   UNL     1     -10.094  -9.521  16.520  0.00  0.00    +0.046 A 
ATOM     14  C   UNL     1     -10.720  -7.407  16.179  0.00  0.00    +0.102 A 
ATOM     15  C   UNL     1      -9.904  -8.397  15.682  0.00  0.00    +0.044 A 
ATOM     18  C   UNL     1     -10.982  -6.019  15.769  0.00  0.00    +0.086 C 
ENDBRANCH   9  11
ENDBRANCH   4   9
TORSDOF 4
ENDMDL
MODEL 8
REMARK VINA RESULT:      -5.4     26.596     28.876
REMARK  Name = 75536912
REMARK  5 active torsions:
REMARK  status: ('A' for Active; 'I' for Inactive)
REMARK    1  A    between atoms: O_2  and  C_6
REMARK    2  A    between atoms: O_2  and  C_13
REMARK    3  A    between atoms: N_4  and  C_9
REMARK    4  A    between atoms: C_9  and  C_11
REMARK    5  A    between atoms: C_14  and  C_18
REMARK                            x       y       z     vdW  Elec       q    Type
REMARK                         _______ _______ _______ _____ _____    ______ ____
ROOT
ATOM      1  O   UNL     1      -5.674 -13.384  16.402  0.00  0.00    -0.375 OA
ATOM      4  N   UNL     1      -6.624 -10.753  17.082  0.00  0.00    -0.289 NA
ATOM      5  C   UNL     1      -5.231 -10.433  16.769  0.00  0.00    +0.131 C 
ATOM      6  C   UNL     1      -4.734 -11.258  15.576  0.00  0.00    +0.213 C 
ATOM      7  C   UNL     1      -6.798 -11.898  17.982  0.00  0.00    +0.113 C 
ATOM      8  C   UNL     1      -4.530 -12.747  15.845  0.00  0.00    +0.205 C 
ATOM     10  C   UNL     1      -5.846 -13.076  17.780  0.00  0.00    +0.175 C 
ENDROOT
BRANCH   6   2
ATOM      2  O   UNL     1      -3.490 -10.703  15.145  0.00  0.00    -0.485 OA
BRANCH   2  13
ATOM     13  C   UNL     1      -3.331 -10.535  13.797  0.00  0.00    +0.121 A 
ATOM     16  C   UNL     1      -2.050 -10.472  13.248  0.00  0.00    +0.045 A 
ATOM     17  C   UNL     1      -4.451 -10.428  12.971  0.00  0.00    +0.045 A 
ATOM     19  C   UNL     1      -1.889 -10.301  11.873  0.00  0.00    +0.004 A 
ATOM     20  C   UNL     1      -4.289 -10.257  11.597  0.00  0.00    +0.004 A 
ATOM     21  C   UNL     1      -3.008 -10.193  11.047  0.00  0.00    +0.000 A 
ENDBRANCH   2  13
ENDBRANCH   6   2
BRANCH   4   9
ATOM      9  C   UNL     1      -7.336  -9.589  17.611  0.00  0.00    +0.159 C 
BRANCH   9  11
ATOM      3  O   UNL     1      -9.165  -8.067  17.096  0.00  0.00    -0.464 OA
ATOM     11  C   UNL     1      -8.399  -9.102  16.662  0.00  0.00    +0.119 A 
ATOM     12  C   UNL     1      -8.783  -9.490  15.399  0.00  0.00    +0.046 A 
ATOM     14  C   UNL     1     -10.046  -7.791  16.100  0.00  0.00    +0.102 A 
ATOM     15  C   UNL     1      -9.852  -8.639  15.034  0.00  0.00    +0.044 A 
ATOM     18  C   UNL     1     -10.988  -6.689  16.351  0.00  0.00    +0.086 C 
ENDBRANCH   9  11
ENDBRANCH   4   9
TORSDOF 4
ENDMDL
MODEL 9
REMARK VINA RESULT:      -5.4     12.290     15.461
REMARK  Name = 75536912
REMARK  5 active torsions:
REMARK  status: ('A' for Active; 'I' for Inactive)
REMARK    1  A    between atoms: O_2  and  C_6
REMARK    2  A    between atoms: O_2  and  C_13
REMARK    3  A    between atoms: N_4  and  C_9
REMARK    4  A    between atoms: C_9  and  C_11
REMARK    5  A    between atoms: C_14  and  C_18
REMARK                            x       y       z     vdW  Elec       q    Type
REMARK                         _______ _______ _______ _____ _____    ______ ____
ROOT
ATOM      1  O   UNL     1      10.785   9.844   3.821  0.00  0.00    -0.375 OA
ATOM      4  N   UNL     1       9.189   8.317   5.666  0.00  0.00    -0.289 NA
ATOM      5  C   UNL     1       8.709   7.750   4.406  0.00  0.00    +0.131 C 
ATOM      6  C   UNL     1       9.856   7.598   3.400  0.00  0.00    +0.213 C 
ATOM      7  C   UNL     1       9.225   9.783   5.700  0.00  0.00    +0.113 C 
ATOM      8  C   UNL     1      10.405   8.903   2.826  0.00  0.00    +0.205 C 
ATOM     10  C   UNL     1       9.662  10.485   4.416  0.00  0.00    +0.175 C 
ENDROOT
BRANCH   6   2
ATOM      2  O   UNL     1       9.390   6.789   2.319  0.00  0.00    -0.485 OA
BRANCH   2  13
ATOM     13  C   UNL     1      10.226   5.792   1.898  0.00  0.00    +0.121 A 
ATOM     16  C   UNL     1      10.746   4.882   2.819  0.00  0.00    +0.045 A 
ATOM     17  C   UNL     1      10.557   5.684   0.547  0.00  0.00    +0.045 A 
ATOM     19  C   UNL     1      11.598   3.865   2.388  0.00  0.00    +0.004 A 
ATOM     20  C   UNL     1      11.408   4.668   0.117  0.00  0.00    +0.004 A 
ATOM     21  C   UNL     1      11.930   3.758   1.038  0.00  0.00    +0.000 A 
ENDBRANCH   2  13
ENDBRANCH   6   2
BRANCH   4   9
ATOM      9  C   UNL     1       8.426   7.809   6.808  0.00  0.00    +0.159 C 
BRANCH   9  11
ATOM      3  O   UNL     1       8.851   6.302   8.671  0.00  0.00    -0.464 OA
ATOM     11  C   UNL     1       9.000   6.523   7.338  0.00  0.00    +0.119 A 
ATOM     12  C   UNL     1       9.671   5.477   6.749  0.00  0.00    +0.046 A 
ATOM     14  C   UNL     1       9.432   5.103   8.934  0.00  0.00    +0.102 A 
ATOM     15  C   UNL     1       9.951   4.555   7.784  0.00  0.00    +0.044 A 
ATOM     18  C   UNL     1       9.391   4.652  10.334  0.00  0.00    +0.086 C 
ENDBRANCH   9  11
ENDBRANCH   4   9
TORSDOF 4
ENDMDL
MODEL 10
REMARK VINA RESULT:      -5.3     27.229     28.995
REMARK  Name = 75536912
REMARK  5 active torsions:
REMARK  status: ('A' for Active; 'I' for Inactive)
REMARK    1  A    between atoms: O_2  and  C_6
REMARK    2  A    between atoms: O_2  and  C_13
REMARK    3  A    between atoms: N_4  and  C_9
REMARK    4  A    between atoms: C_9  and  C_11
REMARK    5  A    between atoms: C_14  and  C_18
REMARK                            x       y       z     vdW  Elec       q    Type
REMARK                         _______ _______ _______ _____ _____    ______ ____
ROOT
ATOM      1  O   UNL     1      -4.989 -13.390  13.962  0.00  0.00    -0.375 OA
ATOM      4  N   UNL     1      -4.538 -11.242  15.824  0.00  0.00    -0.289 NA
ATOM      5  C   UNL     1      -3.602 -10.847  14.771  0.00  0.00    +0.131 C 
ATOM      6  C   UNL     1      -4.189 -11.129  13.383  0.00  0.00    +0.213 C 
ATOM      7  C   UNL     1      -4.445 -12.649  16.226  0.00  0.00    +0.113 C 
ATOM      8  C   UNL     1      -4.296 -12.604  13.000  0.00  0.00    +0.205 C 
ATOM     10  C   UNL     1      -4.194 -13.662  15.110  0.00  0.00    +0.175 C 
ENDROOT
BRANCH   6   2
ATOM      2  O   UNL     1      -3.369 -10.470  12.417  0.00  0.00    -0.485 OA
BRANCH   2  13
ATOM     13  C   UNL     1      -4.020  -9.810  11.411  0.00  0.00    +0.121 A 
ATOM     16  C   UNL     1      -3.371  -9.567  10.200  0.00  0.00    +0.045 A 
ATOM     17  C   UNL     1      -5.335  -9.381  11.597  0.00  0.00    +0.045 A 
ATOM     19  C   UNL     1      -4.037  -8.895   9.176  0.00  0.00    +0.004 A 
ATOM     20  C   UNL     1      -6.000  -8.708  10.573  0.00  0.00    +0.004 A 
ATOM     21  C   UNL     1      -5.351  -8.465   9.361  0.00  0.00    +0.000 A 
ENDBRANCH   2  13
ENDBRANCH   6   2
BRANCH   4   9
ATOM      9  C   UNL     1      -4.418 -10.377  17.000  0.00  0.00    +0.159 C 
BRANCH   9  11
ATOM      3  O   UNL     1      -6.693 -10.546  17.848  0.00  0.00    -0.464 OA
ATOM     11  C   UNL     1      -5.376 -10.777  18.090  0.00  0.00    +0.119 A 
ATOM     12  C   UNL     1      -5.207 -11.347  19.331  0.00  0.00    +0.046 A 
ATOM     14  C   UNL     1      -7.371 -10.973  18.944  0.00  0.00    +0.102 A 
ATOM     15  C   UNL     1      -6.502 -11.475  19.885  0.00  0.00    +0.044 A 
ATOM     18  C   UNL     1      -8.834 -10.821  18.906  0.00  0.00    +0.086 C 
ENDBRANCH   9  11
ENDBRANCH   4   9
TORSDOF 4
ENDMDL
