MODEL 1
REMARK VINA RESULT:      -7.2      0.000      0.000
REMARK  Name = 7155441
REMARK  4 active torsions:
REMARK  status: ('A' for Active; 'I' for Inactive)
REMARK    1  A    between atoms: S_1  and  N_5
REMARK    2  A    between atoms: S_1  and  C_19
REMARK    3  A    between atoms: C_15  and  C_20
REMARK    4  A    between atoms: C_21  and  C_31
REMARK                            x       y       z     vdW  Elec       q    Type
REMARK                         _______ _______ _______ _____ _____    ______ ____
ROOT
ATOM      4  O   UNL     1      -4.082 -12.872  19.124  0.00  0.00    -0.268 OA
ATOM      5  N   UNL     1      -6.088 -12.068  14.667  0.00  0.00    -0.176 NA
ATOM      6  N   UNL     1      -5.973 -12.591  17.771  0.00  0.00    -0.311 N 
ATOM      8  C   UNL     1      -6.512 -14.213  15.860  0.00  0.00    +0.025 C 
ATOM      9  C   UNL     1      -7.974 -12.286  16.278  0.00  0.00    +0.053 C 
ATOM     10  C   UNL     1      -7.953 -13.803  16.113  0.00  0.00    +0.017 C 
ATOM     11  C   UNL     1      -5.970 -13.551  14.584  0.00  0.00    +0.114 C 
ATOM     12  C   UNL     1      -7.478 -11.622  14.977  0.00  0.00    +0.119 C 
ATOM     13  C   UNL     1      -5.680 -13.862  17.095  0.00  0.00    +0.130 C 
ATOM     14  C   UNL     1      -7.126 -11.837  17.472  0.00  0.00    +0.034 A 
ATOM     15  C   UNL     1      -7.434 -10.747  18.222  0.00  0.00    +0.002 A 
ATOM     16  C   UNL     1      -5.093 -12.243  18.811  0.00  0.00    +0.252 A 
ATOM     17  C   UNL     1      -6.547 -10.354  19.300  0.00  0.00    +0.015 A 
ATOM     18  C   UNL     1      -5.435 -11.030  19.588  0.00  0.00    +0.071 A 
ENDROOT
BRANCH  15  20
ATOM     20  C   UNL     1      -8.644  -9.937  17.959  0.00  0.00    -0.016 A 
ATOM     23  C   UNL     1      -8.558  -8.810  17.145  0.00  0.00    +0.008 A 
ATOM     24  C   UNL     1      -9.860 -10.306  18.527  0.00  0.00    +0.008 A 
ATOM     27  C   UNL     1      -9.699  -8.047  16.898  0.00  0.00    +0.001 A 
ATOM     28  C   UNL     1     -11.001  -9.542  18.278  0.00  0.00    +0.001 A 
ATOM     30  C   UNL     1     -10.919  -8.413  17.464  0.00  0.00    +0.000 A 
ENDBRANCH  15  20
BRANCH   5   1
ATOM      1  S   UNL     1      -5.285 -11.190  13.439  0.00  0.00    +0.062 S 
ATOM      2  O   UNL     1      -5.979  -9.939  13.218  0.00  0.00    -0.153 OA
ATOM      3  O   UNL     1      -4.992 -12.083  12.337  0.00  0.00    -0.153 OA
BRANCH   1  19
ATOM     19  C   UNL     1      -3.766 -10.826  14.261  0.00  0.00    +0.123 A 
ATOM     21  C   UNL     1      -2.638 -10.429  13.554  0.00  0.00    +0.078 A 
ATOM     22  C   UNL     1      -3.734 -10.949  15.644  0.00  0.00    +0.030 A 
ATOM     25  C   UNL     1      -1.457 -10.152  14.242  0.00  0.00    +0.021 A 
ATOM     26  C   UNL     1      -2.553 -10.672  16.332  0.00  0.00    +0.002 A 
ATOM     29  C   UNL     1      -1.414 -10.273  15.630  0.00  0.00    +0.001 A 
BRANCH  21  31
ATOM      7  N   UNL     1      -2.652 -10.189  10.974  0.00  0.00    -0.191 NA
ATOM     31  C   UNL     1      -2.646 -10.297  12.129  0.00  0.00    +0.101 C 
ENDBRANCH  21  31
ENDBRANCH   1  19
ENDBRANCH   5   1
TORSDOF 4
ENDMDL
MODEL 2
REMARK VINA RESULT:      -7.2     27.050     29.891
REMARK  Name = 7155441
REMARK  4 active torsions:
REMARK  status: ('A' for Active; 'I' for Inactive)
REMARK    1  A    between atoms: S_1  and  N_5
REMARK    2  A    between atoms: S_1  and  C_19
REMARK    3  A    between atoms: C_15  and  C_20
REMARK    4  A    between atoms: C_21  and  C_31
REMARK                            x       y       z     vdW  Elec       q    Type
REMARK                         _______ _______ _______ _____ _____    ______ ____
ROOT
ATOM      4  O   UNL     1      12.080   7.722  18.384  0.00  0.00    -0.268 OA
ATOM      5  N   UNL     1      15.286  11.003  20.252  0.00  0.00    -0.176 NA
ATOM      6  N   UNL     1      12.517   9.820  19.328  0.00  0.00    -0.311 N 
ATOM      8  C   UNL     1      14.034  11.528  18.163  0.00  0.00    +0.025 C 
ATOM      9  C   UNL     1      13.036  12.063  20.342  0.00  0.00    +0.053 C 
ATOM     10  C   UNL     1      13.201  12.558  18.907  0.00  0.00    +0.017 C 
ATOM     11  C   UNL     1      15.417  11.371  18.814  0.00  0.00    +0.114 C 
ATOM     12  C   UNL     1      14.422  11.955  21.009  0.00  0.00    +0.119 C 
ATOM     13  C   UNL     1      13.260  10.210  18.121  0.00  0.00    +0.130 C 
ATOM     14  C   UNL     1      12.304  10.719  20.394  0.00  0.00    +0.034 A 
ATOM     15  C   UNL     1      11.489  10.366  21.422  0.00  0.00    +0.002 A 
ATOM     16  C   UNL     1      11.939   8.539  19.295  0.00  0.00    +0.252 A 
ATOM     17  C   UNL     1      10.879   9.050  21.424  0.00  0.00    +0.015 A 
ATOM     18  C   UNL     1      11.085   8.169  20.446  0.00  0.00    +0.071 A 
ENDROOT
BRANCH  15  20
ATOM     20  C   UNL     1      11.219  11.282  22.551  0.00  0.00    -0.016 A 
ATOM     23  C   UNL     1      11.322  10.817  23.859  0.00  0.00    +0.008 A 
ATOM     24  C   UNL     1      10.863  12.604  22.298  0.00  0.00    +0.008 A 
ATOM     27  C   UNL     1      11.067  11.681  24.924  0.00  0.00    +0.001 A 
ATOM     28  C   UNL     1      10.609  13.468  23.364  0.00  0.00    +0.001 A 
ATOM     30  C   UNL     1      10.711  13.006  24.676  0.00  0.00    +0.000 A 
ENDBRANCH  15  20
BRANCH   5   1
ATOM      1  S   UNL     1      16.734  10.536  21.033  0.00  0.00    +0.062 S 
ATOM      2  O   UNL     1      16.587  10.728  22.460  0.00  0.00    -0.153 OA
ATOM      3  O   UNL     1      17.859  11.103  20.318  0.00  0.00    -0.153 OA
BRANCH   1  19
ATOM     19  C   UNL     1      16.711   8.799  20.718  0.00  0.00    +0.123 A 
ATOM     21  C   UNL     1      17.712   7.964  21.196  0.00  0.00    +0.078 A 
ATOM     22  C   UNL     1      15.655   8.293  19.971  0.00  0.00    +0.030 A 
ATOM     25  C   UNL     1      17.656   6.597  20.924  0.00  0.00    +0.021 A 
ATOM     26  C   UNL     1      15.599   6.926  19.698  0.00  0.00    +0.002 A 
ATOM     29  C   UNL     1      16.600   6.078  20.175  0.00  0.00    +0.001 A 
BRANCH  21  31
ATOM      7  N   UNL     1      19.701   8.866  22.590  0.00  0.00    -0.191 NA
ATOM     31  C   UNL     1      18.810   8.463  21.966  0.00  0.00    +0.101 C 
ENDBRANCH  21  31
ENDBRANCH   1  19
ENDBRANCH   5   1
TORSDOF 4
ENDMDL
MODEL 3
REMARK VINA RESULT:      -7.0      2.599      4.247
REMARK  Name = 7155441
REMARK  4 active torsions:
REMARK  status: ('A' for Active; 'I' for Inactive)
REMARK    1  A    between atoms: S_1  and  N_5
REMARK    2  A    between atoms: S_1  and  C_19
REMARK    3  A    between atoms: C_15  and  C_20
REMARK    4  A    between atoms: C_21  and  C_31
REMARK                            x       y       z     vdW  Elec       q    Type
REMARK                         _______ _______ _______ _____ _____    ______ ____
ROOT
ATOM      4  O   UNL     1      -0.937 -12.435  13.657  0.00  0.00    -0.268 OA
ATOM      5  N   UNL     1      -5.853 -12.340  13.063  0.00  0.00    -0.176 NA
ATOM      6  N   UNL     1      -3.090 -12.796  14.505  0.00  0.00    -0.311 N 
ATOM      8  C   UNL     1      -4.682 -14.505  13.445  0.00  0.00    +0.025 C 
ATOM      9  C   UNL     1      -5.422 -13.171  15.369  0.00  0.00    +0.053 C 
ATOM     10  C   UNL     1      -5.279 -14.596  14.840  0.00  0.00    +0.017 C 
ATOM     11  C   UNL     1      -5.597 -13.700  12.510  0.00  0.00    +0.114 C 
ATOM     12  C   UNL     1      -6.382 -12.380  14.457  0.00  0.00    +0.119 C 
ATOM     13  C   UNL     1      -3.282 -13.897  13.551  0.00  0.00    +0.130 C 
ATOM     14  C   UNL     1      -4.066 -12.467  15.468  0.00  0.00    +0.034 A 
ATOM     15  C   UNL     1      -3.787 -11.541  16.422  0.00  0.00    +0.002 A 
ATOM     16  C   UNL     1      -1.829 -12.176  14.466  0.00  0.00    +0.252 A 
ATOM     17  C   UNL     1      -2.498 -10.876  16.411  0.00  0.00    +0.015 A 
ATOM     18  C   UNL     1      -1.567 -11.145  15.496  0.00  0.00    +0.071 A 
ENDROOT
BRANCH  15  20
ATOM     20  C   UNL     1      -4.771 -11.178  17.466  0.00  0.00    -0.016 A 
ATOM     23  C   UNL     1      -5.780 -10.264  17.176  0.00  0.00    +0.008 A 
ATOM     24  C   UNL     1      -4.680 -11.753  18.731  0.00  0.00    +0.008 A 
ATOM     27  C   UNL     1      -6.707  -9.921  18.160  0.00  0.00    +0.001 A 
ATOM     28  C   UNL     1      -5.609 -11.410  19.714  0.00  0.00    +0.001 A 
ATOM     30  C   UNL     1      -6.622 -10.495  19.429  0.00  0.00    +0.000 A 
ENDBRANCH  15  20
BRANCH   5   1
ATOM      1  S   UNL     1      -6.634 -11.245  12.006  0.00  0.00    +0.062 S 
ATOM      2  O   UNL     1      -7.377 -10.279  12.788  0.00  0.00    -0.153 OA
ATOM      3  O   UNL     1      -7.273 -11.991  10.942  0.00  0.00    -0.153 OA
BRANCH   1  19
ATOM     19  C   UNL     1      -5.231 -10.419  11.323  0.00  0.00    +0.123 A 
ATOM     21  C   UNL     1      -5.373  -9.422  10.367  0.00  0.00    +0.078 A 
ATOM     22  C   UNL     1      -3.974 -10.801  11.774  0.00  0.00    +0.030 A 
ATOM     25  C   UNL     1      -4.239  -8.796   9.852  0.00  0.00    +0.021 A 
ATOM     26  C   UNL     1      -2.839 -10.175  11.259  0.00  0.00    +0.002 A 
ATOM     29  C   UNL     1      -2.972  -9.172  10.297  0.00  0.00    +0.001 A 
BRANCH  21  31
ATOM      7  N   UNL     1      -7.698  -8.681   9.495  0.00  0.00    -0.191 NA
ATOM     31  C   UNL     1      -6.658  -9.013   9.885  0.00  0.00    +0.101 C 
ENDBRANCH  21  31
ENDBRANCH   1  19
ENDBRANCH   5   1
TORSDOF 4
ENDMDL
MODEL 4
REMARK VINA RESULT:      -6.6     24.951     27.999
REMARK  Name = 7155441
REMARK  4 active torsions:
REMARK  status: ('A' for Active; 'I' for Inactive)
REMARK    1  A    between atoms: S_1  and  N_5
REMARK    2  A    between atoms: S_1  and  C_19
REMARK    3  A    between atoms: C_15  and  C_20
REMARK    4  A    between atoms: C_21  and  C_31
REMARK                            x       y       z     vdW  Elec       q    Type
REMARK                         _______ _______ _______ _____ _____    ______ ____
ROOT
ATOM      4  O   UNL     1       8.751  10.168   2.634  0.00  0.00    -0.268 OA
ATOM      5  N   UNL     1      12.986   7.916   3.867  0.00  0.00    -0.176 NA
ATOM      6  N   UNL     1      10.148   9.225   4.260  0.00  0.00    -0.311 N 
ATOM      8  C   UNL     1      12.473  10.187   4.755  0.00  0.00    +0.025 C 
ATOM      9  C   UNL     1      11.685   8.204   5.969  0.00  0.00    +0.053 C 
ATOM     10  C   UNL     1      12.257   9.609   6.144  0.00  0.00    +0.017 C 
ATOM     11  C   UNL     1      13.461   9.326   3.953  0.00  0.00    +0.114 C 
ATOM     12  C   UNL     1      12.700   7.328   5.209  0.00  0.00    +0.119 C 
ATOM     13  C   UNL     1      11.116  10.312   4.061  0.00  0.00    +0.130 C 
ATOM     14  C   UNL     1      10.338   8.230   5.240  0.00  0.00    +0.034 A 
ATOM     15  C   UNL     1       9.351   7.331   5.490  0.00  0.00    +0.002 A 
ATOM     16  C   UNL     1       8.974   9.313   3.492  0.00  0.00    +0.252 A 
ATOM     17  C   UNL     1       8.127   7.387   4.714  0.00  0.00    +0.015 A 
ATOM     18  C   UNL     1       7.930   8.298   3.761  0.00  0.00    +0.071 A 
ENDROOT
BRANCH  15  20
ATOM     20  C   UNL     1       9.496   6.281   6.523  0.00  0.00    -0.016 A 
ATOM     23  C   UNL     1       9.329   6.606   7.866  0.00  0.00    +0.008 A 
ATOM     24  C   UNL     1       9.798   4.976   6.144  0.00  0.00    +0.008 A 
ATOM     27  C   UNL     1       9.466   5.617   8.840  0.00  0.00    +0.001 A 
ATOM     28  C   UNL     1       9.934   3.987   7.119  0.00  0.00    +0.001 A 
ATOM     30  C   UNL     1       9.768   4.307   8.466  0.00  0.00    +0.000 A 
ENDBRANCH  15  20
BRANCH   5   1
ATOM      1  S   UNL     1      13.845   6.909   2.785  0.00  0.00    +0.062 S 
ATOM      2  O   UNL     1      14.884   6.209   3.510  0.00  0.00    -0.153 OA
ATOM      3  O   UNL     1      14.151   7.659   1.585  0.00  0.00    -0.153 OA
BRANCH   1  19
ATOM     19  C   UNL     1      12.586   5.738   2.386  0.00  0.00    +0.123 A 
ATOM     21  C   UNL     1      12.896   4.501   1.835  0.00  0.00    +0.078 A 
ATOM     22  C   UNL     1      11.268   6.095   2.641  0.00  0.00    +0.030 A 
ATOM     25  C   UNL     1      11.870   3.605   1.533  0.00  0.00    +0.021 A 
ATOM     26  C   UNL     1      10.241   5.199   2.339  0.00  0.00    +0.002 A 
ATOM     29  C   UNL     1      10.544   3.954   1.785  0.00  0.00    +0.001 A 
BRANCH  21  31
ATOM      7  N   UNL     1      15.339   3.796   1.339  0.00  0.00    -0.191 NA
ATOM     31  C   UNL     1      14.246   4.112   1.561  0.00  0.00    +0.101 C 
ENDBRANCH  21  31
ENDBRANCH   1  19
ENDBRANCH   5   1
TORSDOF 4
ENDMDL
MODEL 5
REMARK VINA RESULT:      -6.5     25.098     27.709
REMARK  Name = 7155441
REMARK  4 active torsions:
REMARK  status: ('A' for Active; 'I' for Inactive)
REMARK    1  A    between atoms: S_1  and  N_5
REMARK    2  A    between atoms: S_1  and  C_19
REMARK    3  A    between atoms: C_15  and  C_20
REMARK    4  A    between atoms: C_21  and  C_31
REMARK                            x       y       z     vdW  Elec       q    Type
REMARK                         _______ _______ _______ _____ _____    ______ ____
ROOT
ATOM      4  O   UNL     1      21.941  -7.000  23.606  0.00  0.00    -0.268 OA
ATOM      5  N   UNL     1      19.612  -4.456  27.161  0.00  0.00    -0.176 NA
ATOM      6  N   UNL     1      20.895  -5.038  24.344  0.00  0.00    -0.311 N 
ATOM      8  C   UNL     1      21.822  -3.680  26.312  0.00  0.00    +0.025 C 
ATOM      9  C   UNL     1      19.767  -2.953  25.183  0.00  0.00    +0.053 C 
ATOM     10  C   UNL     1      21.157  -2.501  25.622  0.00  0.00    +0.017 C 
ATOM     11  C   UNL     1      21.013  -4.121  27.542  0.00  0.00    +0.114 C 
ATOM     12  C   UNL     1      18.940  -3.346  26.423  0.00  0.00    +0.119 C 
ATOM     13  C   UNL     1      21.992  -4.810  25.294  0.00  0.00    +0.130 C 
ATOM     14  C   UNL     1      19.840  -4.116  24.189  0.00  0.00    +0.034 A 
ATOM     15  C   UNL     1      18.928  -4.294  23.198  0.00  0.00    +0.002 A 
ATOM     16  C   UNL     1      21.032  -6.172  23.524  0.00  0.00    +0.252 A 
ATOM     17  C   UNL     1      19.034  -5.455  22.336  0.00  0.00    +0.015 A 
ATOM     18  C   UNL     1      20.003  -6.359  22.476  0.00  0.00    +0.071 A 
ENDROOT
BRANCH  15  20
ATOM     20  C   UNL     1      17.815  -3.343  22.984  0.00  0.00    -0.016 A 
ATOM     23  C   UNL     1      16.504  -3.746  23.222  0.00  0.00    +0.008 A 
ATOM     24  C   UNL     1      18.087  -2.049  22.546  0.00  0.00    +0.008 A 
ATOM     27  C   UNL     1      15.456  -2.849  23.020  0.00  0.00    +0.001 A 
ATOM     28  C   UNL     1      17.037  -1.152  22.345  0.00  0.00    +0.001 A 
ATOM     30  C   UNL     1      15.722  -1.553  22.582  0.00  0.00    +0.000 A 
ENDBRANCH  15  20
BRANCH   5   1
ATOM      1  S   UNL     1      18.674  -5.212  28.374  0.00  0.00    +0.062 S 
ATOM      2  O   UNL     1      17.845  -4.218  29.023  0.00  0.00    -0.153 OA
ATOM      3  O   UNL     1      19.526  -6.092  29.148  0.00  0.00    -0.153 OA
BRANCH   1  19
ATOM     19  C   UNL     1      17.624  -6.218  27.372  0.00  0.00    +0.123 A 
ATOM     21  C   UNL     1      16.436  -6.740  27.867  0.00  0.00    +0.078 A 
ATOM     22  C   UNL     1      18.026  -6.472  26.068  0.00  0.00    +0.030 A 
ATOM     25  C   UNL     1      15.636  -7.531  27.043  0.00  0.00    +0.021 A 
ATOM     26  C   UNL     1      17.226  -7.263  25.242  0.00  0.00    +0.002 A 
ATOM     29  C   UNL     1      16.031  -7.793  25.731  0.00  0.00    +0.001 A 
BRANCH  21  31
ATOM      7  N   UNL     1      15.650  -6.296  30.295  0.00  0.00    -0.191 NA
ATOM     31  C   UNL     1      16.002  -6.494  29.209  0.00  0.00    +0.101 C 
ENDBRANCH  21  31
ENDBRANCH   1  19
ENDBRANCH   5   1
TORSDOF 4
ENDMDL
MODEL 6
REMARK VINA RESULT:      -6.5     25.573     27.681
REMARK  Name = 7155441
REMARK  4 active torsions:
REMARK  status: ('A' for Active; 'I' for Inactive)
REMARK    1  A    between atoms: S_1  and  N_5
REMARK    2  A    between atoms: S_1  and  C_19
REMARK    3  A    between atoms: C_15  and  C_20
REMARK    4  A    between atoms: C_21  and  C_31
REMARK                            x       y       z     vdW  Elec       q    Type
REMARK                         _______ _______ _______ _____ _____    ______ ____
ROOT
ATOM      4  O   UNL     1      18.907  -8.779  26.581  0.00  0.00    -0.268 OA
ATOM      5  N   UNL     1      18.972  -4.207  28.485  0.00  0.00    -0.176 NA
ATOM      6  N   UNL     1      19.286  -6.482  26.329  0.00  0.00    -0.311 N 
ATOM      8  C   UNL     1      21.085  -5.260  27.688  0.00  0.00    +0.025 C 
ATOM      9  C   UNL     1      19.684  -4.008  26.108  0.00  0.00    +0.053 C 
ATOM     10  C   UNL     1      21.127  -4.309  26.504  0.00  0.00    +0.017 C 
ATOM     11  C   UNL     1      20.349  -4.622  28.876  0.00  0.00    +0.114 C 
ATOM     12  C   UNL     1      18.962  -3.321  27.285  0.00  0.00    +0.119 C 
ATOM     13  C   UNL     1      20.436  -6.570  27.240  0.00  0.00    +0.130 C 
ATOM     14  C   UNL     1      18.939  -5.277  25.683  0.00  0.00    +0.034 A 
ATOM     15  C   UNL     1      17.963  -5.274  24.739  0.00  0.00    +0.002 A 
ATOM     16  C   UNL     1      18.635  -7.698  26.058  0.00  0.00    +0.252 A 
ATOM     17  C   UNL     1      17.265  -6.509  24.436  0.00  0.00    +0.015 A 
ATOM     18  C   UNL     1      17.551  -7.657  25.050  0.00  0.00    +0.071 A 
ENDROOT
BRANCH  15  20
ATOM     20  C   UNL     1      17.578  -4.040  24.020  0.00  0.00    -0.016 A 
ATOM     23  C   UNL     1      16.461  -3.319  24.433  0.00  0.00    +0.008 A 
ATOM     24  C   UNL     1      18.336  -3.607  22.935  0.00  0.00    +0.008 A 
ATOM     27  C   UNL     1      16.099  -2.155  23.756  0.00  0.00    +0.001 A 
ATOM     28  C   UNL     1      17.973  -2.442  22.258  0.00  0.00    +0.001 A 
ATOM     30  C   UNL     1      16.855  -1.717  22.669  0.00  0.00    +0.000 A 
ENDBRANCH  15  20
BRANCH   5   1
ATOM      1  S   UNL     1      17.949  -3.728  29.769  0.00  0.00    +0.062 S 
ATOM      2  O   UNL     1      17.419  -2.411  29.486  0.00  0.00    -0.153 OA
ATOM      3  O   UNL     1      18.608  -4.011  31.027  0.00  0.00    -0.153 OA
BRANCH   1  19
ATOM     19  C   UNL     1      16.636  -4.891  29.570  0.00  0.00    +0.123 A 
ATOM     21  C   UNL     1      15.528  -4.881  30.407  0.00  0.00    +0.078 A 
ATOM     22  C   UNL     1      16.747  -5.821  28.545  0.00  0.00    +0.030 A 
ATOM     25  C   UNL     1      14.513  -5.819  30.217  0.00  0.00    +0.021 A 
ATOM     26  C   UNL     1      15.732  -6.759  28.353  0.00  0.00    +0.002 A 
ATOM     29  C   UNL     1      14.615  -6.757  29.190  0.00  0.00    +0.001 A 
BRANCH  21  31
ATOM      7  N   UNL     1      15.283  -3.167  32.334  0.00  0.00    -0.191 NA
ATOM     31  C   UNL     1      15.392  -3.934  31.472  0.00  0.00    +0.101 C 
ENDBRANCH  21  31
ENDBRANCH   1  19
ENDBRANCH   5   1
TORSDOF 4
ENDMDL
MODEL 7
REMARK VINA RESULT:      -6.4     25.038     28.089
REMARK  Name = 7155441
REMARK  4 active torsions:
REMARK  status: ('A' for Active; 'I' for Inactive)
REMARK    1  A    between atoms: S_1  and  N_5
REMARK    2  A    between atoms: S_1  and  C_19
REMARK    3  A    between atoms: C_15  and  C_20
REMARK    4  A    between atoms: C_21  and  C_31
REMARK                            x       y       z     vdW  Elec       q    Type
REMARK                         _______ _______ _______ _____ _____    ______ ____
ROOT
ATOM      4  O   UNL     1      19.500  -5.061  21.252  0.00  0.00    -0.268 OA
ATOM      5  N   UNL     1      18.930  -1.990  25.096  0.00  0.00    -0.176 NA
ATOM      6  N   UNL     1      18.217  -4.274  23.047  0.00  0.00    -0.311 N 
ATOM      8  C   UNL     1      17.389  -1.848  23.143  0.00  0.00    +0.025 C 
ATOM      9  C   UNL     1      16.876  -3.391  24.983  0.00  0.00    +0.053 C 
ATOM     10  C   UNL     1      16.257  -2.422  23.979  0.00  0.00    +0.017 C 
ATOM     11  C   UNL     1      18.396  -1.098  24.029  0.00  0.00    +0.114 C 
ATOM     12  C   UNL     1      17.848  -2.626  25.903  0.00  0.00    +0.119 C 
ATOM     13  C   UNL     1      18.043  -2.987  22.358  0.00  0.00    +0.130 C 
ATOM     14  C   UNL     1      17.593  -4.548  24.280  0.00  0.00    +0.034 A 
ATOM     15  C   UNL     1      17.661  -5.798  24.808  0.00  0.00    +0.002 A 
ATOM     16  C   UNL     1      18.948  -5.243  22.338  0.00  0.00    +0.252 A 
ATOM     17  C   UNL     1      18.410  -6.824  24.108  0.00  0.00    +0.015 A 
ATOM     18  C   UNL     1      19.035  -6.587  22.955  0.00  0.00    +0.071 A 
ENDROOT
BRANCH  15  20
ATOM     20  C   UNL     1      17.005  -6.140  26.089  0.00  0.00    -0.016 A 
ATOM     23  C   UNL     1      15.705  -6.637  26.090  0.00  0.00    +0.008 A 
ATOM     24  C   UNL     1      17.693  -5.961  27.287  0.00  0.00    +0.008 A 
ATOM     27  C   UNL     1      15.087  -6.959  27.298  0.00  0.00    +0.001 A 
ATOM     28  C   UNL     1      17.074  -6.284  28.495  0.00  0.00    +0.001 A 
ATOM     30  C   UNL     1      15.772  -6.782  28.500  0.00  0.00    +0.000 A 
ENDBRANCH  15  20
BRANCH   5   1
ATOM      1  S   UNL     1      20.252  -1.372  25.987  0.00  0.00    +0.062 S 
ATOM      2  O   UNL     1      19.918  -1.374  27.396  0.00  0.00    -0.153 OA
ATOM      3  O   UNL     1      20.737  -0.172  25.339  0.00  0.00    -0.153 OA
BRANCH   1  19
ATOM     19  C   UNL     1      21.436  -2.653  25.714  0.00  0.00    +0.123 A 
ATOM     21  C   UNL     1      22.760  -2.511  26.110  0.00  0.00    +0.078 A 
ATOM     22  C   UNL     1      21.000  -3.812  25.085  0.00  0.00    +0.030 A 
ATOM     25  C   UNL     1      23.663  -3.547  25.874  0.00  0.00    +0.021 A 
ATOM     26  C   UNL     1      21.904  -4.848  24.849  0.00  0.00    +0.002 A 
ATOM     29  C   UNL     1      23.236  -4.715  25.244  0.00  0.00    +0.001 A 
BRANCH  21  31
ATOM      7  N   UNL     1      23.616  -0.365  27.283  0.00  0.00    -0.191 NA
ATOM     31  C   UNL     1      23.233  -1.325  26.758  0.00  0.00    +0.101 C 
ENDBRANCH  21  31
ENDBRANCH   1  19
ENDBRANCH   5   1
TORSDOF 4
ENDMDL
MODEL 8
REMARK VINA RESULT:      -6.4     25.459     28.625
REMARK  Name = 7155441
REMARK  4 active torsions:
REMARK  status: ('A' for Active; 'I' for Inactive)
REMARK    1  A    between atoms: S_1  and  N_5
REMARK    2  A    between atoms: S_1  and  C_19
REMARK    3  A    between atoms: C_15  and  C_20
REMARK    4  A    between atoms: C_21  and  C_31
REMARK                            x       y       z     vdW  Elec       q    Type
REMARK                         _______ _______ _______ _____ _____    ______ ____
ROOT
ATOM      4  O   UNL     1       7.196   9.013   4.066  0.00  0.00    -0.268 OA
ATOM      5  N   UNL     1      11.299   7.853   6.586  0.00  0.00    -0.176 NA
ATOM      6  N   UNL     1       8.800   7.434   4.716  0.00  0.00    -0.311 N 
ATOM      8  C   UNL     1       9.127   6.786   7.175  0.00  0.00    +0.025 C 
ATOM      9  C   UNL     1      10.544   5.775   5.444  0.00  0.00    +0.053 C 
ATOM     10  C   UNL     1       9.610   5.461   6.610  0.00  0.00    +0.017 C 
ATOM     11  C   UNL     1      10.308   7.630   7.677  0.00  0.00    +0.114 C 
ATOM     12  C   UNL     1      11.754   6.578   5.959  0.00  0.00    +0.119 C 
ATOM     13  C   UNL     1       8.312   7.508   6.100  0.00  0.00    +0.130 C 
ATOM     14  C   UNL     1       9.819   6.540   4.332  0.00  0.00    +0.034 A 
ATOM     15  C   UNL     1      10.136   6.400   3.018  0.00  0.00    +0.002 A 
ATOM     16  C   UNL     1       8.103   8.227   3.787  0.00  0.00    +0.252 A 
ATOM     17  C   UNL     1       9.442   7.205   2.032  0.00  0.00    +0.015 A 
ATOM     18  C   UNL     1       8.494   8.080   2.367  0.00  0.00    +0.071 A 
ENDROOT
BRANCH  15  20
ATOM     20  C   UNL     1      11.184   5.459   2.566  0.00  0.00    -0.016 A 
ATOM     23  C   UNL     1      10.914   4.095   2.515  0.00  0.00    +0.008 A 
ATOM     24  C   UNL     1      12.435   5.945   2.193  0.00  0.00    +0.008 A 
ATOM     27  C   UNL     1      11.902   3.208   2.088  0.00  0.00    +0.001 A 
ATOM     28  C   UNL     1      13.423   5.057   1.766  0.00  0.00    +0.001 A 
ATOM     30  C   UNL     1      13.156   3.690   1.714  0.00  0.00    +0.000 A 
ENDBRANCH  15  20
BRANCH   5   1
ATOM      1  S   UNL     1      12.528   8.993   6.923  0.00  0.00    +0.062 S 
ATOM      2  O   UNL     1      13.807   8.315   6.964  0.00  0.00    -0.153 OA
ATOM      3  O   UNL     1      12.099   9.839   8.017  0.00  0.00    -0.153 OA
BRANCH   1  19
ATOM     19  C   UNL     1      12.475   9.953   5.442  0.00  0.00    +0.123 A 
ATOM     21  C   UNL     1      13.422  10.935   5.182  0.00  0.00    +0.078 A 
ATOM     22  C   UNL     1      11.450   9.695   4.542  0.00  0.00    +0.030 A 
ATOM     25  C   UNL     1      13.343  11.672   4.000  0.00  0.00    +0.021 A 
ATOM     26  C   UNL     1      11.370  10.432   3.359  0.00  0.00    +0.002 A 
ATOM     29  C   UNL     1      12.318  11.421   3.089  0.00  0.00    +0.001 A 
BRANCH  21  31
ATOM      7  N   UNL     1      15.349  11.453   6.836  0.00  0.00    -0.191 NA
ATOM     31  C   UNL     1      14.487  11.221   6.095  0.00  0.00    +0.101 C 
ENDBRANCH  21  31
ENDBRANCH   1  19
ENDBRANCH   5   1
TORSDOF 4
ENDMDL
MODEL 9
REMARK VINA RESULT:      -6.1     20.024     22.277
REMARK  Name = 7155441
REMARK  4 active torsions:
REMARK  status: ('A' for Active; 'I' for Inactive)
REMARK    1  A    between atoms: S_1  and  N_5
REMARK    2  A    between atoms: S_1  and  C_19
REMARK    3  A    between atoms: C_15  and  C_20
REMARK    4  A    between atoms: C_21  and  C_31
REMARK                            x       y       z     vdW  Elec       q    Type
REMARK                         _______ _______ _______ _____ _____    ______ ____
ROOT
ATOM      4  O   UNL     1     -15.124   5.867  23.455  0.00  0.00    -0.268 OA
ATOM      5  N   UNL     1     -16.238   9.340  20.104  0.00  0.00    -0.176 NA
ATOM      6  N   UNL     1     -14.514   7.754  22.210  0.00  0.00    -0.311 N 
ATOM      8  C   UNL     1     -15.751   9.987  22.460  0.00  0.00    +0.025 C 
ATOM      9  C   UNL     1     -13.906   9.783  20.853  0.00  0.00    +0.053 C 
ATOM     10  C   UNL     1     -14.429  10.601  22.031  0.00  0.00    +0.017 C 
ATOM     11  C   UNL     1     -16.771  10.030  21.312  0.00  0.00    +0.114 C 
ATOM     12  C   UNL     1     -14.908   9.870  19.684  0.00  0.00    +0.119 C 
ATOM     13  C   UNL     1     -15.491   8.562  22.952  0.00  0.00    +0.130 C 
ATOM     14  C   UNL     1     -13.657   8.324  21.245  0.00  0.00    +0.034 A 
ATOM     15  C   UNL     1     -12.671   7.572  20.690  0.00  0.00    +0.002 A 
ATOM     16  C   UNL     1     -14.413   6.410  22.609  0.00  0.00    +0.252 A 
ATOM     17  C   UNL     1     -12.539   6.180  21.074  0.00  0.00    +0.015 A 
ATOM     18  C   UNL     1     -13.352   5.606  21.961  0.00  0.00    +0.071 A 
ENDROOT
BRANCH  15  20
ATOM     20  C   UNL     1     -11.735   8.130  19.690  0.00  0.00    -0.016 A 
ATOM     23  C   UNL     1     -11.700   7.599  18.404  0.00  0.00    +0.008 A 
ATOM     24  C   UNL     1     -10.896   9.185  20.042  0.00  0.00    +0.008 A 
ATOM     27  C   UNL     1     -10.817   8.126  17.461  0.00  0.00    +0.001 A 
ATOM     28  C   UNL     1     -10.014   9.712  19.098  0.00  0.00    +0.001 A 
ATOM     30  C   UNL     1      -9.975   9.182  17.808  0.00  0.00    +0.000 A 
ENDBRANCH  15  20
BRANCH   5   1
ATOM      1  S   UNL     1     -17.362   9.078  18.842  0.00  0.00    +0.062 S 
ATOM      2  O   UNL     1     -16.785   9.523  17.591  0.00  0.00    -0.153 OA
ATOM      3  O   UNL     1     -18.666   9.544  19.268  0.00  0.00    -0.153 OA
BRANCH   1  19
ATOM     19  C   UNL     1     -17.398   7.313  18.820  0.00  0.00    +0.123 A 
ATOM     21  C   UNL     1     -18.113   6.616  17.855  0.00  0.00    +0.078 A 
ATOM     22  C   UNL     1     -16.686   6.640  19.805  0.00  0.00    +0.030 A 
ATOM     25  C   UNL     1     -18.116   5.221  17.874  0.00  0.00    +0.021 A 
ATOM     26  C   UNL     1     -16.689   5.245  19.825  0.00  0.00    +0.002 A 
ATOM     29  C   UNL     1     -17.404   4.536  18.858  0.00  0.00    +0.001 A 
BRANCH  21  31
ATOM      7  N   UNL     1     -19.457   7.830  16.003  0.00  0.00    -0.191 NA
ATOM     31  C   UNL     1     -18.856   7.286  16.832  0.00  0.00    +0.101 C 
ENDBRANCH  21  31
ENDBRANCH   1  19
ENDBRANCH   5   1
TORSDOF 4
ENDMDL
MODEL 10
REMARK VINA RESULT:      -6.1     25.730     28.644
REMARK  Name = 7155441
REMARK  4 active torsions:
REMARK  status: ('A' for Active; 'I' for Inactive)
REMARK    1  A    between atoms: S_1  and  N_5
REMARK    2  A    between atoms: S_1  and  C_19
REMARK    3  A    between atoms: C_15  and  C_20
REMARK    4  A    between atoms: C_21  and  C_31
REMARK                            x       y       z     vdW  Elec       q    Type
REMARK                         _______ _______ _______ _____ _____    ______ ____
ROOT
ATOM      4  O   UNL     1      15.510   6.848   1.613  0.00  0.00    -0.268 OA
ATOM      5  N   UNL     1      11.332   4.771  -0.048  0.00  0.00    -0.176 NA
ATOM      6  N   UNL     1      13.571   5.595   2.008  0.00  0.00    -0.311 N 
ATOM      8  C   UNL     1      13.167   3.344   0.848  0.00  0.00    +0.025 C 
ATOM      9  C   UNL     1      11.478   4.252   2.381  0.00  0.00    +0.053 C 
ATOM     10  C   UNL     1      12.334   3.025   2.079  0.00  0.00    +0.017 C 
ATOM     11  C   UNL     1      12.265   3.651  -0.357  0.00  0.00    +0.114 C 
ATOM     12  C   UNL     1      10.538   4.527   1.191  0.00  0.00    +0.119 C 
ATOM     13  C   UNL     1      14.106   4.505   1.181  0.00  0.00    +0.130 C 
ATOM     14  C   UNL     1      12.341   5.481   2.686  0.00  0.00    +0.034 A 
ATOM     15  C   UNL     1      11.955   6.451   3.555  0.00  0.00    +0.002 A 
ATOM     16  C   UNL     1      14.420   6.704   2.168  0.00  0.00    +0.252 A 
ATOM     17  C   UNL     1      12.803   7.612   3.743  0.00  0.00    +0.015 A 
ATOM     18  C   UNL     1      13.958   7.763   3.094  0.00  0.00    +0.071 A 
ENDROOT
BRANCH  15  20
ATOM     20  C   UNL     1      10.683   6.365   4.304  0.00  0.00    -0.016 A 
ATOM     23  C   UNL     1      10.612   5.593   5.460  0.00  0.00    +0.008 A 
ATOM     24  C   UNL     1       9.564   7.057   3.848  0.00  0.00    +0.008 A 
ATOM     27  C   UNL     1       9.412   5.512   6.167  0.00  0.00    +0.001 A 
ATOM     28  C   UNL     1       8.364   6.976   4.556  0.00  0.00    +0.001 A 
ATOM     30  C   UNL     1       8.289   6.204   5.715  0.00  0.00    +0.000 A 
ENDBRANCH  15  20
BRANCH   5   1
ATOM      1  S   UNL     1      10.457   5.395  -1.378  0.00  0.00    +0.062 S 
ATOM      2  O   UNL     1       9.189   4.703  -1.479  0.00  0.00    -0.153 OA
ATOM      3  O   UNL     1      11.342   5.496  -2.520  0.00  0.00    -0.153 OA
BRANCH   1  19
ATOM     19  C   UNL     1      10.133   7.030  -0.796  0.00  0.00    +0.123 A 
ATOM     21  C   UNL     1       9.122   7.807  -1.347  0.00  0.00    +0.078 A 
ATOM     22  C   UNL     1      10.926   7.518   0.234  0.00  0.00    +0.030 A 
ATOM     25  C   UNL     1       8.900   9.095  -0.859  0.00  0.00    +0.021 A 
ATOM     26  C   UNL     1      10.705   8.806   0.723  0.00  0.00    +0.002 A 
ATOM     29  C   UNL     1       9.691   9.594   0.175  0.00  0.00    +0.001 A 
BRANCH  21  31
ATOM      7  N   UNL     1       7.622   6.939  -3.273  0.00  0.00    -0.191 NA
ATOM     31  C   UNL     1       8.293   7.327  -2.411  0.00  0.00    +0.101 C 
ENDBRANCH  21  31
ENDBRANCH   1  19
ENDBRANCH   5   1
TORSDOF 4
ENDMDL
