MODEL 1
REMARK VINA RESULT:      -6.3      0.000      0.000
REMARK  Name = 75536305
REMARK  9 active torsions:
REMARK  status: ('A' for Active; 'I' for Inactive)
REMARK    1  A    between atoms: O_2  and  C_10
REMARK    2  A    between atoms: O_5  and  C_19
REMARK    3  A    between atoms: O_5  and  C_25
REMARK    4  A    between atoms: N_6  and  C_14
REMARK    5  A    between atoms: C_8  and  C_13
REMARK    6  A    between atoms: C_9  and  C_14
REMARK    7  A    between atoms: C_13  and  C_15
REMARK    8  A    between atoms: C_17  and  C_19
REMARK    9  A    between atoms: C_18  and  C_20
REMARK                            x       y       z     vdW  Elec       q    Type
REMARK                         _______ _______ _______ _____ _____    ______ ____
ROOT
ATOM      1  O   UNL     1      11.149  11.589  22.128  0.00  0.00    -0.369 OA
ATOM      8  C   UNL     1      11.525  10.550  23.034  0.00  0.00    +0.125 C 
ATOM      9  C   UNL     1      11.485  12.917  22.550  0.00  0.00    +0.164 C 
ATOM     10  C   UNL     1      10.897  13.229  23.933  0.00  0.00    +0.145 C 
ATOM     11  C   UNL     1      10.864  10.758  24.397  0.00  0.00    +0.034 C 
ATOM     12  C   UNL     1      11.204  12.137  24.954  0.00  0.00    +0.036 C 
ENDROOT
BRANCH  10   2
ATOM      2  O   UNL     1       9.475  13.331  23.816  0.00  0.00    -0.389 OA
ATOM     32  H   UNL     1       9.100  12.463  24.044  0.00  0.00    +0.210 HD
ENDBRANCH  10   2
BRANCH   8  13
ATOM     13  C   UNL     1      11.092   9.225  22.418  0.00  0.00    +0.090 C 
BRANCH  13  15
ATOM      3  O   UNL     1      13.369   6.728  21.165  0.00  0.00    -0.354 OA
ATOM      7  N   UNL     1      12.105   7.156  21.551  0.00  0.00    -0.083 NA
ATOM     15  C   UNL     1      12.270   8.426  21.929  0.00  0.00    +0.087 A 
ATOM     16  C   UNL     1      13.605   8.851  21.805  0.00  0.00    +0.076 A 
ATOM     18  C   UNL     1      14.253   7.746  21.321  0.00  0.00    +0.167 A 
BRANCH  18  20
ATOM     20  C   UNL     1      15.610   7.453  20.959  0.00  0.00    +0.020 A 
ATOM     21  C   UNL     1      16.651   8.234  21.461  0.00  0.00    +0.011 A 
ATOM     22  C   UNL     1      15.888   6.387  20.104  0.00  0.00    +0.011 A 
ATOM     23  C   UNL     1      17.970   7.948  21.109  0.00  0.00    +0.001 A 
ATOM     24  C   UNL     1      17.208   6.102  19.751  0.00  0.00    +0.001 A 
ATOM     26  C   UNL     1      18.248   6.883  20.253  0.00  0.00    +0.000 A 
ENDBRANCH  18  20
ENDBRANCH  13  15
ENDBRANCH   8  13
BRANCH   9  14
ATOM     14  C   UNL     1      12.992  13.155  22.476  0.00  0.00    +0.138 C 
BRANCH  14   6
ATOM      4  O   UNL     1      14.101  13.990  19.938  0.00  0.00    -0.272 OA
ATOM      6  N   UNL     1      13.594  12.322  21.479  0.00  0.00    -0.310 N 
ATOM     17  C   UNL     1      14.105  12.811  20.279  0.00  0.00    +0.251 C 
ATOM     33  H   UNL     1      13.614  11.320  21.649  0.00  0.00    +0.149 HD
BRANCH  17  19
ATOM     19  C   UNL     1      14.683  11.710  19.414  0.00  0.00    +0.324 C 
BRANCH  19   5
ATOM      5  O   UNL     1      13.819  11.420  18.335  0.00  0.00    -0.483 OA
BRANCH   5  25
ATOM     25  C   UNL     1      13.459  10.105  18.156  0.00  0.00    +0.121 A 
ATOM     27  C   UNL     1      12.166   9.688  18.471  0.00  0.00    +0.045 A 
ATOM     28  C   UNL     1      14.385   9.190  17.659  0.00  0.00    +0.045 A 
ATOM     29  C   UNL     1      11.800   8.354  18.290  0.00  0.00    +0.004 A 
ATOM     30  C   UNL     1      14.020   7.856  17.478  0.00  0.00    +0.004 A 
ATOM     31  C   UNL     1      12.727   7.437  17.793  0.00  0.00    +0.000 A 
ENDBRANCH   5  25
ENDBRANCH  19   5
ENDBRANCH  17  19
ENDBRANCH  14   6
ENDBRANCH   9  14
TORSDOF 9
ENDMDL
MODEL 2
REMARK VINA RESULT:      -6.3     26.955     29.165
REMARK  Name = 75536305
REMARK  9 active torsions:
REMARK  status: ('A' for Active; 'I' for Inactive)
REMARK    1  A    between atoms: O_2  and  C_10
REMARK    2  A    between atoms: O_5  and  C_19
REMARK    3  A    between atoms: O_5  and  C_25
REMARK    4  A    between atoms: N_6  and  C_14
REMARK    5  A    between atoms: C_8  and  C_13
REMARK    6  A    between atoms: C_9  and  C_14
REMARK    7  A    between atoms: C_13  and  C_15
REMARK    8  A    between atoms: C_17  and  C_19
REMARK    9  A    between atoms: C_18  and  C_20
REMARK                            x       y       z     vdW  Elec       q    Type
REMARK                         _______ _______ _______ _____ _____    ______ ____
ROOT
ATOM      1  O   UNL     1      -3.043  -9.669  10.459  0.00  0.00    -0.369 OA
ATOM      8  C   UNL     1      -3.433 -10.331  11.665  0.00  0.00    +0.125 C 
ATOM      9  C   UNL     1      -4.106  -9.419   9.531  0.00  0.00    +0.164 C 
ATOM     10  C   UNL     1      -4.847 -10.713   9.168  0.00  0.00    +0.145 C 
ATOM     11  C   UNL     1      -4.071 -11.685  11.354  0.00  0.00    +0.034 C 
ATOM     12  C   UNL     1      -5.251 -11.516  10.401  0.00  0.00    +0.036 C 
ENDROOT
BRANCH  10   2
ATOM      2  O   UNL     1      -3.981 -11.533   8.378  0.00  0.00    -0.389 OA
ATOM     32  H   UNL     1      -4.532 -11.992   7.720  0.00  0.00    +0.210 HD
ENDBRANCH  10   2
BRANCH   8  13
ATOM     13  C   UNL     1      -2.181 -10.505  12.517  0.00  0.00    +0.090 C 
BRANCH  13  15
ATOM      3  O   UNL     1      -2.183 -10.783  16.110  0.00  0.00    -0.354 OA
ATOM      7  N   UNL     1      -1.535 -10.682  14.885  0.00  0.00    -0.083 NA
ATOM     15  C   UNL     1      -2.515 -10.622  13.980  0.00  0.00    +0.087 A 
ATOM     16  C   UNL     1      -3.790 -10.681  14.568  0.00  0.00    +0.076 A 
ATOM     18  C   UNL     1      -3.525 -10.782  15.908  0.00  0.00    +0.167 A 
BRANCH  18  20
ATOM     20  C   UNL     1      -4.333 -10.881  17.090  0.00  0.00    +0.020 A 
ATOM     21  C   UNL     1      -3.867 -11.590  18.197  0.00  0.00    +0.011 A 
ATOM     22  C   UNL     1      -5.585 -10.268  17.132  0.00  0.00    +0.011 A 
ATOM     23  C   UNL     1      -4.652 -11.686  19.345  0.00  0.00    +0.001 A 
ATOM     24  C   UNL     1      -6.370 -10.364  18.280  0.00  0.00    +0.001 A 
ATOM     26  C   UNL     1      -5.904 -11.073  19.387  0.00  0.00    +0.000 A 
ENDBRANCH  18  20
ENDBRANCH  13  15
ENDBRANCH   8  13
BRANCH   9  14
ATOM     14  C   UNL     1      -5.038  -8.322  10.042  0.00  0.00    +0.138 C 
BRANCH  14   6
ATOM      4  O   UNL     1      -7.911  -8.649   9.953  0.00  0.00    -0.272 OA
ATOM      6  N   UNL     1      -5.927  -7.883   9.009  0.00  0.00    -0.310 N 
ATOM     17  C   UNL     1      -7.305  -8.084   9.048  0.00  0.00    +0.251 C 
ATOM     33  H   UNL     1      -5.519  -7.434   8.193  0.00  0.00    +0.149 HD
BRANCH  17  19
ATOM     19  C   UNL     1      -7.999  -7.517   7.826  0.00  0.00    +0.324 C 
BRANCH  19   5
ATOM      5  O   UNL     1      -8.168  -6.120   7.953  0.00  0.00    -0.483 OA
BRANCH   5  25
ATOM     25  C   UNL     1      -9.431  -5.666   8.250  0.00  0.00    +0.121 A 
ATOM     27  C   UNL     1     -10.541  -6.467   7.982  0.00  0.00    +0.045 A 
ATOM     28  C   UNL     1      -9.602  -4.404   8.818  0.00  0.00    +0.045 A 
ATOM     29  C   UNL     1     -11.823  -6.007   8.283  0.00  0.00    +0.004 A 
ATOM     30  C   UNL     1     -10.884  -3.943   9.118  0.00  0.00    +0.004 A 
ATOM     31  C   UNL     1     -11.995  -4.744   8.851  0.00  0.00    +0.000 A 
ENDBRANCH   5  25
ENDBRANCH  19   5
ENDBRANCH  17  19
ENDBRANCH  14   6
ENDBRANCH   9  14
TORSDOF 9
ENDMDL
MODEL 3
REMARK VINA RESULT:      -6.2     26.026     28.454
REMARK  Name = 75536305
REMARK  9 active torsions:
REMARK  status: ('A' for Active; 'I' for Inactive)
REMARK    1  A    between atoms: O_2  and  C_10
REMARK    2  A    between atoms: O_5  and  C_19
REMARK    3  A    between atoms: O_5  and  C_25
REMARK    4  A    between atoms: N_6  and  C_14
REMARK    5  A    between atoms: C_8  and  C_13
REMARK    6  A    between atoms: C_9  and  C_14
REMARK    7  A    between atoms: C_13  and  C_15
REMARK    8  A    between atoms: C_17  and  C_19
REMARK    9  A    between atoms: C_18  and  C_20
REMARK                            x       y       z     vdW  Elec       q    Type
REMARK                         _______ _______ _______ _____ _____    ______ ____
ROOT
ATOM      1  O   UNL     1     -15.770   4.471  21.940  0.00  0.00    -0.369 OA
ATOM      8  C   UNL     1     -15.278   4.804  23.240  0.00  0.00    +0.125 C 
ATOM      9  C   UNL     1     -17.190   4.302  21.850  0.00  0.00    +0.164 C 
ATOM     10  C   UNL     1     -17.692   3.254  22.854  0.00  0.00    +0.145 C 
ATOM     11  C   UNL     1     -15.656   3.723  24.253  0.00  0.00    +0.034 C 
ATOM     12  C   UNL     1     -17.166   3.502  24.264  0.00  0.00    +0.036 C 
ENDROOT
BRANCH  10   2
ATOM      2  O   UNL     1     -17.237   1.964  22.438  0.00  0.00    -0.389 OA
ATOM     32  H   UNL     1     -18.018   1.387  22.364  0.00  0.00    +0.210 HD
ENDBRANCH  10   2
BRANCH   8  13
ATOM     13  C   UNL     1     -13.764   4.943  23.135  0.00  0.00    +0.090 C 
BRANCH  13  15
ATOM      3  O   UNL     1     -13.473   7.932  21.142  0.00  0.00    -0.354 OA
ATOM      7  N   UNL     1     -14.108   7.148  22.098  0.00  0.00    -0.083 NA
ATOM     15  C   UNL     1     -13.370   6.039  22.181  0.00  0.00    +0.087 A 
ATOM     16  C   UNL     1     -12.267   6.065  21.310  0.00  0.00    +0.076 A 
ATOM     18  C   UNL     1     -12.378   7.276  20.681  0.00  0.00    +0.167 A 
BRANCH  18  20
ATOM     20  C   UNL     1     -11.614   7.966  19.682  0.00  0.00    +0.020 A 
ATOM     21  C   UNL     1     -11.365   7.359  18.451  0.00  0.00    +0.011 A 
ATOM     22  C   UNL     1     -11.120   9.244  19.942  0.00  0.00    +0.011 A 
ATOM     23  C   UNL     1     -10.621   8.031  17.480  0.00  0.00    +0.001 A 
ATOM     24  C   UNL     1     -10.376   9.915  18.971  0.00  0.00    +0.001 A 
ATOM     26  C   UNL     1     -10.127   9.309  17.741  0.00  0.00    +0.000 A 
ENDBRANCH  18  20
ENDBRANCH  13  15
ENDBRANCH   8  13
BRANCH   9  14
ATOM     14  C   UNL     1     -17.914   5.641  21.975  0.00  0.00    +0.138 C 
BRANCH  14   6
ATOM      4  O   UNL     1     -18.317   6.420  19.218  0.00  0.00    -0.272 OA
ATOM      6  N   UNL     1     -17.220   6.667  21.257  0.00  0.00    -0.310 N 
ATOM     17  C   UNL     1     -17.480   6.977  19.923  0.00  0.00    +0.251 C 
ATOM     33  H   UNL     1     -16.479   7.165  21.741  0.00  0.00    +0.149 HD
BRANCH  17  19
ATOM     19  C   UNL     1     -16.601   8.103  19.418  0.00  0.00    +0.324 C 
BRANCH  19   5
ATOM      5  O   UNL     1     -15.565   7.598  18.602  0.00  0.00    -0.483 OA
BRANCH   5  25
ATOM     25  C   UNL     1     -14.853   8.509  17.858  0.00  0.00    +0.121 A 
ATOM     27  C   UNL     1     -14.530   9.752  18.402  0.00  0.00    +0.045 A 
ATOM     28  C   UNL     1     -14.453   8.189  16.561  0.00  0.00    +0.045 A 
ATOM     29  C   UNL     1     -13.808  10.677  17.648  0.00  0.00    +0.004 A 
ATOM     30  C   UNL     1     -13.730   9.114  15.807  0.00  0.00    +0.004 A 
ATOM     31  C   UNL     1     -13.407  10.358  16.349  0.00  0.00    +0.000 A 
ENDBRANCH   5  25
ENDBRANCH  19   5
ENDBRANCH  17  19
ENDBRANCH  14   6
ENDBRANCH   9  14
TORSDOF 9
ENDMDL
MODEL 4
REMARK VINA RESULT:      -6.1     15.019     18.768
REMARK  Name = 75536305
REMARK  9 active torsions:
REMARK  status: ('A' for Active; 'I' for Inactive)
REMARK    1  A    between atoms: O_2  and  C_10
REMARK    2  A    between atoms: O_5  and  C_19
REMARK    3  A    between atoms: O_5  and  C_25
REMARK    4  A    between atoms: N_6  and  C_14
REMARK    5  A    between atoms: C_8  and  C_13
REMARK    6  A    between atoms: C_9  and  C_14
REMARK    7  A    between atoms: C_13  and  C_15
REMARK    8  A    between atoms: C_17  and  C_19
REMARK    9  A    between atoms: C_18  and  C_20
REMARK                            x       y       z     vdW  Elec       q    Type
REMARK                         _______ _______ _______ _____ _____    ______ ____
ROOT
ATOM      1  O   UNL     1      13.254   4.818   2.183  0.00  0.00    -0.369 OA
ATOM      8  C   UNL     1      12.485   4.565   1.004  0.00  0.00    +0.125 C 
ATOM      9  C   UNL     1      14.586   5.293   1.950  0.00  0.00    +0.164 C 
ATOM     10  C   UNL     1      15.370   4.335   1.042  0.00  0.00    +0.145 C 
ATOM     11  C   UNL     1      13.174   3.523   0.124  0.00  0.00    +0.034 C 
ATOM     12  C   UNL     1      14.594   3.965  -0.218  0.00  0.00    +0.036 C 
ENDROOT
BRANCH  10   2
ATOM      2  O   UNL     1      15.632   3.128   1.764  0.00  0.00    -0.389 OA
ATOM     32  H   UNL     1      16.598   3.027   1.825  0.00  0.00    +0.210 HD
ENDBRANCH  10   2
BRANCH   8  13
ATOM     13  C   UNL     1      11.112   4.074   1.450  0.00  0.00    +0.090 C 
BRANCH  13  15
ATOM      3  O   UNL     1       9.741   6.490   3.747  0.00  0.00    -0.354 OA
ATOM      7  N   UNL     1      10.113   6.077   2.473  0.00  0.00    -0.083 NA
ATOM     15  C   UNL     1      10.603   4.846   2.638  0.00  0.00    +0.087 A 
ATOM     16  C   UNL     1      10.567   4.432   3.981  0.00  0.00    +0.076 A 
ATOM     18  C   UNL     1      10.016   5.502   4.636  0.00  0.00    +0.167 A 
BRANCH  18  20
ATOM     20  C   UNL     1       9.683   5.783   6.002  0.00  0.00    +0.020 A 
ATOM     21  C   UNL     1       9.107   7.007   6.343  0.00  0.00    +0.011 A 
ATOM     22  C   UNL     1       9.938   4.833   6.991  0.00  0.00    +0.011 A 
ATOM     23  C   UNL     1       8.784   7.280   7.672  0.00  0.00    +0.001 A 
ATOM     24  C   UNL     1       9.614   5.106   8.320  0.00  0.00    +0.001 A 
ATOM     26  C   UNL     1       9.038   6.330   8.661  0.00  0.00    +0.000 A 
ENDBRANCH  18  20
ENDBRANCH  13  15
ENDBRANCH   8  13
BRANCH   9  14
ATOM     14  C   UNL     1      14.577   6.730   1.433  0.00  0.00    +0.138 C 
BRANCH  14   6
ATOM      4  O   UNL     1      14.504   8.180   3.935  0.00  0.00    -0.272 OA
ATOM      6  N   UNL     1      15.636   7.493   2.021  0.00  0.00    -0.310 N 
ATOM     17  C   UNL     1      15.513   8.163   3.236  0.00  0.00    +0.251 C 
ATOM     33  H   UNL     1      16.506   7.572   1.502  0.00  0.00    +0.149 HD
BRANCH  17  19
ATOM     19  C   UNL     1      16.788   8.887   3.619  0.00  0.00    +0.324 C 
BRANCH  19   5
ATOM      5  O   UNL     1      17.909   8.044   3.453  0.00  0.00    -0.483 OA
BRANCH   5  25
ATOM     25  C   UNL     1      18.828   8.016   4.475  0.00  0.00    +0.121 A 
ATOM     27  C   UNL     1      18.522   8.602   5.704  0.00  0.00    +0.045 A 
ATOM     28  C   UNL     1      20.064   7.401   4.284  0.00  0.00    +0.045 A 
ATOM     29  C   UNL     1      19.455   8.574   6.741  0.00  0.00    +0.004 A 
ATOM     30  C   UNL     1      20.997   7.373   5.321  0.00  0.00    +0.004 A 
ATOM     31  C   UNL     1      20.693   7.959   6.550  0.00  0.00    +0.000 A 
ENDBRANCH   5  25
ENDBRANCH  19   5
ENDBRANCH  17  19
ENDBRANCH  14   6
ENDBRANCH   9  14
TORSDOF 9
ENDMDL
MODEL 5
REMARK VINA RESULT:      -6.1     14.959     18.608
REMARK  Name = 75536305
REMARK  9 active torsions:
REMARK  status: ('A' for Active; 'I' for Inactive)
REMARK    1  A    between atoms: O_2  and  C_10
REMARK    2  A    between atoms: O_5  and  C_19
REMARK    3  A    between atoms: O_5  and  C_25
REMARK    4  A    between atoms: N_6  and  C_14
REMARK    5  A    between atoms: C_8  and  C_13
REMARK    6  A    between atoms: C_9  and  C_14
REMARK    7  A    between atoms: C_13  and  C_15
REMARK    8  A    between atoms: C_17  and  C_19
REMARK    9  A    between atoms: C_18  and  C_20
REMARK                            x       y       z     vdW  Elec       q    Type
REMARK                         _______ _______ _______ _____ _____    ______ ____
ROOT
ATOM      1  O   UNL     1      13.277   4.836   2.006  0.00  0.00    -0.369 OA
ATOM      8  C   UNL     1      12.485   4.523   0.857  0.00  0.00    +0.125 C 
ATOM      9  C   UNL     1      14.590   5.335   1.723  0.00  0.00    +0.164 C 
ATOM     10  C   UNL     1      15.376   4.365   0.828  0.00  0.00    +0.145 C 
ATOM     11  C   UNL     1      13.179   3.468  -0.004  0.00  0.00    +0.034 C 
ATOM     12  C   UNL     1      14.578   3.932  -0.398  0.00  0.00    +0.036 C 
ENDROOT
BRANCH  10   2
ATOM      2  O   UNL     1      15.686   3.192   1.584  0.00  0.00    -0.389 OA
ATOM     32  H   UNL     1      15.013   3.106   2.282  0.00  0.00    +0.210 HD
ENDBRANCH  10   2
BRANCH   8  13
ATOM     13  C   UNL     1      11.137   4.015   1.355  0.00  0.00    +0.090 C 
BRANCH  13  15
ATOM      3  O   UNL     1       9.729   6.551   3.495  0.00  0.00    -0.354 OA
ATOM      7  N   UNL     1      10.117   6.067   2.250  0.00  0.00    -0.083 NA
ATOM     15  C   UNL     1      10.611   4.851   2.491  0.00  0.00    +0.087 A 
ATOM     16  C   UNL     1      10.562   4.514   3.855  0.00  0.00    +0.076 A 
ATOM     18  C   UNL     1       9.999   5.616   4.441  0.00  0.00    +0.167 A 
BRANCH  18  20
ATOM     20  C   UNL     1       9.650   5.974   5.786  0.00  0.00    +0.020 A 
ATOM     21  C   UNL     1      10.010   5.142   6.846  0.00  0.00    +0.011 A 
ATOM     22  C   UNL     1       8.948   7.154   6.033  0.00  0.00    +0.011 A 
ATOM     23  C   UNL     1       9.670   5.490   8.153  0.00  0.00    +0.001 A 
ATOM     24  C   UNL     1       8.608   7.502   7.341  0.00  0.00    +0.001 A 
ATOM     26  C   UNL     1       8.968   6.670   8.400  0.00  0.00    +0.000 A 
ENDBRANCH  18  20
ENDBRANCH  13  15
ENDBRANCH   8  13
BRANCH   9  14
ATOM     14  C   UNL     1      14.531   6.752   1.157  0.00  0.00    +0.138 C 
BRANCH  14   6
ATOM      4  O   UNL     1      17.043   7.937   1.967  0.00  0.00    -0.272 OA
ATOM      6  N   UNL     1      14.736   7.725   2.187  0.00  0.00    -0.310 N 
ATOM     17  C   UNL     1      15.987   8.243   2.513  0.00  0.00    +0.251 C 
ATOM     33  H   UNL     1      13.927   8.019   2.727  0.00  0.00    +0.149 HD
BRANCH  17  19
ATOM     19  C   UNL     1      15.911   9.253   3.639  0.00  0.00    +0.324 C 
BRANCH  19   5
ATOM      5  O   UNL     1      16.007   8.609   4.893  0.00  0.00    -0.483 OA
BRANCH   5  25
ATOM     25  C   UNL     1      14.835   8.401   5.581  0.00  0.00    +0.121 A 
ATOM     27  C   UNL     1      14.630   7.200   6.260  0.00  0.00    +0.045 A 
ATOM     28  C   UNL     1      13.853   9.390   5.601  0.00  0.00    +0.045 A 
ATOM     29  C   UNL     1      13.442   6.988   6.959  0.00  0.00    +0.004 A 
ATOM     30  C   UNL     1      12.664   9.179   6.300  0.00  0.00    +0.004 A 
ATOM     31  C   UNL     1      12.458   7.977   6.979  0.00  0.00    +0.000 A 
ENDBRANCH   5  25
ENDBRANCH  19   5
ENDBRANCH  17  19
ENDBRANCH  14   6
ENDBRANCH   9  14
TORSDOF 9
ENDMDL
MODEL 6
REMARK VINA RESULT:      -6.0     26.791     29.044
REMARK  Name = 75536305
REMARK  9 active torsions:
REMARK  status: ('A' for Active; 'I' for Inactive)
REMARK    1  A    between atoms: O_2  and  C_10
REMARK    2  A    between atoms: O_5  and  C_19
REMARK    3  A    between atoms: O_5  and  C_25
REMARK    4  A    between atoms: N_6  and  C_14
REMARK    5  A    between atoms: C_8  and  C_13
REMARK    6  A    between atoms: C_9  and  C_14
REMARK    7  A    between atoms: C_13  and  C_15
REMARK    8  A    between atoms: C_17  and  C_19
REMARK    9  A    between atoms: C_18  and  C_20
REMARK                            x       y       z     vdW  Elec       q    Type
REMARK                         _______ _______ _______ _____ _____    ______ ____
ROOT
ATOM      1  O   UNL     1      -8.875  -9.125  15.642  0.00  0.00    -0.369 OA
ATOM      8  C   UNL     1      -9.978  -9.928  15.216  0.00  0.00    +0.125 C 
ATOM      9  C   UNL     1      -8.841  -8.831  17.044  0.00  0.00    +0.164 C 
ATOM     10  C   UNL     1     -10.146  -8.168  17.508  0.00  0.00    +0.145 C 
ATOM     11  C   UNL     1     -11.304  -9.246  15.553  0.00  0.00    +0.034 C 
ATOM     12  C   UNL     1     -11.382  -8.933  17.045  0.00  0.00    +0.036 C 
ENDROOT
BRANCH  10   2
ATOM      2  O   UNL     1     -10.214  -6.851  16.954  0.00  0.00    -0.389 OA
ATOM     32  H   UNL     1     -10.026  -6.222  17.672  0.00  0.00    +0.210 HD
ENDBRANCH  10   2
BRANCH   8  13
ATOM     13  C   UNL     1      -9.842 -10.134  13.711  0.00  0.00    +0.090 C 
BRANCH  13  15
ATOM      3  O   UNL     1      -6.443 -11.225  13.217  0.00  0.00    -0.354 OA
ATOM      7  N   UNL     1      -7.704 -11.349  13.788  0.00  0.00    -0.083 NA
ATOM     15  C   UNL     1      -8.405 -10.322  13.303  0.00  0.00    +0.087 A 
ATOM     16  C   UNL     1      -7.648  -9.523  12.429  0.00  0.00    +0.076 A 
ATOM     18  C   UNL     1      -6.423 -10.134  12.410  0.00  0.00    +0.167 A 
BRANCH  18  20
ATOM     20  C   UNL     1      -5.179  -9.875  11.744  0.00  0.00    +0.020 A 
ATOM     21  C   UNL     1      -5.152  -9.078  10.600  0.00  0.00    +0.011 A 
ATOM     22  C   UNL     1      -3.996 -10.423  12.240  0.00  0.00    +0.011 A 
ATOM     23  C   UNL     1      -3.942  -8.826   9.953  0.00  0.00    +0.001 A 
ATOM     24  C   UNL     1      -2.786 -10.172  11.593  0.00  0.00    +0.001 A 
ATOM     26  C   UNL     1      -2.759  -9.374  10.449  0.00  0.00    +0.000 A 
ENDBRANCH  18  20
ENDBRANCH  13  15
ENDBRANCH   8  13
BRANCH   9  14
ATOM     14  C   UNL     1      -8.481 -10.072  17.859  0.00  0.00    +0.138 C 
BRANCH  14   6
ATOM      4  O   UNL     1      -6.558 -10.503  19.976  0.00  0.00    -0.272 OA
ATOM      6  N   UNL     1      -7.094 -10.396  17.714  0.00  0.00    -0.310 N 
ATOM     17  C   UNL     1      -6.236 -10.587  18.794  0.00  0.00    +0.251 C 
ATOM     33  H   UNL     1      -6.718 -10.453  16.772  0.00  0.00    +0.149 HD
BRANCH  17  19
ATOM     19  C   UNL     1      -4.826 -10.919  18.351  0.00  0.00    +0.324 C 
BRANCH  19   5
ATOM      5  O   UNL     1      -4.537 -10.307  17.111  0.00  0.00    -0.483 OA
BRANCH   5  25
ATOM     25  C   UNL     1      -3.683 -10.976  16.266  0.00  0.00    +0.121 A 
ATOM     27  C   UNL     1      -2.392 -10.491  16.054  0.00  0.00    +0.045 A 
ATOM     28  C   UNL     1      -4.107 -12.137  15.622  0.00  0.00    +0.045 A 
ATOM     29  C   UNL     1      -1.525 -11.169  15.196  0.00  0.00    +0.004 A 
ATOM     30  C   UNL     1      -3.241 -12.815  14.764  0.00  0.00    +0.004 A 
ATOM     31  C   UNL     1      -1.950 -12.331  14.551  0.00  0.00    +0.000 A 
ENDBRANCH   5  25
ENDBRANCH  19   5
ENDBRANCH  17  19
ENDBRANCH  14   6
ENDBRANCH   9  14
TORSDOF 9
ENDMDL
MODEL 7
REMARK VINA RESULT:      -6.0     15.071     18.789
REMARK  Name = 75536305
REMARK  9 active torsions:
REMARK  status: ('A' for Active; 'I' for Inactive)
REMARK    1  A    between atoms: O_2  and  C_10
REMARK    2  A    between atoms: O_5  and  C_19
REMARK    3  A    between atoms: O_5  and  C_25
REMARK    4  A    between atoms: N_6  and  C_14
REMARK    5  A    between atoms: C_8  and  C_13
REMARK    6  A    between atoms: C_9  and  C_14
REMARK    7  A    between atoms: C_13  and  C_15
REMARK    8  A    between atoms: C_17  and  C_19
REMARK    9  A    between atoms: C_18  and  C_20
REMARK                            x       y       z     vdW  Elec       q    Type
REMARK                         _______ _______ _______ _____ _____    ______ ____
ROOT
ATOM      1  O   UNL     1      13.252   4.864   2.005  0.00  0.00    -0.369 OA
ATOM      8  C   UNL     1      12.506   4.549   0.827  0.00  0.00    +0.125 C 
ATOM      9  C   UNL     1      14.593   5.316   1.773  0.00  0.00    +0.164 C 
ATOM     10  C   UNL     1      15.388   4.303   0.938  0.00  0.00    +0.145 C 
ATOM     11  C   UNL     1      13.205   3.454   0.022  0.00  0.00    +0.034 C 
ATOM     12  C   UNL     1      14.635   3.866  -0.315  0.00  0.00    +0.036 C 
ENDROOT
BRANCH  10   2
ATOM      2  O   UNL     1      15.626   3.138   1.733  0.00  0.00    -0.389 OA
ATOM     32  H   UNL     1      15.867   3.437   2.627  0.00  0.00    +0.210 HD
ENDBRANCH  10   2
BRANCH   8  13
ATOM     13  C   UNL     1      11.120   4.094   1.271  0.00  0.00    +0.090 C 
BRANCH  13  15
ATOM      3  O   UNL     1       9.593   6.695   3.244  0.00  0.00    -0.354 OA
ATOM      7  N   UNL     1       9.990   6.144   2.032  0.00  0.00    -0.083 NA
ATOM     15  C   UNL     1      10.563   4.981   2.352  0.00  0.00    +0.087 A 
ATOM     16  C   UNL     1      10.557   4.746   3.738  0.00  0.00    +0.076 A 
ATOM     18  C   UNL     1       9.936   5.853   4.252  0.00  0.00    +0.167 A 
BRANCH  18  20
ATOM     20  C   UNL     1       9.587   6.290   5.574  0.00  0.00    +0.020 A 
ATOM     21  C   UNL     1      10.314   5.836   6.674  0.00  0.00    +0.011 A 
ATOM     22  C   UNL     1       8.520   7.169   5.758  0.00  0.00    +0.011 A 
ATOM     23  C   UNL     1       9.974   6.260   7.958  0.00  0.00    +0.001 A 
ATOM     24  C   UNL     1       8.180   7.594   7.042  0.00  0.00    +0.001 A 
ATOM     26  C   UNL     1       8.907   7.139   8.142  0.00  0.00    +0.000 A 
ENDBRANCH  18  20
ENDBRANCH  13  15
ENDBRANCH   8  13
BRANCH   9  14
ATOM     14  C   UNL     1      14.605   6.721   1.175  0.00  0.00    +0.138 C 
BRANCH  14   6
ATOM      4  O   UNL     1      12.186   8.264   0.802  0.00  0.00    -0.272 OA
ATOM      6  N   UNL     1      14.036   7.670   2.084  0.00  0.00    -0.310 N 
ATOM     17  C   UNL     1      12.861   8.372   1.821  0.00  0.00    +0.251 C 
ATOM     33  H   UNL     1      14.540   7.861   2.945  0.00  0.00    +0.149 HD
BRANCH  17  19
ATOM     19  C   UNL     1      12.491   9.307   2.954  0.00  0.00    +0.324 C 
BRANCH  19   5
ATOM      5  O   UNL     1      12.275   8.582   4.147  0.00  0.00    -0.483 OA
BRANCH   5  25
ATOM     25  C   UNL     1      11.635   9.238   5.172  0.00  0.00    +0.121 A 
ATOM     27  C   UNL     1      12.083   9.087   6.484  0.00  0.00    +0.045 A 
ATOM     28  C   UNL     1      10.538  10.054   4.899  0.00  0.00    +0.045 A 
ATOM     29  C   UNL     1      11.434   9.753   7.524  0.00  0.00    +0.004 A 
ATOM     30  C   UNL     1       9.888  10.720   5.939  0.00  0.00    +0.004 A 
ATOM     31  C   UNL     1      10.336  10.569   7.252  0.00  0.00    +0.000 A 
ENDBRANCH   5  25
ENDBRANCH  19   5
ENDBRANCH  17  19
ENDBRANCH  14   6
ENDBRANCH   9  14
TORSDOF 9
ENDMDL
MODEL 8
REMARK VINA RESULT:      -5.9     26.834     29.291
REMARK  Name = 75536305
REMARK  9 active torsions:
REMARK  status: ('A' for Active; 'I' for Inactive)
REMARK    1  A    between atoms: O_2  and  C_10
REMARK    2  A    between atoms: O_5  and  C_19
REMARK    3  A    between atoms: O_5  and  C_25
REMARK    4  A    between atoms: N_6  and  C_14
REMARK    5  A    between atoms: C_8  and  C_13
REMARK    6  A    between atoms: C_9  and  C_14
REMARK    7  A    between atoms: C_13  and  C_15
REMARK    8  A    between atoms: C_17  and  C_19
REMARK    9  A    between atoms: C_18  and  C_20
REMARK                            x       y       z     vdW  Elec       q    Type
REMARK                         _______ _______ _______ _____ _____    ______ ____
ROOT
ATOM      1  O   UNL     1      -5.168 -11.775  15.894  0.00  0.00    -0.369 OA
ATOM      8  C   UNL     1      -4.890 -13.098  16.358  0.00  0.00    +0.125 C 
ATOM      9  C   UNL     1      -4.558 -10.722  16.652  0.00  0.00    +0.164 C 
ATOM     10  C   UNL     1      -4.931 -10.815  18.138  0.00  0.00    +0.145 C 
ATOM     11  C   UNL     1      -5.356 -13.271  17.804  0.00  0.00    +0.034 C 
ATOM     12  C   UNL     1      -4.718 -12.216  18.703  0.00  0.00    +0.036 C 
ENDROOT
BRANCH  10   2
ATOM      2  O   UNL     1      -6.316 -10.490  18.286  0.00  0.00    -0.389 OA
ATOM     32  H   UNL     1      -6.803 -11.326  18.392  0.00  0.00    +0.210 HD
ENDBRANCH  10   2
BRANCH   8  13
ATOM     13  C   UNL     1      -5.616 -14.069  15.435  0.00  0.00    +0.090 C 
BRANCH  13  15
ATOM      3  O   UNL     1      -3.938 -14.030  12.245  0.00  0.00    -0.354 OA
ATOM      7  N   UNL     1      -4.004 -14.349  13.596  0.00  0.00    -0.083 NA
ATOM     15  C   UNL     1      -5.193 -13.896  14.000  0.00  0.00    +0.087 A 
ATOM     16  C   UNL     1      -5.915 -13.287  12.959  0.00  0.00    +0.076 A 
ATOM     18  C   UNL     1      -5.081 -13.398  11.878  0.00  0.00    +0.167 A 
BRANCH  18  20
ATOM     20  C   UNL     1      -5.161 -13.006  10.500  0.00  0.00    +0.020 A 
ATOM     21  C   UNL     1      -4.106 -13.287   9.633  0.00  0.00    +0.011 A 
ATOM     22  C   UNL     1      -6.293 -12.342  10.029  0.00  0.00    +0.011 A 
ATOM     23  C   UNL     1      -4.183 -12.905   8.293  0.00  0.00    +0.001 A 
ATOM     24  C   UNL     1      -6.370 -11.960   8.690  0.00  0.00    +0.001 A 
ATOM     26  C   UNL     1      -5.316 -12.241   7.822  0.00  0.00    +0.000 A 
ENDBRANCH  18  20
ENDBRANCH  13  15
ENDBRANCH   8  13
BRANCH   9  14
ATOM     14  C   UNL     1      -3.049 -10.678  16.418  0.00  0.00    +0.138 C 
BRANCH  14   6
ATOM      4  O   UNL     1      -1.460 -12.073  14.444  0.00  0.00    -0.272 OA
ATOM      6  N   UNL     1      -2.749 -10.245  15.087  0.00  0.00    -0.310 N 
ATOM     17  C   UNL     1      -1.971 -10.984  14.199  0.00  0.00    +0.251 C 
ATOM     33  H   UNL     1      -3.096  -9.335  14.796  0.00  0.00    +0.149 HD
BRANCH  17  19
ATOM     19  C   UNL     1      -1.817 -10.289  12.861  0.00  0.00    +0.324 C 
BRANCH  19   5
ATOM      5  O   UNL     1      -2.657 -10.881  11.893  0.00  0.00    -0.483 OA
BRANCH   5  25
ATOM     25  C   UNL     1      -3.567 -10.062  11.267  0.00  0.00    +0.121 A 
ATOM     27  C   UNL     1      -4.724  -9.666  11.937  0.00  0.00    +0.045 A 
ATOM     28  C   UNL     1      -3.332  -9.628   9.963  0.00  0.00    +0.045 A 
ATOM     29  C   UNL     1      -5.648  -8.835  11.303  0.00  0.00    +0.004 A 
ATOM     30  C   UNL     1      -4.256  -8.797   9.328  0.00  0.00    +0.004 A 
ATOM     31  C   UNL     1      -5.414  -8.400   9.998  0.00  0.00    +0.000 A 
ENDBRANCH   5  25
ENDBRANCH  19   5
ENDBRANCH  17  19
ENDBRANCH  14   6
ENDBRANCH   9  14
TORSDOF 9
ENDMDL
MODEL 9
REMARK VINA RESULT:      -5.8     26.919     29.773
REMARK  Name = 75536305
REMARK  9 active torsions:
REMARK  status: ('A' for Active; 'I' for Inactive)
REMARK    1  A    between atoms: O_2  and  C_10
REMARK    2  A    between atoms: O_5  and  C_19
REMARK    3  A    between atoms: O_5  and  C_25
REMARK    4  A    between atoms: N_6  and  C_14
REMARK    5  A    between atoms: C_8  and  C_13
REMARK    6  A    between atoms: C_9  and  C_14
REMARK    7  A    between atoms: C_13  and  C_15
REMARK    8  A    between atoms: C_17  and  C_19
REMARK    9  A    between atoms: C_18  and  C_20
REMARK                            x       y       z     vdW  Elec       q    Type
REMARK                         _______ _______ _______ _____ _____    ______ ____
ROOT
ATOM      1  O   UNL     1      -5.473 -12.007  18.687  0.00  0.00    -0.369 OA
ATOM      8  C   UNL     1      -6.830 -12.074  18.241  0.00  0.00    +0.125 C 
ATOM      9  C   UNL     1      -4.486 -12.210  17.668  0.00  0.00    +0.164 C 
ATOM     10  C   UNL     1      -4.702 -13.543  16.938  0.00  0.00    +0.145 C 
ATOM     11  C   UNL     1      -7.123 -13.436  17.611  0.00  0.00    +0.034 C 
ATOM     12  C   UNL     1      -6.145 -13.723  16.475  0.00  0.00    +0.036 C 
ENDROOT
BRANCH  10   2
ATOM      2  O   UNL     1      -4.394 -14.614  17.834  0.00  0.00    -0.389 OA
ATOM     32  H   UNL     1      -3.529 -14.419  18.237  0.00  0.00    +0.210 HD
ENDBRANCH  10   2
BRANCH   8  13
ATOM     13  C   UNL     1      -7.723 -11.834  19.453  0.00  0.00    +0.090 C 
BRANCH  13  15
ATOM      3  O   UNL     1     -10.677  -9.769  19.428  0.00  0.00    -0.354 OA
ATOM      7  N   UNL     1      -9.813 -10.673  20.035  0.00  0.00    -0.083 NA
ATOM     15  C   UNL     1      -8.852 -10.891  19.134  0.00  0.00    +0.087 A 
ATOM     16  C   UNL     1      -9.054 -10.161  17.950  0.00  0.00    +0.076 A 
ATOM     18  C   UNL     1     -10.214  -9.472  18.187  0.00  0.00    +0.167 A 
BRANCH  18  20
ATOM     20  C   UNL     1     -11.006  -8.544  17.433  0.00  0.00    +0.020 A 
ATOM     21  C   UNL     1     -10.477  -7.303  17.078  0.00  0.00    +0.011 A 
ATOM     22  C   UNL     1     -12.305  -8.881  17.056  0.00  0.00    +0.011 A 
ATOM     23  C   UNL     1     -11.248  -6.400  16.345  0.00  0.00    +0.001 A 
ATOM     24  C   UNL     1     -13.076  -7.979  16.324  0.00  0.00    +0.001 A 
ATOM     26  C   UNL     1     -12.547  -6.738  15.968  0.00  0.00    +0.000 A 
ENDBRANCH  18  20
ENDBRANCH  13  15
ENDBRANCH   8  13
BRANCH   9  14
ATOM     14  C   UNL     1      -4.419 -11.015  16.719  0.00  0.00    +0.138 C 
BRANCH  14   6
ATOM      4  O   UNL     1      -1.605 -10.583  16.208  0.00  0.00    -0.272 OA
ATOM      6  N   UNL     1      -3.696 -11.346  15.529  0.00  0.00    -0.310 N 
ATOM     17  C   UNL     1      -2.334 -11.101  15.367  0.00  0.00    +0.251 C 
ATOM     33  H   UNL     1      -4.218 -11.748  14.755  0.00  0.00    +0.149 HD
BRANCH  17  19
ATOM     19  C   UNL     1      -1.831 -11.552  14.011  0.00  0.00    +0.324 C 
BRANCH  19   5
ATOM      5  O   UNL     1      -1.833 -10.476  13.096  0.00  0.00    -0.483 OA
BRANCH   5  25
ATOM     25  C   UNL     1      -2.568 -10.635  11.945  0.00  0.00    +0.121 A 
ATOM     27  C   UNL     1      -3.101 -11.883  11.625  0.00  0.00    +0.045 A 
ATOM     28  C   UNL     1      -2.779  -9.548  11.097  0.00  0.00    +0.045 A 
ATOM     29  C   UNL     1      -3.846 -12.045  10.456  0.00  0.00    +0.004 A 
ATOM     30  C   UNL     1      -3.524  -9.709   9.929  0.00  0.00    +0.004 A 
ATOM     31  C   UNL     1      -4.057 -10.958   9.608  0.00  0.00    +0.000 A 
ENDBRANCH   5  25
ENDBRANCH  19   5
ENDBRANCH  17  19
ENDBRANCH  14   6
ENDBRANCH   9  14
TORSDOF 9
ENDMDL
MODEL 10
REMARK VINA RESULT:      -5.8     32.749     34.124
REMARK  Name = 75536305
REMARK  9 active torsions:
REMARK  status: ('A' for Active; 'I' for Inactive)
REMARK    1  A    between atoms: O_2  and  C_10
REMARK    2  A    between atoms: O_5  and  C_19
REMARK    3  A    between atoms: O_5  and  C_25
REMARK    4  A    between atoms: N_6  and  C_14
REMARK    5  A    between atoms: C_8  and  C_13
REMARK    6  A    between atoms: C_9  and  C_14
REMARK    7  A    between atoms: C_13  and  C_15
REMARK    8  A    between atoms: C_17  and  C_19
REMARK    9  A    between atoms: C_18  and  C_20
REMARK                            x       y       z     vdW  Elec       q    Type
REMARK                         _______ _______ _______ _____ _____    ______ ____
ROOT
ATOM      1  O   UNL     1      -2.737 -15.026   3.328  0.00  0.00    -0.369 OA
ATOM      8  C   UNL     1      -1.620 -14.938   4.217  0.00  0.00    +0.125 C 
ATOM      9  C   UNL     1      -3.552 -13.850   3.256  0.00  0.00    +0.164 C 
ATOM     10  C   UNL     1      -4.055 -13.432   4.645  0.00  0.00    +0.145 C 
ATOM     11  C   UNL     1      -2.086 -14.639   5.641  0.00  0.00    +0.034 C 
ATOM     12  C   UNL     1      -2.931 -13.368   5.674  0.00  0.00    +0.036 C 
ENDROOT
BRANCH  10   2
ATOM      2  O   UNL     1      -5.008 -14.398   5.099  0.00  0.00    -0.389 OA
ATOM     32  H   UNL     1      -5.841 -13.927   5.275  0.00  0.00    +0.210 HD
ENDBRANCH  10   2
BRANCH   8  13
ATOM     13  C   UNL     1      -0.880 -16.269   4.157  0.00  0.00    +0.090 C 
BRANCH  13  15
ATOM      3  O   UNL     1       2.537 -16.500   3.032  0.00  0.00    -0.354 OA
ATOM      7  N   UNL     1       1.492 -16.860   3.876  0.00  0.00    -0.083 NA
ATOM     15  C   UNL     1       0.449 -16.137   3.462  0.00  0.00    +0.087 A 
ATOM     16  C   UNL     1       0.770 -15.310   2.371  0.00  0.00    +0.076 A 
ATOM     18  C   UNL     1       2.094 -15.577   2.141  0.00  0.00    +0.167 A 
BRANCH  18  20
ATOM     20  C   UNL     1       3.066 -15.107   1.197  0.00  0.00    +0.020 A 
ATOM     21  C   UNL     1       2.959 -13.822   0.665  0.00  0.00    +0.011 A 
ATOM     22  C   UNL     1       4.119 -15.935   0.810  0.00  0.00    +0.011 A 
ATOM     23  C   UNL     1       3.904 -13.366  -0.253  0.00  0.00    +0.001 A 
ATOM     24  C   UNL     1       5.065 -15.479  -0.108  0.00  0.00    +0.001 A 
ATOM     26  C   UNL     1       4.957 -14.194  -0.640  0.00  0.00    +0.000 A 
ENDBRANCH  18  20
ENDBRANCH  13  15
ENDBRANCH   8  13
BRANCH   9  14
ATOM     14  C   UNL     1      -2.831 -12.723   2.520  0.00  0.00    +0.138 C 
BRANCH  14   6
ATOM      4  O   UNL     1      -4.012 -12.562  -0.116  0.00  0.00    -0.272 OA
ATOM      6  N   UNL     1      -2.267 -13.192   1.291  0.00  0.00    -0.310 N 
ATOM     17  C   UNL     1      -2.909 -13.073   0.060  0.00  0.00    +0.251 C 
ATOM     33  H   UNL     1      -1.369 -13.666   1.332  0.00  0.00    +0.149 HD
BRANCH  17  19
ATOM     19  C   UNL     1      -2.086 -13.653  -1.072  0.00  0.00    +0.324 C 
BRANCH  19   5
ATOM      5  O   UNL     1      -0.757 -13.176  -1.015  0.00  0.00    -0.483 OA
BRANCH   5  25
ATOM     25  C   UNL     1       0.206 -13.927  -1.646  0.00  0.00    +0.121 A 
ATOM     27  C   UNL     1       0.337 -15.283  -1.349  0.00  0.00    +0.045 A 
ATOM     28  C   UNL     1       1.051 -13.333  -2.583  0.00  0.00    +0.045 A 
ATOM     29  C   UNL     1       1.314 -16.047  -1.989  0.00  0.00    +0.004 A 
ATOM     30  C   UNL     1       2.028 -14.096  -3.223  0.00  0.00    +0.004 A 
ATOM     31  C   UNL     1       2.160 -15.452  -2.926  0.00  0.00    +0.000 A 
ENDBRANCH   5  25
ENDBRANCH  19   5
ENDBRANCH  17  19
ENDBRANCH  14   6
ENDBRANCH   9  14
TORSDOF 9
ENDMDL
