MODEL 1
REMARK VINA RESULT:      -8.6      0.000      0.000
REMARK  Name = 44716291
REMARK  6 active torsions:
REMARK  status: ('A' for Active; 'I' for Inactive)
REMARK    1  A    between atoms: N_3  and  C_14
REMARK    2  A    between atoms: N_4  and  C_17
REMARK    3  A    between atoms: C_8  and  C_14
REMARK    4  A    between atoms: C_9  and  C_15
REMARK    5  A    between atoms: C_18  and  C_21
REMARK    6  A    between atoms: C_29  and  C_30
REMARK                            x       y       z     vdW  Elec       q    Type
REMARK                         _______ _______ _______ _____ _____    ______ ____
ROOT
ATOM      2  N   UNL     1     -15.654   3.217  27.993  0.00  0.00    -0.297 NA
ATOM      7  C   UNL     1     -17.667   2.683  29.555  0.00  0.00    +0.005 C 
ATOM      8  C   UNL     1     -16.888   3.008  27.188  0.00  0.00    +0.078 C 
ATOM      9  C   UNL     1     -17.178   4.132  29.745  0.00  0.00    +0.092 C 
ATOM     10  C   UNL     1     -18.061   2.525  28.073  0.00  0.00    +0.025 C 
ATOM     11  C   UNL     1     -16.498   1.711  29.800  0.00  0.00    +0.020 C 
ATOM     12  C   UNL     1     -15.892   4.349  28.926  0.00  0.00    +0.097 C 
ATOM     13  C   UNL     1     -15.361   2.020  28.815  0.00  0.00    +0.085 C 
ENDROOT
BRANCH   9  15
ATOM      1  O   UNL     1     -17.896   4.425  31.990  0.00  0.00    -0.275 OA
ATOM      4  N   UNL     1     -15.633   4.770  31.444  0.00  0.00    -0.285 N 
ATOM     15  C   UNL     1     -16.962   4.456  31.194  0.00  0.00    +0.222 C 
ATOM     36  H   UNL     1     -14.987   4.761  30.658  0.00  0.00    +0.155 HD
BRANCH   4  17
ATOM     17  C   UNL     1     -15.051   5.126  32.684  0.00  0.00    +0.033 A 
ATOM     19  C   UNL     1     -14.969   4.186  33.711  0.00  0.00    +0.023 A 
ATOM     20  C   UNL     1     -14.558   6.416  32.880  0.00  0.00    +0.023 A 
ATOM     22  C   UNL     1     -14.396   4.535  34.933  0.00  0.00    +0.002 A 
ATOM     23  C   UNL     1     -13.986   6.767  34.102  0.00  0.00    +0.002 A 
ATOM     26  C   UNL     1     -13.904   5.825  35.130  0.00  0.00    +0.000 A 
ENDBRANCH   4  17
ENDBRANCH   9  15
BRANCH   8  14
ATOM     14  C   UNL     1     -16.652   2.070  26.002  0.00  0.00    +0.164 C 
BRANCH  14   3
ATOM      3  N   UNL     1     -16.256   2.831  24.767  0.00  0.00    -0.250 N 
ATOM      5  N   UNL     1     -16.770   2.509  23.569  0.00  0.00    -0.065 NA
ATOM      6  N   UNL     1     -16.243   3.341  22.678  0.00  0.00    -0.130 NA
ATOM     16  C   UNL     1     -15.388   3.876  24.677  0.00  0.00    +0.138 A 
ATOM     18  C   UNL     1     -15.395   4.185  23.340  0.00  0.00    +0.113 A 
BRANCH  18  21
ATOM     21  C   UNL     1     -14.638   5.226  22.723  0.00  0.00    +0.004 A 
ATOM     24  C   UNL     1     -15.144   6.526  22.682  0.00  0.00    +0.011 A 
ATOM     25  C   UNL     1     -13.393   4.944  22.161  0.00  0.00    +0.011 A 
ATOM     27  C   UNL     1     -14.403   7.543  22.079  0.00  0.00    +0.009 A 
ATOM     28  C   UNL     1     -12.653   5.960  21.558  0.00  0.00    +0.009 A 
ATOM     29  C   UNL     1     -13.157   7.260  21.518  0.00  0.00    -0.018 A 
BRANCH  29  30
ATOM     30  C   UNL     1     -12.389   8.314  20.891  0.00  0.00    -0.018 A 
ATOM     31  C   UNL     1     -11.393   7.997  19.968  0.00  0.00    +0.008 A 
ATOM     32  C   UNL     1     -12.645   9.648  21.210  0.00  0.00    +0.008 A 
ATOM     33  C   UNL     1     -10.653   9.012  19.363  0.00  0.00    +0.001 A 
ATOM     34  C   UNL     1     -11.904  10.663  20.606  0.00  0.00    +0.001 A 
ATOM     35  C   UNL     1     -10.909  10.346  19.682  0.00  0.00    +0.000 A 
ENDBRANCH  29  30
ENDBRANCH  18  21
ENDBRANCH  14   3
ENDBRANCH   8  14
TORSDOF 6
ENDMDL
MODEL 2
REMARK VINA RESULT:      -7.9     28.497     32.321
REMARK  Name = 44716291
REMARK  6 active torsions:
REMARK  status: ('A' for Active; 'I' for Inactive)
REMARK    1  A    between atoms: N_3  and  C_14
REMARK    2  A    between atoms: N_4  and  C_17
REMARK    3  A    between atoms: C_8  and  C_14
REMARK    4  A    between atoms: C_9  and  C_15
REMARK    5  A    between atoms: C_18  and  C_21
REMARK    6  A    between atoms: C_29  and  C_30
REMARK                            x       y       z     vdW  Elec       q    Type
REMARK                         _______ _______ _______ _____ _____    ______ ____
ROOT
ATOM      2  N   UNL     1      13.110   7.659  20.972  0.00  0.00    -0.297 NA
ATOM      7  C   UNL     1      12.309   9.894  19.906  0.00  0.00    +0.005 C 
ATOM      8  C   UNL     1      14.080   8.112  19.937  0.00  0.00    +0.078 C 
ATOM      9  C   UNL     1      12.702  10.086  21.384  0.00  0.00    +0.092 C 
ATOM     10  C   UNL     1      13.547   9.345  19.171  0.00  0.00    +0.025 C 
ATOM     11  C   UNL     1      11.223   8.806  19.802  0.00  0.00    +0.020 C 
ATOM     12  C   UNL     1      13.010   8.714  22.012  0.00  0.00    +0.097 C 
ATOM     13  C   UNL     1      11.762   7.490  20.381  0.00  0.00    +0.085 C 
ENDROOT
BRANCH   9  15
ATOM      1  O   UNL     1      10.787  10.188  22.785  0.00  0.00    -0.275 OA
ATOM      4  N   UNL     1      11.767  12.185  22.016  0.00  0.00    -0.285 N 
ATOM     15  C   UNL     1      11.634  10.809  22.150  0.00  0.00    +0.222 C 
ATOM     36  H   UNL     1      12.524  12.534  21.434  0.00  0.00    +0.155 HD
BRANCH   4  17
ATOM     17  C   UNL     1      10.950  13.188  22.590  0.00  0.00    +0.033 A 
ATOM     19  C   UNL     1      10.950  13.380  23.971  0.00  0.00    +0.023 A 
ATOM     20  C   UNL     1      10.146  13.985  21.776  0.00  0.00    +0.023 A 
ATOM     22  C   UNL     1      10.146  14.369  24.538  0.00  0.00    +0.002 A 
ATOM     23  C   UNL     1       9.341  14.973  22.342  0.00  0.00    +0.002 A 
ATOM     26  C   UNL     1       9.342  15.166  23.724  0.00  0.00    +0.000 A 
ENDBRANCH   4  17
ENDBRANCH   9  15
BRANCH   8  14
ATOM     14  C   UNL     1      14.477   6.982  18.984  0.00  0.00    +0.164 C 
BRANCH  14   3
ATOM      3  N   UNL     1      15.893   6.535  19.219  0.00  0.00    -0.250 N 
ATOM      5  N   UNL     1      16.539   5.795  18.303  0.00  0.00    -0.065 NA
ATOM      6  N   UNL     1      17.755   5.553  18.778  0.00  0.00    -0.130 NA
ATOM     16  C   UNL     1      16.675   6.785  20.305  0.00  0.00    +0.138 A 
ATOM     18  C   UNL     1      17.855   6.153  20.003  0.00  0.00    +0.113 A 
BRANCH  18  21
ATOM     21  C   UNL     1      19.015   6.118  20.834  0.00  0.00    +0.004 A 
ATOM     24  C   UNL     1      19.095   6.945  21.955  0.00  0.00    +0.011 A 
ATOM     25  C   UNL     1      20.069   5.258  20.525  0.00  0.00    +0.011 A 
ATOM     27  C   UNL     1      20.230   6.911  22.766  0.00  0.00    +0.009 A 
ATOM     28  C   UNL     1      21.203   5.224  21.336  0.00  0.00    +0.009 A 
ATOM     29  C   UNL     1      21.283   6.050  22.457  0.00  0.00    -0.018 A 
BRANCH  29  30
ATOM     30  C   UNL     1      22.461   6.015  23.297  0.00  0.00    -0.018 A 
ATOM     31  C   UNL     1      22.382   6.424  24.627  0.00  0.00    +0.008 A 
ATOM     32  C   UNL     1      23.676   5.572  22.775  0.00  0.00    +0.008 A 
ATOM     33  C   UNL     1      23.517   6.390  25.436  0.00  0.00    +0.001 A 
ATOM     34  C   UNL     1      24.812   5.538  23.583  0.00  0.00    +0.001 A 
ATOM     35  C   UNL     1      24.732   5.946  24.914  0.00  0.00    +0.000 A 
ENDBRANCH  29  30
ENDBRANCH  18  21
ENDBRANCH  14   3
ENDBRANCH   8  14
TORSDOF 6
ENDMDL
MODEL 3
REMARK VINA RESULT:      -7.6      2.757     11.091
REMARK  Name = 44716291
REMARK  6 active torsions:
REMARK  status: ('A' for Active; 'I' for Inactive)
REMARK    1  A    between atoms: N_3  and  C_14
REMARK    2  A    between atoms: N_4  and  C_17
REMARK    3  A    between atoms: C_8  and  C_14
REMARK    4  A    between atoms: C_9  and  C_15
REMARK    5  A    between atoms: C_18  and  C_21
REMARK    6  A    between atoms: C_29  and  C_30
REMARK                            x       y       z     vdW  Elec       q    Type
REMARK                         _______ _______ _______ _____ _____    ______ ____
ROOT
ATOM      2  N   UNL     1     -16.579   6.516  22.698  0.00  0.00    -0.297 NA
ATOM      7  C   UNL     1     -14.473   5.651  21.438  0.00  0.00    +0.005 C 
ATOM      8  C   UNL     1     -16.023   5.320  23.387  0.00  0.00    +0.078 C 
ATOM      9  C   UNL     1     -14.215   7.027  22.082  0.00  0.00    +0.092 C 
ATOM     10  C   UNL     1     -14.875   4.685  22.569  0.00  0.00    +0.025 C 
ATOM     11  C   UNL     1     -15.687   5.746  20.495  0.00  0.00    +0.020 C 
ATOM     12  C   UNL     1     -15.531   7.569  22.672  0.00  0.00    +0.097 C 
ATOM     13  C   UNL     1     -16.920   6.195  21.292  0.00  0.00    +0.085 C 
ENDROOT
BRANCH   9  15
ATOM      1  O   UNL     1     -14.123   9.097  20.922  0.00  0.00    -0.275 OA
ATOM      4  N   UNL     1     -12.497   7.453  20.487  0.00  0.00    -0.285 N 
ATOM     15  C   UNL     1     -13.619   7.993  21.101  0.00  0.00    +0.222 C 
ATOM     36  H   UNL     1     -12.223   6.508  20.745  0.00  0.00    +0.155 HD
BRANCH   4  17
ATOM     17  C   UNL     1     -11.673   8.063  19.510  0.00  0.00    +0.033 A 
ATOM     19  C   UNL     1     -10.937   9.202  19.834  0.00  0.00    +0.023 A 
ATOM     20  C   UNL     1     -11.596   7.524  18.226  0.00  0.00    +0.023 A 
ATOM     22  C   UNL     1     -10.124   9.804  18.872  0.00  0.00    +0.002 A 
ATOM     23  C   UNL     1     -10.785   8.126  17.265  0.00  0.00    +0.002 A 
ATOM     26  C   UNL     1     -10.048   9.266  17.588  0.00  0.00    +0.000 A 
ENDBRANCH   4  17
ENDBRANCH   9  15
BRANCH   8  14
ATOM     14  C   UNL     1     -17.108   4.295  23.729  0.00  0.00    +0.164 C 
BRANCH  14   3
ATOM      3  N   UNL     1     -17.072   3.918  25.183  0.00  0.00    -0.250 N 
ATOM      5  N   UNL     1     -17.716   2.826  25.625  0.00  0.00    -0.065 NA
ATOM      6  N   UNL     1     -17.510   2.749  26.935  0.00  0.00    -0.130 NA
ATOM     16  C   UNL     1     -16.437   4.571  26.196  0.00  0.00    +0.138 A 
ATOM     18  C   UNL     1     -16.727   3.810  27.300  0.00  0.00    +0.113 A 
BRANCH  18  21
ATOM     21  C   UNL     1     -16.287   4.075  28.632  0.00  0.00    +0.004 A 
ATOM     24  C   UNL     1     -15.504   3.138  29.307  0.00  0.00    +0.011 A 
ATOM     25  C   UNL     1     -16.638   5.270  29.258  0.00  0.00    +0.011 A 
ATOM     27  C   UNL     1     -15.074   3.397  30.608  0.00  0.00    +0.009 A 
ATOM     28  C   UNL     1     -16.209   5.530  30.559  0.00  0.00    +0.009 A 
ATOM     29  C   UNL     1     -15.425   4.594  31.235  0.00  0.00    -0.018 A 
BRANCH  29  30
ATOM     30  C   UNL     1     -14.981   4.863  32.585  0.00  0.00    -0.018 A 
ATOM     31  C   UNL     1     -14.627   6.159  32.957  0.00  0.00    +0.008 A 
ATOM     32  C   UNL     1     -14.907   3.826  33.514  0.00  0.00    +0.008 A 
ATOM     33  C   UNL     1     -14.199   6.419  34.258  0.00  0.00    +0.001 A 
ATOM     34  C   UNL     1     -14.478   4.085  34.816  0.00  0.00    +0.001 A 
ATOM     35  C   UNL     1     -14.125   5.382  35.188  0.00  0.00    +0.000 A 
ENDBRANCH  29  30
ENDBRANCH  18  21
ENDBRANCH  14   3
ENDBRANCH   8  14
TORSDOF 6
ENDMDL
MODEL 4
REMARK VINA RESULT:      -7.5     17.129     19.542
REMARK  Name = 44716291
REMARK  6 active torsions:
REMARK  status: ('A' for Active; 'I' for Inactive)
REMARK    1  A    between atoms: N_3  and  C_14
REMARK    2  A    between atoms: N_4  and  C_17
REMARK    3  A    between atoms: C_8  and  C_14
REMARK    4  A    between atoms: C_9  and  C_15
REMARK    5  A    between atoms: C_18  and  C_21
REMARK    6  A    between atoms: C_29  and  C_30
REMARK                            x       y       z     vdW  Elec       q    Type
REMARK                         _______ _______ _______ _____ _____    ______ ____
ROOT
ATOM      2  N   UNL     1      -8.951  -9.512  16.431  0.00  0.00    -0.297 NA
ATOM      7  C   UNL     1      -8.410 -11.492  18.030  0.00  0.00    +0.005 C 
ATOM      8  C   UNL     1      -9.798  -9.432  17.652  0.00  0.00    +0.078 C 
ATOM      9  C   UNL     1      -7.221 -10.517  17.923  0.00  0.00    +0.092 C 
ATOM     10  C   UNL     1      -9.619 -10.685  18.541  0.00  0.00    +0.025 C 
ATOM     11  C   UNL     1      -8.786 -11.998  16.625  0.00  0.00    +0.020 C 
ATOM     12  C   UNL     1      -7.526  -9.458  16.847  0.00  0.00    +0.097 C 
ATOM     13  C   UNL     1      -9.161 -10.803  15.735  0.00  0.00    +0.085 C 
ENDROOT
BRANCH   9  15
ATOM      1  O   UNL     1      -5.552 -12.150  18.356  0.00  0.00    -0.275 OA
ATOM      4  N   UNL     1      -5.327 -10.730  16.493  0.00  0.00    -0.285 N 
ATOM     15  C   UNL     1      -5.939 -11.239  17.631  0.00  0.00    +0.222 C 
ATOM     36  H   UNL     1      -5.783  -9.956  16.015  0.00  0.00    +0.155 HD
BRANCH   4  17
ATOM     17  C   UNL     1      -4.110 -11.154  15.908  0.00  0.00    +0.033 A 
ATOM     19  C   UNL     1      -4.102 -12.224  15.013  0.00  0.00    +0.023 A 
ATOM     20  C   UNL     1      -2.919 -10.502  16.225  0.00  0.00    +0.023 A 
ATOM     22  C   UNL     1      -2.903 -12.642  14.436  0.00  0.00    +0.002 A 
ATOM     23  C   UNL     1      -1.719 -10.920  15.649  0.00  0.00    +0.002 A 
ATOM     26  C   UNL     1      -1.712 -11.991  14.753  0.00  0.00    +0.000 A 
ENDBRANCH   4  17
ENDBRANCH   9  15
BRANCH   8  14
ATOM     14  C   UNL     1     -11.270  -9.181  17.318  0.00  0.00    +0.164 C 
BRANCH  14   3
ATOM      3  N   UNL     1     -11.456  -7.880  16.589  0.00  0.00    -0.250 N 
ATOM      5  N   UNL     1     -10.792  -6.778  16.972  0.00  0.00    -0.065 NA
ATOM      6  N   UNL     1     -11.153  -5.795  16.155  0.00  0.00    -0.130 NA
ATOM     16  C   UNL     1     -12.261  -7.635  15.517  0.00  0.00    +0.138 A 
ATOM     18  C   UNL     1     -12.052  -6.304  15.258  0.00  0.00    +0.113 A 
BRANCH  18  21
ATOM     21  C   UNL     1     -12.672  -5.553  14.214  0.00  0.00    +0.004 A 
ATOM     24  C   UNL     1     -14.031  -5.721  13.946  0.00  0.00    +0.011 A 
ATOM     25  C   UNL     1     -11.920  -4.652  13.461  0.00  0.00    +0.011 A 
ATOM     27  C   UNL     1     -14.637  -4.987  12.927  0.00  0.00    +0.009 A 
ATOM     28  C   UNL     1     -12.525  -3.918  12.440  0.00  0.00    +0.009 A 
ATOM     29  C   UNL     1     -13.884  -4.085  12.174  0.00  0.00    -0.018 A 
BRANCH  29  30
ATOM     30  C   UNL     1     -14.511  -3.325  11.114  0.00  0.00    -0.018 A 
ATOM     31  C   UNL     1     -14.145  -3.544   9.787  0.00  0.00    +0.008 A 
ATOM     32  C   UNL     1     -15.482  -2.371  11.421  0.00  0.00    +0.008 A 
ATOM     33  C   UNL     1     -14.749  -2.812   8.766  0.00  0.00    +0.001 A 
ATOM     34  C   UNL     1     -16.086  -1.638  10.401  0.00  0.00    +0.001 A 
ATOM     35  C   UNL     1     -15.720  -1.858   9.073  0.00  0.00    +0.000 A 
ENDBRANCH  29  30
ENDBRANCH  18  21
ENDBRANCH  14   3
ENDBRANCH   8  14
TORSDOF 6
ENDMDL
MODEL 5
REMARK VINA RESULT:      -7.5      3.055     11.368
REMARK  Name = 44716291
REMARK  6 active torsions:
REMARK  status: ('A' for Active; 'I' for Inactive)
REMARK    1  A    between atoms: N_3  and  C_14
REMARK    2  A    between atoms: N_4  and  C_17
REMARK    3  A    between atoms: C_8  and  C_14
REMARK    4  A    between atoms: C_9  and  C_15
REMARK    5  A    between atoms: C_18  and  C_21
REMARK    6  A    between atoms: C_29  and  C_30
REMARK                            x       y       z     vdW  Elec       q    Type
REMARK                         _______ _______ _______ _____ _____    ______ ____
ROOT
ATOM      2  N   UNL     1     -15.690   6.272  22.752  0.00  0.00    -0.297 NA
ATOM      7  C   UNL     1     -15.796   6.672  20.183  0.00  0.00    +0.005 C 
ATOM      8  C   UNL     1     -16.161   5.042  22.059  0.00  0.00    +0.078 C 
ATOM      9  C   UNL     1     -14.342   6.690  20.694  0.00  0.00    +0.092 C 
ATOM     10  C   UNL     1     -16.394   5.301  20.553  0.00  0.00    +0.025 C 
ATOM     11  C   UNL     1     -16.620   7.727  20.945  0.00  0.00    +0.020 C 
ATOM     12  C   UNL     1     -14.341   6.613  22.232  0.00  0.00    +0.097 C 
ATOM     13  C   UNL     1     -16.584   7.414  22.449  0.00  0.00    +0.085 C 
ENDROOT
BRANCH   9  15
ATOM      1  O   UNL     1     -13.841   9.011  20.669  0.00  0.00    -0.275 OA
ATOM      4  N   UNL     1     -12.678   7.560  19.227  0.00  0.00    -0.285 N 
ATOM     15  C   UNL     1     -13.600   7.900  20.208  0.00  0.00    +0.222 C 
ATOM     36  H   UNL     1     -12.618   6.583  18.950  0.00  0.00    +0.155 HD
BRANCH   4  17
ATOM     17  C   UNL     1     -11.799   8.427  18.535  0.00  0.00    +0.033 A 
ATOM     19  C   UNL     1     -10.933   9.255  19.249  0.00  0.00    +0.023 A 
ATOM     20  C   UNL     1     -11.797   8.453  17.141  0.00  0.00    +0.023 A 
ATOM     22  C   UNL     1     -10.066  10.110  18.568  0.00  0.00    +0.002 A 
ATOM     23  C   UNL     1     -10.931   9.308  16.460  0.00  0.00    +0.002 A 
ATOM     26  C   UNL     1     -10.064  10.136  17.174  0.00  0.00    +0.000 A 
ENDBRANCH   4  17
ENDBRANCH   9  15
BRANCH   8  14
ATOM     14  C   UNL     1     -17.400   4.441  22.728  0.00  0.00    +0.164 C 
BRANCH  14   3
ATOM      3  N   UNL     1     -17.030   3.588  23.909  0.00  0.00    -0.250 N 
ATOM      5  N   UNL     1     -16.876   2.260  23.775  0.00  0.00    -0.065 NA
ATOM      6  N   UNL     1     -16.555   1.778  24.970  0.00  0.00    -0.130 NA
ATOM     16  C   UNL     1     -16.814   3.992  25.191  0.00  0.00    +0.138 A 
ATOM     18  C   UNL     1     -16.512   2.825  25.848  0.00  0.00    +0.113 A 
BRANCH  18  21
ATOM     21  C   UNL     1     -16.201   2.710  27.237  0.00  0.00    +0.004 A 
ATOM     24  C   UNL     1     -16.225   1.459  27.855  0.00  0.00    +0.011 A 
ATOM     25  C   UNL     1     -15.872   3.846  27.975  0.00  0.00    +0.011 A 
ATOM     27  C   UNL     1     -15.920   1.347  29.212  0.00  0.00    +0.009 A 
ATOM     28  C   UNL     1     -15.568   3.735  29.331  0.00  0.00    +0.009 A 
ATOM     29  C   UNL     1     -15.591   2.484  29.950  0.00  0.00    -0.018 A 
BRANCH  29  30
ATOM     30  C   UNL     1     -15.276   2.369  31.357  0.00  0.00    -0.018 A 
ATOM     31  C   UNL     1     -14.950   1.128  31.900  0.00  0.00    +0.008 A 
ATOM     32  C   UNL     1     -15.298   3.502  32.171  0.00  0.00    +0.008 A 
ATOM     33  C   UNL     1     -14.646   1.017  33.257  0.00  0.00    +0.001 A 
ATOM     34  C   UNL     1     -14.995   3.392  33.528  0.00  0.00    +0.001 A 
ATOM     35  C   UNL     1     -14.669   2.150  34.071  0.00  0.00    +0.000 A 
ENDBRANCH  29  30
ENDBRANCH  18  21
ENDBRANCH  14   3
ENDBRANCH   8  14
TORSDOF 6
ENDMDL
MODEL 6
REMARK VINA RESULT:      -7.5     16.976     18.661
REMARK  Name = 44716291
REMARK  6 active torsions:
REMARK  status: ('A' for Active; 'I' for Inactive)
REMARK    1  A    between atoms: N_3  and  C_14
REMARK    2  A    between atoms: N_4  and  C_17
REMARK    3  A    between atoms: C_8  and  C_14
REMARK    4  A    between atoms: C_9  and  C_15
REMARK    5  A    between atoms: C_18  and  C_21
REMARK    6  A    between atoms: C_29  and  C_30
REMARK                            x       y       z     vdW  Elec       q    Type
REMARK                         _______ _______ _______ _____ _____    ______ ____
ROOT
ATOM      2  N   UNL     1     -12.325  -8.304  15.161  0.00  0.00    -0.297 NA
ATOM      7  C   UNL     1     -10.375  -7.621  16.743  0.00  0.00    +0.005 C 
ATOM      8  C   UNL     1     -12.225  -6.821  15.242  0.00  0.00    +0.078 C 
ATOM      9  C   UNL     1      -9.848  -8.301  15.464  0.00  0.00    +0.092 C 
ATOM     10  C   UNL     1     -11.187  -6.387  16.303  0.00  0.00    +0.025 C 
ATOM     11  C   UNL     1     -11.366  -8.563  17.453  0.00  0.00    +0.020 C 
ATOM     12  C   UNL     1     -11.037  -8.831  14.641  0.00  0.00    +0.097 C 
ATOM     13  C   UNL     1     -12.531  -8.886  16.507  0.00  0.00    +0.085 C 
ENDROOT
BRANCH   9  15
ATOM      1  O   UNL     1      -9.054 -10.537  15.367  0.00  0.00    -0.275 OA
ATOM      4  N   UNL     1      -7.830  -8.924  16.567  0.00  0.00    -0.285 N 
ATOM     15  C   UNL     1      -8.874  -9.397  15.783  0.00  0.00    +0.222 C 
ATOM     36  H   UNL     1      -7.844  -7.944  16.836  0.00  0.00    +0.155 HD
BRANCH   4  17
ATOM     17  C   UNL     1      -6.726  -9.659  17.064  0.00  0.00    +0.033 A 
ATOM     19  C   UNL     1      -6.807 -10.281  18.309  0.00  0.00    +0.023 A 
ATOM     20  C   UNL     1      -5.559  -9.763  16.307  0.00  0.00    +0.023 A 
ATOM     22  C   UNL     1      -5.720 -11.006  18.799  0.00  0.00    +0.002 A 
ATOM     23  C   UNL     1      -4.472 -10.486  16.796  0.00  0.00    +0.002 A 
ATOM     26  C   UNL     1      -4.553 -11.109  18.043  0.00  0.00    +0.000 A 
ENDBRANCH   4  17
ENDBRANCH   9  15
BRANCH   8  14
ATOM     14  C   UNL     1     -13.586  -6.163  15.480  0.00  0.00    +0.164 C 
BRANCH  14   3
ATOM      3  N   UNL     1     -14.230  -5.745  14.188  0.00  0.00    -0.250 N 
ATOM      5  N   UNL     1     -15.436  -6.220  13.837  0.00  0.00    -0.065 NA
ATOM      6  N   UNL     1     -15.745  -5.683  12.662  0.00  0.00    -0.130 NA
ATOM     16  C   UNL     1     -13.733  -4.893  13.249  0.00  0.00    +0.138 A 
ATOM     18  C   UNL     1     -14.713  -4.867  12.288  0.00  0.00    +0.113 A 
BRANCH  18  21
ATOM     21  C   UNL     1     -14.672  -4.110  11.079  0.00  0.00    +0.004 A 
ATOM     24  C   UNL     1     -14.007  -4.615   9.962  0.00  0.00    +0.011 A 
ATOM     25  C   UNL     1     -15.297  -2.865  11.015  0.00  0.00    +0.011 A 
ATOM     27  C   UNL     1     -13.968  -3.875   8.780  0.00  0.00    +0.009 A 
ATOM     28  C   UNL     1     -15.257  -2.124   9.834  0.00  0.00    +0.009 A 
ATOM     29  C   UNL     1     -14.593  -2.629   8.716  0.00  0.00    -0.018 A 
BRANCH  29  30
ATOM     30  C   UNL     1     -14.552  -1.860   7.491  0.00  0.00    -0.018 A 
ATOM     31  C   UNL     1     -15.614  -1.923   6.591  0.00  0.00    +0.008 A 
ATOM     32  C   UNL     1     -13.449  -1.054   7.212  0.00  0.00    +0.008 A 
ATOM     33  C   UNL     1     -15.575  -1.181   5.411  0.00  0.00    +0.001 A 
ATOM     34  C   UNL     1     -13.408  -0.312   6.032  0.00  0.00    +0.001 A 
ATOM     35  C   UNL     1     -14.471  -0.375   5.132  0.00  0.00    +0.000 A 
ENDBRANCH  29  30
ENDBRANCH  18  21
ENDBRANCH  14   3
ENDBRANCH   8  14
TORSDOF 6
ENDMDL
MODEL 7
REMARK VINA RESULT:      -7.4     20.255     22.700
REMARK  Name = 44716291
REMARK  6 active torsions:
REMARK  status: ('A' for Active; 'I' for Inactive)
REMARK    1  A    between atoms: N_3  and  C_14
REMARK    2  A    between atoms: N_4  and  C_17
REMARK    3  A    between atoms: C_8  and  C_14
REMARK    4  A    between atoms: C_9  and  C_15
REMARK    5  A    between atoms: C_18  and  C_21
REMARK    6  A    between atoms: C_29  and  C_30
REMARK                            x       y       z     vdW  Elec       q    Type
REMARK                         _______ _______ _______ _____ _____    ______ ____
ROOT
ATOM      2  N   UNL     1      -5.654 -10.685  16.865  0.00  0.00    -0.297 NA
ATOM      7  C   UNL     1      -5.900 -12.226  18.948  0.00  0.00    +0.005 C 
ATOM      8  C   UNL     1      -4.546 -11.678  16.904  0.00  0.00    +0.078 C 
ATOM      9  C   UNL     1      -7.036 -12.466  17.935  0.00  0.00    +0.092 C 
ATOM     10  C   UNL     1      -4.571 -12.495  18.216  0.00  0.00    +0.025 C 
ATOM     11  C   UNL     1      -5.880 -10.740  19.353  0.00  0.00    +0.020 C 
ATOM     12  C   UNL     1      -6.941 -11.424  16.805  0.00  0.00    +0.097 C 
ATOM     13  C   UNL     1      -5.667  -9.872  18.104  0.00  0.00    +0.085 C 
ENDROOT
BRANCH   9  15
ATOM      1  O   UNL     1      -8.743 -13.342  19.335  0.00  0.00    -0.275 OA
ATOM      4  N   UNL     1      -9.080 -11.281  18.249  0.00  0.00    -0.285 N 
ATOM     15  C   UNL     1      -8.382 -12.431  18.597  0.00  0.00    +0.222 C 
ATOM     36  H   UNL     1      -8.633 -10.630  17.608  0.00  0.00    +0.155 HD
BRANCH   4  17
ATOM     17  C   UNL     1     -10.376 -10.900  18.675  0.00  0.00    +0.033 A 
ATOM     19  C   UNL     1     -10.563 -10.381  19.955  0.00  0.00    +0.023 A 
ATOM     20  C   UNL     1     -11.463 -11.041  17.813  0.00  0.00    +0.023 A 
ATOM     22  C   UNL     1     -11.839 -10.004  20.375  0.00  0.00    +0.002 A 
ATOM     23  C   UNL     1     -12.739 -10.665  18.232  0.00  0.00    +0.002 A 
ATOM     26  C   UNL     1     -12.927 -10.146  19.514  0.00  0.00    +0.000 A 
ENDBRANCH   4  17
ENDBRANCH   9  15
BRANCH   8  14
ATOM     14  C   UNL     1      -3.180 -11.028  16.668  0.00  0.00    +0.164 C 
BRANCH  14   3
ATOM      3  N   UNL     1      -2.910 -10.827  15.203  0.00  0.00    -0.250 N 
ATOM      5  N   UNL     1      -1.740 -10.317  14.785  0.00  0.00    -0.065 NA
ATOM      6  N   UNL     1      -1.789 -10.255  13.459  0.00  0.00    -0.130 NA
ATOM     16  C   UNL     1      -3.739 -11.105  14.159  0.00  0.00    +0.138 A 
ATOM     18  C   UNL     1      -3.006 -10.734  13.060  0.00  0.00    +0.113 A 
BRANCH  18  21
ATOM     21  C   UNL     1      -3.437 -10.829  11.703  0.00  0.00    +0.004 A 
ATOM     24  C   UNL     1      -3.668  -9.670  10.962  0.00  0.00    +0.011 A 
ATOM     25  C   UNL     1      -3.628 -12.080  11.117  0.00  0.00    +0.011 A 
ATOM     27  C   UNL     1      -4.089  -9.763   9.635  0.00  0.00    +0.009 A 
ATOM     28  C   UNL     1      -4.050 -12.174   9.791  0.00  0.00    +0.009 A 
ATOM     29  C   UNL     1      -4.279 -11.015   9.049  0.00  0.00    -0.018 A 
BRANCH  29  30
ATOM     30  C   UNL     1      -4.718 -11.113   7.674  0.00  0.00    -0.018 A 
ATOM     31  C   UNL     1      -4.238 -12.138   6.860  0.00  0.00    +0.008 A 
ATOM     32  C   UNL     1      -5.621 -10.181   7.162  0.00  0.00    +0.008 A 
ATOM     33  C   UNL     1      -4.661 -12.232   5.534  0.00  0.00    +0.001 A 
ATOM     34  C   UNL     1      -6.044 -10.275   5.837  0.00  0.00    +0.001 A 
ATOM     35  C   UNL     1      -5.564 -11.301   5.023  0.00  0.00    +0.000 A 
ENDBRANCH  29  30
ENDBRANCH  18  21
ENDBRANCH  14   3
ENDBRANCH   8  14
TORSDOF 6
ENDMDL
MODEL 8
REMARK VINA RESULT:      -7.4     33.524     36.951
REMARK  Name = 44716291
REMARK  6 active torsions:
REMARK  status: ('A' for Active; 'I' for Inactive)
REMARK    1  A    between atoms: N_3  and  C_14
REMARK    2  A    between atoms: N_4  and  C_17
REMARK    3  A    between atoms: C_8  and  C_14
REMARK    4  A    between atoms: C_9  and  C_15
REMARK    5  A    between atoms: C_18  and  C_21
REMARK    6  A    between atoms: C_29  and  C_30
REMARK                            x       y       z     vdW  Elec       q    Type
REMARK                         _______ _______ _______ _____ _____    ______ ____
ROOT
ATOM      2  N   UNL     1      24.464   4.608  21.372  0.00  0.00    -0.297 NA
ATOM      7  C   UNL     1      23.849   2.080  21.419  0.00  0.00    +0.005 C 
ATOM      8  C   UNL     1      22.985   4.439  21.382  0.00  0.00    +0.078 C 
ATOM      9  C   UNL     1      24.525   2.518  22.733  0.00  0.00    +0.092 C 
ATOM     10  C   UNL     1      22.590   2.951  21.241  0.00  0.00    +0.025 C 
ATOM     11  C   UNL     1      24.776   2.406  20.233  0.00  0.00    +0.020 C 
ATOM     12  C   UNL     1      25.016   3.971  22.595  0.00  0.00    +0.097 C 
ATOM     13  C   UNL     1      25.058   3.915  20.205  0.00  0.00    +0.085 C 
ENDROOT
BRANCH   9  15
ATOM      1  O   UNL     1      26.775   2.034  23.319  0.00  0.00    -0.275 OA
ATOM      4  N   UNL     1      25.215   0.279  23.169  0.00  0.00    -0.285 N 
ATOM     15  C   UNL     1      25.648   1.597  23.110  0.00  0.00    +0.222 C 
ATOM     36  H   UNL     1      24.240   0.089  22.949  0.00  0.00    +0.155 HD
BRANCH   4  17
ATOM     17  C   UNL     1      25.984  -0.866  23.490  0.00  0.00    +0.033 A 
ATOM     19  C   UNL     1      26.640  -1.570  22.481  0.00  0.00    +0.023 A 
ATOM     20  C   UNL     1      26.086  -1.289  24.815  0.00  0.00    +0.023 A 
ATOM     22  C   UNL     1      27.398  -2.697  22.796  0.00  0.00    +0.002 A 
ATOM     23  C   UNL     1      26.843  -2.417  25.131  0.00  0.00    +0.002 A 
ATOM     26  C   UNL     1      27.500  -3.121  24.121  0.00  0.00    +0.000 A 
ENDBRANCH   4  17
ENDBRANCH   9  15
BRANCH   8  14
ATOM     14  C   UNL     1      22.297   5.310  20.328  0.00  0.00    +0.164 C 
BRANCH  14   3
ATOM      3  N   UNL     1      20.982   5.842  20.825  0.00  0.00    -0.250 N 
ATOM      5  N   UNL     1      20.839   6.234  22.101  0.00  0.00    -0.065 NA
ATOM      6  N   UNL     1      19.587   6.650  22.248  0.00  0.00    -0.130 NA
ATOM     16  C   UNL     1      19.827   5.994  20.120  0.00  0.00    +0.138 A 
ATOM     18  C   UNL     1      18.953   6.511  21.044  0.00  0.00    +0.113 A 
BRANCH  18  21
ATOM     21  C   UNL     1      17.590   6.853  20.798  0.00  0.00    +0.004 A 
ATOM     24  C   UNL     1      16.927   6.324  19.690  0.00  0.00    +0.011 A 
ATOM     25  C   UNL     1      16.920   7.717  21.664  0.00  0.00    +0.011 A 
ATOM     27  C   UNL     1      15.594   6.658  19.450  0.00  0.00    +0.009 A 
ATOM     28  C   UNL     1      15.587   8.052  21.424  0.00  0.00    +0.009 A 
ATOM     29  C   UNL     1      14.924   7.522  20.317  0.00  0.00    -0.018 A 
BRANCH  29  30
ATOM     30  C   UNL     1      13.542   7.871  20.069  0.00  0.00    -0.018 A 
ATOM     31  C   UNL     1      12.631   7.908  21.123  0.00  0.00    +0.008 A 
ATOM     32  C   UNL     1      13.121   8.171  18.773  0.00  0.00    +0.008 A 
ATOM     33  C   UNL     1      11.299   8.245  20.883  0.00  0.00    +0.001 A 
ATOM     34  C   UNL     1      11.790   8.507  18.532  0.00  0.00    +0.001 A 
ATOM     35  C   UNL     1      10.879   8.545  19.587  0.00  0.00    +0.000 A 
ENDBRANCH  29  30
ENDBRANCH  18  21
ENDBRANCH  14   3
ENDBRANCH   8  14
TORSDOF 6
ENDMDL
MODEL 9
REMARK VINA RESULT:      -7.4     19.604     21.475
REMARK  Name = 44716291
REMARK  6 active torsions:
REMARK  status: ('A' for Active; 'I' for Inactive)
REMARK    1  A    between atoms: N_3  and  C_14
REMARK    2  A    between atoms: N_4  and  C_17
REMARK    3  A    between atoms: C_8  and  C_14
REMARK    4  A    between atoms: C_9  and  C_15
REMARK    5  A    between atoms: C_18  and  C_21
REMARK    6  A    between atoms: C_29  and  C_30
REMARK                            x       y       z     vdW  Elec       q    Type
REMARK                         _______ _______ _______ _____ _____    ______ ____
ROOT
ATOM      2  N   UNL     1      -6.203  -7.940  41.607  0.00  0.00    -0.297 NA
ATOM      7  C   UNL     1      -5.945  -6.668  39.351  0.00  0.00    +0.005 C 
ATOM      8  C   UNL     1      -6.820  -8.723  40.502  0.00  0.00    +0.078 C 
ATOM      9  C   UNL     1      -4.580  -7.144  39.886  0.00  0.00    +0.092 C 
ATOM     10  C   UNL     1      -6.831  -7.917  39.182  0.00  0.00    +0.025 C 
ATOM     11  C   UNL     1      -6.632  -5.788  40.412  0.00  0.00    +0.020 C 
ATOM     12  C   UNL     1      -4.765  -7.743  41.293  0.00  0.00    +0.097 C 
ATOM     13  C   UNL     1      -6.824  -6.598  41.703  0.00  0.00    +0.085 C 
ENDROOT
BRANCH   9  15
ATOM      1  O   UNL     1      -3.282  -5.442  38.859  0.00  0.00    -0.275 OA
ATOM      4  N   UNL     1      -3.074  -5.820  41.172  0.00  0.00    -0.285 N 
ATOM     15  C   UNL     1      -3.573  -6.033  39.894  0.00  0.00    +0.222 C 
ATOM     36  H   UNL     1      -3.417  -6.416  41.921  0.00  0.00    +0.155 HD
BRANCH   4  17
ATOM     17  C   UNL     1      -2.111  -4.861  41.572  0.00  0.00    +0.033 A 
ATOM     19  C   UNL     1      -0.761  -5.073  41.294  0.00  0.00    +0.023 A 
ATOM     20  C   UNL     1      -2.513  -3.705  42.240  0.00  0.00    +0.023 A 
ATOM     22  C   UNL     1       0.188  -4.129  41.687  0.00  0.00    +0.002 A 
ATOM     23  C   UNL     1      -1.565  -2.762  42.634  0.00  0.00    +0.002 A 
ATOM     26  C   UNL     1      -0.213  -2.973  42.356  0.00  0.00    +0.000 A 
ENDBRANCH   4  17
ENDBRANCH   9  15
BRANCH   8  14
ATOM     14  C   UNL     1      -8.217  -9.232  40.865  0.00  0.00    +0.164 C 
BRANCH  14   3
ATOM      3  N   UNL     1      -8.709 -10.248  39.872  0.00  0.00    -0.250 N 
ATOM      5  N   UNL     1      -8.183 -11.482  39.835  0.00  0.00    -0.065 NA
ATOM      6  N   UNL     1      -8.806 -12.148  38.870  0.00  0.00    -0.130 NA
ATOM     16  C   UNL     1      -9.682 -10.088  38.933  0.00  0.00    +0.138 A 
ATOM     18  C   UNL     1      -9.728 -11.309  38.307  0.00  0.00    +0.113 A 
BRANCH  18  21
ATOM     21  C   UNL     1     -10.599 -11.660  37.233  0.00  0.00    +0.004 A 
ATOM     24  C   UNL     1     -10.361 -12.818  36.492  0.00  0.00    +0.011 A 
ATOM     25  C   UNL     1     -11.689 -10.847  36.923  0.00  0.00    +0.011 A 
ATOM     27  C   UNL     1     -11.213 -13.162  35.443  0.00  0.00    +0.009 A 
ATOM     28  C   UNL     1     -12.541 -11.190  35.874  0.00  0.00    +0.009 A 
ATOM     29  C   UNL     1     -12.303 -12.348  35.133  0.00  0.00    -0.018 A 
BRANCH  29  30
ATOM     30  C   UNL     1     -13.187 -12.703  34.044  0.00  0.00    -0.018 A 
ATOM     31  C   UNL     1     -12.946 -13.854  33.296  0.00  0.00    +0.008 A 
ATOM     32  C   UNL     1     -14.281 -11.891  33.742  0.00  0.00    +0.008 A 
ATOM     33  C   UNL     1     -13.797 -14.196  32.246  0.00  0.00    +0.001 A 
ATOM     34  C   UNL     1     -15.132 -12.232  32.692  0.00  0.00    +0.001 A 
ATOM     35  C   UNL     1     -14.891 -13.384  31.944  0.00  0.00    +0.000 A 
ENDBRANCH  29  30
ENDBRANCH  18  21
ENDBRANCH  14   3
ENDBRANCH   8  14
TORSDOF 6
ENDMDL
MODEL 10
REMARK VINA RESULT:      -7.2     31.580     35.863
REMARK  Name = 44716291
REMARK  6 active torsions:
REMARK  status: ('A' for Active; 'I' for Inactive)
REMARK    1  A    between atoms: N_3  and  C_14
REMARK    2  A    between atoms: N_4  and  C_17
REMARK    3  A    between atoms: C_8  and  C_14
REMARK    4  A    between atoms: C_9  and  C_15
REMARK    5  A    between atoms: C_18  and  C_21
REMARK    6  A    between atoms: C_29  and  C_30
REMARK                            x       y       z     vdW  Elec       q    Type
REMARK                         _______ _______ _______ _____ _____    ______ ____
ROOT
ATOM      2  N   UNL     1       5.791   7.889  -2.998  0.00  0.00    -0.297 NA
ATOM      7  C   UNL     1       5.156   8.255  -5.495  0.00  0.00    +0.005 C 
ATOM      8  C   UNL     1       5.924   9.328  -3.357  0.00  0.00    +0.078 C 
ATOM      9  C   UNL     1       3.929   7.840  -4.659  0.00  0.00    +0.092 C 
ATOM     10  C   UNL     1       5.716   9.549  -4.873  0.00  0.00    +0.025 C 
ATOM     11  C   UNL     1       6.259   7.190  -5.351  0.00  0.00    +0.020 C 
ATOM     12  C   UNL     1       4.383   7.478  -3.233  0.00  0.00    +0.097 C 
ATOM     13  C   UNL     1       6.648   7.054  -3.872  0.00  0.00    +0.085 C 
ENDROOT
BRANCH   9  15
ATOM      1  O   UNL     1       2.820   6.775  -6.469  0.00  0.00    -0.275 OA
ATOM      4  N   UNL     1       2.997   5.663  -4.402  0.00  0.00    -0.285 N 
ATOM     15  C   UNL     1       3.184   6.707  -5.299  0.00  0.00    +0.222 C 
ATOM     36  H   UNL     1       3.354   5.779  -3.457  0.00  0.00    +0.155 HD
BRANCH   4  17
ATOM     17  C   UNL     1       2.341   4.431  -4.641  0.00  0.00    +0.033 A 
ATOM     19  C   UNL     1       3.006   3.407  -5.314  0.00  0.00    +0.023 A 
ATOM     20  C   UNL     1       1.031   4.241  -4.202  0.00  0.00    +0.023 A 
ATOM     22  C   UNL     1       2.361   2.192  -5.549  0.00  0.00    +0.002 A 
ATOM     23  C   UNL     1       0.385   3.028  -4.437  0.00  0.00    +0.002 A 
ATOM     26  C   UNL     1       1.050   2.002  -5.111  0.00  0.00    +0.000 A 
ENDBRANCH   4  17
ENDBRANCH   9  15
BRANCH   8  14
ATOM     14  C   UNL     1       7.249   9.923  -2.875  0.00  0.00    +0.164 C 
BRANCH  14   3
ATOM      3  N   UNL     1       7.308   9.995  -1.374  0.00  0.00    -0.250 N 
ATOM      5  N   UNL     1       6.921  11.106  -0.726  0.00  0.00    -0.065 NA
ATOM      6  N   UNL     1       7.083  10.881   0.573  0.00  0.00    -0.130 NA
ATOM     16  C   UNL     1       7.728   9.030  -0.511  0.00  0.00    +0.138 A 
ATOM     18  C   UNL     1       7.576   9.614   0.722  0.00  0.00    +0.113 A 
BRANCH  18  21
ATOM     21  C   UNL     1       7.883   9.002   1.975  0.00  0.00    +0.004 A 
ATOM     24  C   UNL     1       7.234   9.426   3.135  0.00  0.00    +0.011 A 
ATOM     25  C   UNL     1       8.831   7.982   2.040  0.00  0.00    +0.011 A 
ATOM     27  C   UNL     1       7.533   8.828   4.359  0.00  0.00    +0.009 A 
ATOM     28  C   UNL     1       9.131   7.384   3.264  0.00  0.00    +0.009 A 
ATOM     29  C   UNL     1       8.481   7.807   4.424  0.00  0.00    -0.018 A 
BRANCH  29  30
ATOM     30  C   UNL     1       8.794   7.187   5.693  0.00  0.00    -0.018 A 
ATOM     31  C   UNL     1       8.540   7.867   6.883  0.00  0.00    +0.008 A 
ATOM     32  C   UNL     1       9.350   5.908   5.726  0.00  0.00    +0.008 A 
ATOM     33  C   UNL     1       8.841   7.269   8.106  0.00  0.00    +0.001 A 
ATOM     34  C   UNL     1       9.652   5.310   6.949  0.00  0.00    +0.001 A 
ATOM     35  C   UNL     1       9.397   5.990   8.139  0.00  0.00    +0.000 A 
ENDBRANCH  29  30
ENDBRANCH  18  21
ENDBRANCH  14   3
ENDBRANCH   8  14
TORSDOF 6
ENDMDL
