MODEL 1
REMARK VINA RESULT:      -7.6      0.000      0.000
REMARK  Name = 71693922
REMARK  7 active torsions:
REMARK  status: ('A' for Active; 'I' for Inactive)
REMARK    1  A    between atoms: O_1  and  C_8
REMARK    2  A    between atoms: O_2  and  C_10
REMARK    3  A    between atoms: N_4  and  C_7
REMARK    4  A    between atoms: C_6  and  C_11
REMARK    5  A    between atoms: C_12  and  C_16
REMARK    6  A    between atoms: C_14  and  C_19
REMARK    7  A    between atoms: C_24  and  C_25
REMARK                            x       y       z     vdW  Elec       q    Type
REMARK                         _______ _______ _______ _____ _____    ______ ____
ROOT
ATOM      6  C   UNL     1      12.961   9.160  20.034  0.00  0.00    +0.045 C 
ATOM      7  C   UNL     1      13.142   7.662  20.367  0.00  0.00    +0.112 C 
ATOM      8  C   UNL     1      12.323   7.481  21.645  0.00  0.00    +0.164 C 
ATOM      9  C   UNL     1      11.645   9.592  20.732  0.00  0.00    +0.044 C 
ATOM     10  C   UNL     1      11.085   8.330  21.386  0.00  0.00    +0.145 C 
ENDROOT
BRANCH   6  11
ATOM     11  C   UNL     1      13.002   9.445  18.548  0.00  0.00    -0.039 A 
ATOM     12  C   UNL     1      14.008  10.237  17.996  0.00  0.00    -0.047 A 
ATOM     13  C   UNL     1      12.013   8.902  17.727  0.00  0.00    +0.004 A 
ATOM     15  C   UNL     1      14.027  10.486  16.624  0.00  0.00    +0.003 A 
ATOM     16  C   UNL     1      15.078  10.830  18.855  0.00  0.00    +0.044 C 
ATOM     17  C   UNL     1      12.031   9.152  16.355  0.00  0.00    +0.000 A 
ATOM     18  C   UNL     1      13.039   9.943  15.803  0.00  0.00    +0.000 A 
ENDBRANCH   6  11
BRANCH   7   4
ATOM      3  O   UNL     1      15.019   6.893  18.335  0.00  0.00    -0.270 OA
ATOM      4  N   UNL     1      14.526   7.315  20.562  0.00  0.00    -0.305 N 
ATOM     14  C   UNL     1      15.362   6.954  19.513  0.00  0.00    +0.244 C 
ATOM     26  H   UNL     1      14.871   7.321  21.516  0.00  0.00    +0.149 HD
BRANCH  14  19
ATOM     19  C   UNL     1      16.756   6.599  19.883  0.00  0.00    +0.037 A 
ATOM     20  C   UNL     1      17.352   7.183  21.000  0.00  0.00    +0.014 A 
ATOM     21  C   UNL     1      17.469   5.680  19.112  0.00  0.00    +0.014 A 
ATOM     22  C   UNL     1      18.662   6.848  21.348  0.00  0.00    +0.019 A 
ATOM     23  C   UNL     1      18.777   5.346  19.459  0.00  0.00    +0.019 A 
ATOM     24  C   UNL     1      19.374   5.929  20.577  0.00  0.00    +0.052 A 
BRANCH  24  25
ATOM      5  N   UNL     1      21.803   5.307  21.222  0.00  0.00    -0.191 NA
ATOM     25  C   UNL     1      20.715   5.585  20.933  0.00  0.00    +0.099 C 
ENDBRANCH  24  25
ENDBRANCH  14  19
ENDBRANCH   7   4
BRANCH   8   1
ATOM      1  O   UNL     1      11.975   6.127  21.872  0.00  0.00    -0.387 OA
ATOM     27  H   UNL     1      11.033   6.028  21.652  0.00  0.00    +0.210 HD
ENDBRANCH   8   1
BRANCH  10   2
ATOM      2  O   UNL     1      10.209   7.689  20.465  0.00  0.00    -0.389 OA
ATOM     28  H   UNL     1       9.785   8.384  19.933  0.00  0.00    +0.210 HD
ENDBRANCH  10   2
TORSDOF 6
ENDMDL
MODEL 2
REMARK VINA RESULT:      -7.5      2.305      2.845
REMARK  Name = 71693922
REMARK  7 active torsions:
REMARK  status: ('A' for Active; 'I' for Inactive)
REMARK    1  A    between atoms: O_1  and  C_8
REMARK    2  A    between atoms: O_2  and  C_10
REMARK    3  A    between atoms: N_4  and  C_7
REMARK    4  A    between atoms: C_6  and  C_11
REMARK    5  A    between atoms: C_12  and  C_16
REMARK    6  A    between atoms: C_14  and  C_19
REMARK    7  A    between atoms: C_24  and  C_25
REMARK                            x       y       z     vdW  Elec       q    Type
REMARK                         _______ _______ _______ _____ _____    ______ ____
ROOT
ATOM      6  C   UNL     1      12.617   8.808  22.098  0.00  0.00    +0.045 C 
ATOM      7  C   UNL     1      12.980   7.892  20.908  0.00  0.00    +0.112 C 
ATOM      8  C   UNL     1      12.028   6.707  21.068  0.00  0.00    +0.164 C 
ATOM      9  C   UNL     1      11.165   8.432  22.493  0.00  0.00    +0.044 C 
ATOM     10  C   UNL     1      10.722   7.367  21.491  0.00  0.00    +0.145 C 
ENDROOT
BRANCH   6  11
ATOM     11  C   UNL     1      12.821  10.277  21.799  0.00  0.00    -0.039 A 
ATOM     12  C   UNL     1      14.002  10.926  22.157  0.00  0.00    -0.047 A 
ATOM     13  C   UNL     1      11.806  10.984  21.152  0.00  0.00    +0.004 A 
ATOM     15  C   UNL     1      14.170  12.280  21.870  0.00  0.00    +0.003 A 
ATOM     16  C   UNL     1      15.103  10.190  22.849  0.00  0.00    +0.044 C 
ATOM     17  C   UNL     1      11.973  12.339  20.866  0.00  0.00    +0.000 A 
ATOM     18  C   UNL     1      13.155  12.987  21.224  0.00  0.00    +0.000 A 
ENDBRANCH   6  11
BRANCH   7   4
ATOM      3  O   UNL     1      14.600   7.125  18.665  0.00  0.00    -0.270 OA
ATOM      4  N   UNL     1      14.361   7.481  20.944  0.00  0.00    -0.305 N 
ATOM     14  C   UNL     1      15.066   7.127  19.802  0.00  0.00    +0.244 C 
ATOM     26  H   UNL     1      14.802   7.437  21.856  0.00  0.00    +0.149 HD
BRANCH  14  19
ATOM     19  C   UNL     1      16.473   6.701  20.010  0.00  0.00    +0.037 A 
ATOM     20  C   UNL     1      17.090   5.854  19.090  0.00  0.00    +0.014 A 
ATOM     21  C   UNL     1      17.179   7.149  21.127  0.00  0.00    +0.014 A 
ATOM     22  C   UNL     1      18.413   5.455  19.286  0.00  0.00    +0.019 A 
ATOM     23  C   UNL     1      18.501   6.751  21.323  0.00  0.00    +0.019 A 
ATOM     24  C   UNL     1      19.118   5.904  20.403  0.00  0.00    +0.052 A 
BRANCH  24  25
ATOM      5  N   UNL     1      21.573   5.164  20.765  0.00  0.00    -0.191 NA
ATOM     25  C   UNL     1      20.473   5.495  20.603  0.00  0.00    +0.099 C 
ENDBRANCH  24  25
ENDBRANCH  14  19
ENDBRANCH   7   4
BRANCH   8   1
ATOM      1  O   UNL     1      11.867   5.982  19.862  0.00  0.00    -0.387 OA
ATOM     27  H   UNL     1      11.230   5.268  20.035  0.00  0.00    +0.210 HD
ENDBRANCH   8   1
BRANCH  10   2
ATOM      2  O   UNL     1      10.094   8.012  20.387  0.00  0.00    -0.389 OA
ATOM     28  H   UNL     1      10.790   8.459  19.876  0.00  0.00    +0.210 HD
ENDBRANCH  10   2
TORSDOF 6
ENDMDL
MODEL 3
REMARK VINA RESULT:      -6.8      2.022      3.996
REMARK  Name = 71693922
REMARK  7 active torsions:
REMARK  status: ('A' for Active; 'I' for Inactive)
REMARK    1  A    between atoms: O_1  and  C_8
REMARK    2  A    between atoms: O_2  and  C_10
REMARK    3  A    between atoms: N_4  and  C_7
REMARK    4  A    between atoms: C_6  and  C_11
REMARK    5  A    between atoms: C_12  and  C_16
REMARK    6  A    between atoms: C_14  and  C_19
REMARK    7  A    between atoms: C_24  and  C_25
REMARK                            x       y       z     vdW  Elec       q    Type
REMARK                         _______ _______ _______ _____ _____    ______ ____
ROOT
ATOM      6  C   UNL     1      12.654   7.953  19.106  0.00  0.00    +0.045 C 
ATOM      7  C   UNL     1      13.937   8.662  18.617  0.00  0.00    +0.112 C 
ATOM      8  C   UNL     1      13.895   8.467  17.102  0.00  0.00    +0.164 C 
ATOM      9  C   UNL     1      11.694   7.929  17.888  0.00  0.00    +0.044 C 
ATOM     10  C   UNL     1      12.422   8.670  16.768  0.00  0.00    +0.145 C 
ENDROOT
BRANCH   6  11
ATOM     11  C   UNL     1      12.066   8.583  20.351  0.00  0.00    -0.039 A 
ATOM     12  C   UNL     1      11.534   7.796  21.371  0.00  0.00    -0.047 A 
ATOM     13  C   UNL     1      12.064   9.973  20.469  0.00  0.00    +0.004 A 
ATOM     15  C   UNL     1      10.999   8.398  22.510  0.00  0.00    +0.003 A 
ATOM     16  C   UNL     1      11.526   6.306  21.268  0.00  0.00    +0.044 C 
ATOM     17  C   UNL     1      11.528  10.576  21.607  0.00  0.00    +0.000 A 
ATOM     18  C   UNL     1      10.997   9.788  22.628  0.00  0.00    +0.000 A 
ENDBRANCH   6  11
BRANCH   7   4
ATOM      3  O   UNL     1      15.647   9.887  20.570  0.00  0.00    -0.270 OA
ATOM      4  N   UNL     1      15.124   8.091  19.200  0.00  0.00    -0.305 N 
ATOM     14  C   UNL     1      15.892   8.762  20.142  0.00  0.00    +0.244 C 
ATOM     26  H   UNL     1      15.400   7.171  18.872  0.00  0.00    +0.149 HD
BRANCH  14  19
ATOM     19  C   UNL     1      17.101   8.048  20.626  0.00  0.00    +0.037 A 
ATOM     20  C   UNL     1      17.421   6.791  20.114  0.00  0.00    +0.014 A 
ATOM     21  C   UNL     1      17.919   8.637  21.592  0.00  0.00    +0.014 A 
ATOM     22  C   UNL     1      18.559   6.122  20.568  0.00  0.00    +0.019 A 
ATOM     23  C   UNL     1      19.055   7.968  22.045  0.00  0.00    +0.019 A 
ATOM     24  C   UNL     1      19.376   6.711  21.534  0.00  0.00    +0.052 A 
BRANCH  24  25
ATOM      5  N   UNL     1      21.486   5.468  22.375  0.00  0.00    -0.191 NA
ATOM     25  C   UNL     1      20.540   6.025  21.998  0.00  0.00    +0.099 C 
ENDBRANCH  24  25
ENDBRANCH  14  19
ENDBRANCH   7   4
BRANCH   8   1
ATOM      1  O   UNL     1      14.707   9.404  16.418  0.00  0.00    -0.387 OA
ATOM     27  H   UNL     1      15.360   9.743  17.053  0.00  0.00    +0.210 HD
ENDBRANCH   8   1
BRANCH  10   2
ATOM      2  O   UNL     1      12.069  10.048  16.828  0.00  0.00    -0.389 OA
ATOM     28  H   UNL     1      11.621  10.271  15.994  0.00  0.00    +0.210 HD
ENDBRANCH  10   2
TORSDOF 6
ENDMDL
MODEL 4
REMARK VINA RESULT:      -6.1     13.323     15.091
REMARK  Name = 71693922
REMARK  7 active torsions:
REMARK  status: ('A' for Active; 'I' for Inactive)
REMARK    1  A    between atoms: O_1  and  C_8
REMARK    2  A    between atoms: O_2  and  C_10
REMARK    3  A    between atoms: N_4  and  C_7
REMARK    4  A    between atoms: C_6  and  C_11
REMARK    5  A    between atoms: C_12  and  C_16
REMARK    6  A    between atoms: C_14  and  C_19
REMARK    7  A    between atoms: C_24  and  C_25
REMARK                            x       y       z     vdW  Elec       q    Type
REMARK                         _______ _______ _______ _____ _____    ______ ____
ROOT
ATOM      6  C   UNL     1      10.069   6.384   5.152  0.00  0.00    +0.045 C 
ATOM      7  C   UNL     1      11.315   6.239   6.054  0.00  0.00    +0.112 C 
ATOM      8  C   UNL     1      10.722   6.014   7.445  0.00  0.00    +0.164 C 
ATOM      9  C   UNL     1       8.917   5.669   5.904  0.00  0.00    +0.044 C 
ATOM     10  C   UNL     1       9.542   5.090   7.172  0.00  0.00    +0.145 C 
ENDROOT
BRANCH   6  11
ATOM     11  C   UNL     1      10.298   5.883   3.742  0.00  0.00    -0.039 A 
ATOM     12  C   UNL     1       9.864   6.619   2.639  0.00  0.00    -0.047 A 
ATOM     13  C   UNL     1      10.957   4.668   3.553  0.00  0.00    +0.004 A 
ATOM     15  C   UNL     1      10.086   6.139   1.349  0.00  0.00    +0.003 A 
ATOM     16  C   UNL     1       9.157   7.923   2.816  0.00  0.00    +0.044 C 
ATOM     17  C   UNL     1      11.178   4.187   2.262  0.00  0.00    +0.000 A 
ATOM     18  C   UNL     1      10.744   4.924   1.160  0.00  0.00    +0.000 A 
ENDBRANCH   6  11
BRANCH   7   4
ATOM      3  O   UNL     1      13.978   6.482   7.100  0.00  0.00    -0.270 OA
ATOM      4  N   UNL     1      12.153   7.410   6.010  0.00  0.00    -0.305 N 
ATOM     14  C   UNL     1      13.435   7.434   6.545  0.00  0.00    +0.244 C 
ATOM     26  H   UNL     1      11.757   8.242   5.587  0.00  0.00    +0.149 HD
BRANCH  14  19
ATOM     19  C   UNL     1      14.160   8.725   6.443  0.00  0.00    +0.037 A 
ATOM     20  C   UNL     1      13.485   9.924   6.674  0.00  0.00    +0.014 A 
ATOM     21  C   UNL     1      15.517   8.740   6.118  0.00  0.00    +0.014 A 
ATOM     22  C   UNL     1      14.168  11.138   6.580  0.00  0.00    +0.019 A 
ATOM     23  C   UNL     1      16.198   9.953   6.024  0.00  0.00    +0.019 A 
ATOM     24  C   UNL     1      15.525  11.152   6.255  0.00  0.00    +0.052 A 
BRANCH  24  25
ATOM      5  N   UNL     1      16.790  13.404   6.080  0.00  0.00    -0.191 NA
ATOM     25  C   UNL     1      16.223  12.395   6.159  0.00  0.00    +0.099 C 
ENDBRANCH  24  25
ENDBRANCH  14  19
ENDBRANCH   7   4
BRANCH   8   1
ATOM      1  O   UNL     1      11.648   5.411   8.332  0.00  0.00    -0.387 OA
ATOM     27  H   UNL     1      11.136   4.959   9.023  0.00  0.00    +0.210 HD
ENDBRANCH   8   1
BRANCH  10   2
ATOM      2  O   UNL     1       9.983   3.763   6.898  0.00  0.00    -0.389 OA
ATOM     28  H   UNL     1       9.599   3.498   6.046  0.00  0.00    +0.210 HD
ENDBRANCH  10   2
TORSDOF 6
ENDMDL
MODEL 5
REMARK VINA RESULT:      -6.0     15.992     19.281
REMARK  Name = 71693922
REMARK  7 active torsions:
REMARK  status: ('A' for Active; 'I' for Inactive)
REMARK    1  A    between atoms: O_1  and  C_8
REMARK    2  A    between atoms: O_2  and  C_10
REMARK    3  A    between atoms: N_4  and  C_7
REMARK    4  A    between atoms: C_6  and  C_11
REMARK    5  A    between atoms: C_12  and  C_16
REMARK    6  A    between atoms: C_14  and  C_19
REMARK    7  A    between atoms: C_24  and  C_25
REMARK                            x       y       z     vdW  Elec       q    Type
REMARK                         _______ _______ _______ _____ _____    ______ ____
ROOT
ATOM      6  C   UNL     1      11.839   7.251   3.359  0.00  0.00    +0.045 C 
ATOM      7  C   UNL     1      12.682   6.061   2.846  0.00  0.00    +0.112 C 
ATOM      8  C   UNL     1      14.092   6.642   2.745  0.00  0.00    +0.164 C 
ATOM      9  C   UNL     1      12.838   8.202   4.067  0.00  0.00    +0.044 C 
ATOM     10  C   UNL     1      14.199   7.510   3.993  0.00  0.00    +0.145 C 
ENDROOT
BRANCH   6  11
ATOM     11  C   UNL     1      10.671   6.820   4.220  0.00  0.00    -0.039 A 
ATOM     12  C   UNL     1       9.367   7.197   3.902  0.00  0.00    -0.047 A 
ATOM     13  C   UNL     1      10.914   6.034   5.347  0.00  0.00    +0.004 A 
ATOM     15  C   UNL     1       8.305   6.789   4.708  0.00  0.00    +0.003 A 
ATOM     16  C   UNL     1       9.082   8.039   2.700  0.00  0.00    +0.044 C 
ATOM     17  C   UNL     1       9.852   5.626   6.154  0.00  0.00    +0.000 A 
ATOM     18  C   UNL     1       8.548   6.002   5.835  0.00  0.00    +0.000 A 
ENDBRANCH   6  11
BRANCH   7   4
ATOM      3  O   UNL     1      13.170   3.467   1.717  0.00  0.00    -0.270 OA
ATOM      4  N   UNL     1      12.210   5.573   1.576  0.00  0.00    -0.305 N 
ATOM     14  C   UNL     1      12.498   4.297   1.110  0.00  0.00    +0.244 C 
ATOM     26  H   UNL     1      11.667   6.217   1.009  0.00  0.00    +0.149 HD
BRANCH  14  19
ATOM     19  C   UNL     1      11.960   3.955  -0.231  0.00  0.00    +0.037 A 
ATOM     20  C   UNL     1      12.536   2.923  -0.972  0.00  0.00    +0.014 A 
ATOM     21  C   UNL     1      10.877   4.666  -0.750  0.00  0.00    +0.014 A 
ATOM     22  C   UNL     1      12.028   2.602  -2.232  0.00  0.00    +0.019 A 
ATOM     23  C   UNL     1      10.370   4.344  -2.008  0.00  0.00    +0.019 A 
ATOM     24  C   UNL     1      10.945   3.313  -2.749  0.00  0.00    +0.052 A 
BRANCH  24  25
ATOM      5  N   UNL     1      10.005   2.715  -5.087  0.00  0.00    -0.191 NA
ATOM     25  C   UNL     1      10.426   2.983  -4.039  0.00  0.00    +0.099 C 
ENDBRANCH  24  25
ENDBRANCH  14  19
ENDBRANCH   7   4
BRANCH   8   1
ATOM      1  O   UNL     1      15.088   5.636   2.737  0.00  0.00    -0.387 OA
ATOM     27  H   UNL     1      15.223   5.352   3.657  0.00  0.00    +0.210 HD
ENDBRANCH   8   1
BRANCH  10   2
ATOM      2  O   UNL     1      14.368   6.711   5.159  0.00  0.00    -0.389 OA
ATOM     28  H   UNL     1      13.804   5.925   5.059  0.00  0.00    +0.210 HD
ENDBRANCH  10   2
TORSDOF 6
ENDMDL
MODEL 6
REMARK VINA RESULT:      -6.0     32.329     33.702
REMARK  Name = 71693922
REMARK  7 active torsions:
REMARK  status: ('A' for Active; 'I' for Inactive)
REMARK    1  A    between atoms: O_1  and  C_8
REMARK    2  A    between atoms: O_2  and  C_10
REMARK    3  A    between atoms: N_4  and  C_7
REMARK    4  A    between atoms: C_6  and  C_11
REMARK    5  A    between atoms: C_12  and  C_16
REMARK    6  A    between atoms: C_14  and  C_19
REMARK    7  A    between atoms: C_24  and  C_25
REMARK                            x       y       z     vdW  Elec       q    Type
REMARK                         _______ _______ _______ _____ _____    ______ ____
ROOT
ATOM      6  C   UNL     1     -15.300   3.832  31.958  0.00  0.00    +0.045 C 
ATOM      7  C   UNL     1     -15.624   2.482  31.279  0.00  0.00    +0.112 C 
ATOM      8  C   UNL     1     -14.401   1.622  31.595  0.00  0.00    +0.164 C 
ATOM      9  C   UNL     1     -14.271   3.507  33.072  0.00  0.00    +0.044 C 
ATOM     10  C   UNL     1     -14.083   1.991  33.039  0.00  0.00    +0.145 C 
ENDROOT
BRANCH   6  11
ATOM     11  C   UNL     1     -16.535   4.562  32.443  0.00  0.00    -0.039 A 
ATOM     12  C   UNL     1     -17.061   5.636  31.727  0.00  0.00    -0.047 A 
ATOM     13  C   UNL     1     -17.148   4.144  33.625  0.00  0.00    +0.004 A 
ATOM     15  C   UNL     1     -18.200   6.293  32.191  0.00  0.00    +0.003 A 
ATOM     16  C   UNL     1     -16.423   6.100  30.459  0.00  0.00    +0.044 C 
ATOM     17  C   UNL     1     -18.286   4.803  34.091  0.00  0.00    +0.000 A 
ATOM     18  C   UNL     1     -18.813   5.876  33.373  0.00  0.00    +0.000 A 
ENDBRANCH   6  11
BRANCH   7   4
ATOM      3  O   UNL     1     -16.684   0.505  29.487  0.00  0.00    -0.270 OA
ATOM      4  N   UNL     1     -15.827   2.627  29.860  0.00  0.00    -0.305 N 
ATOM     14  C   UNL     1     -16.348   1.611  29.070  0.00  0.00    +0.244 C 
ATOM     26  H   UNL     1     -15.547   3.510  29.444  0.00  0.00    +0.149 HD
BRANCH  14  19
ATOM     19  C   UNL     1     -16.469   1.908  27.621  0.00  0.00    +0.037 A 
ATOM     20  C   UNL     1     -16.897   0.916  26.738  0.00  0.00    +0.014 A 
ATOM     21  C   UNL     1     -16.156   3.181  27.141  0.00  0.00    +0.014 A 
ATOM     22  C   UNL     1     -17.012   1.197  25.376  0.00  0.00    +0.019 A 
ATOM     23  C   UNL     1     -16.272   3.461  25.780  0.00  0.00    +0.019 A 
ATOM     24  C   UNL     1     -16.699   2.470  24.897  0.00  0.00    +0.052 A 
BRANCH  24  25
ATOM      5  N   UNL     1     -16.913   2.990  22.370  0.00  0.00    -0.191 NA
ATOM     25  C   UNL     1     -16.818   2.757  23.502  0.00  0.00    +0.099 C 
ENDBRANCH  24  25
ENDBRANCH  14  19
ENDBRANCH   7   4
BRANCH   8   1
ATOM      1  O   UNL     1     -14.672   0.238  31.470  0.00  0.00    -0.387 OA
ATOM     27  H   UNL     1     -14.354  -0.195  32.281  0.00  0.00    +0.210 HD
ENDBRANCH   8   1
BRANCH  10   2
ATOM      2  O   UNL     1     -15.015   1.396  33.936  0.00  0.00    -0.389 OA
ATOM     28  H   UNL     1     -14.694   0.501  34.139  0.00  0.00    +0.210 HD
ENDBRANCH  10   2
TORSDOF 6
ENDMDL
MODEL 7
REMARK VINA RESULT:      -6.0     25.538     27.687
REMARK  Name = 71693922
REMARK  7 active torsions:
REMARK  status: ('A' for Active; 'I' for Inactive)
REMARK    1  A    between atoms: O_1  and  C_8
REMARK    2  A    between atoms: O_2  and  C_10
REMARK    3  A    between atoms: N_4  and  C_7
REMARK    4  A    between atoms: C_6  and  C_11
REMARK    5  A    between atoms: C_12  and  C_16
REMARK    6  A    between atoms: C_14  and  C_19
REMARK    7  A    between atoms: C_24  and  C_25
REMARK                            x       y       z     vdW  Elec       q    Type
REMARK                         _______ _______ _______ _____ _____    ______ ____
ROOT
ATOM      6  C   UNL     1     -12.559  10.616  15.772  0.00  0.00    +0.045 C 
ATOM      7  C   UNL     1     -12.155   9.125  15.822  0.00  0.00    +0.112 C 
ATOM      8  C   UNL     1     -12.817   8.535  14.578  0.00  0.00    +0.164 C 
ATOM      9  C   UNL     1     -12.885  10.915  14.286  0.00  0.00    +0.044 C 
ATOM     10  C   UNL     1     -12.606   9.618  13.527  0.00  0.00    +0.145 C 
ENDROOT
BRANCH   6  11
ATOM     11  C   UNL     1     -11.517  11.532  16.378  0.00  0.00    -0.039 A 
ATOM     12  C   UNL     1     -11.724  12.133  17.618  0.00  0.00    -0.047 A 
ATOM     13  C   UNL     1     -10.334  11.769  15.676  0.00  0.00    +0.004 A 
ATOM     15  C   UNL     1     -10.750  12.973  18.158  0.00  0.00    +0.003 A 
ATOM     16  C   UNL     1     -12.982  11.894  18.388  0.00  0.00    +0.044 C 
ATOM     17  C   UNL     1      -9.360  12.610  16.216  0.00  0.00    +0.000 A 
ATOM     18  C   UNL     1      -9.568  13.211  17.457  0.00  0.00    +0.000 A 
ENDBRANCH   6  11
BRANCH   7   4
ATOM      3  O   UNL     1     -10.654   8.759  18.242  0.00  0.00    -0.270 OA
ATOM      4  N   UNL     1     -12.611   8.483  17.029  0.00  0.00    -0.305 N 
ATOM     14  C   UNL     1     -11.810   8.352  18.155  0.00  0.00    +0.244 C 
ATOM     26  H   UNL     1     -13.551   8.100  17.018  0.00  0.00    +0.149 HD
BRANCH  14  19
ATOM     19  C   UNL     1     -12.417   7.641  19.309  0.00  0.00    +0.037 A 
ATOM     20  C   UNL     1     -11.609   6.927  20.194  0.00  0.00    +0.014 A 
ATOM     21  C   UNL     1     -13.798   7.688  19.508  0.00  0.00    +0.014 A 
ATOM     22  C   UNL     1     -12.181   6.261  21.278  0.00  0.00    +0.019 A 
ATOM     23  C   UNL     1     -14.369   7.022  20.592  0.00  0.00    +0.019 A 
ATOM     24  C   UNL     1     -13.561   6.309  21.477  0.00  0.00    +0.052 A 
BRANCH  24  25
ATOM      5  N   UNL     1     -14.621   5.072  23.490  0.00  0.00    -0.191 NA
ATOM     25  C   UNL     1     -14.146   5.626  22.588  0.00  0.00    +0.099 C 
ENDBRANCH  24  25
ENDBRANCH  14  19
ENDBRANCH   7   4
BRANCH   8   1
ATOM      1  O   UNL     1     -12.220   7.315  14.179  0.00  0.00    -0.387 OA
ATOM     27  H   UNL     1     -11.276   7.363  14.409  0.00  0.00    +0.210 HD
ENDBRANCH   8   1
BRANCH  10   2
ATOM      2  O   UNL     1     -11.254   9.637  13.076  0.00  0.00    -0.389 OA
ATOM     28  H   UNL     1     -11.237  10.104  12.224  0.00  0.00    +0.210 HD
ENDBRANCH  10   2
TORSDOF 6
ENDMDL
MODEL 8
REMARK VINA RESULT:      -5.9     19.577     23.245
REMARK  Name = 71693922
REMARK  7 active torsions:
REMARK  status: ('A' for Active; 'I' for Inactive)
REMARK    1  A    between atoms: O_1  and  C_8
REMARK    2  A    between atoms: O_2  and  C_10
REMARK    3  A    between atoms: N_4  and  C_7
REMARK    4  A    between atoms: C_6  and  C_11
REMARK    5  A    between atoms: C_12  and  C_16
REMARK    6  A    between atoms: C_14  and  C_19
REMARK    7  A    between atoms: C_24  and  C_25
REMARK                            x       y       z     vdW  Elec       q    Type
REMARK                         _______ _______ _______ _____ _____    ______ ____
ROOT
ATOM      6  C   UNL     1      -0.465  12.325   4.666  0.00  0.00    +0.045 C 
ATOM      7  C   UNL     1      -0.283  10.890   4.121  0.00  0.00    +0.112 C 
ATOM      8  C   UNL     1       0.278  11.112   2.717  0.00  0.00    +0.164 C 
ATOM      9  C   UNL     1       0.509  13.213   3.849  0.00  0.00    +0.044 C 
ATOM     10  C   UNL     1       1.255  12.264   2.912  0.00  0.00    +0.145 C 
ENDROOT
BRANCH   6  11
ATOM     11  C   UNL     1      -0.282  12.416   6.166  0.00  0.00    -0.039 A 
ATOM     12  C   UNL     1      -1.382  12.505   7.019  0.00  0.00    -0.047 A 
ATOM     13  C   UNL     1       1.010  12.406   6.693  0.00  0.00    +0.004 A 
ATOM     15  C   UNL     1      -1.191  12.587   8.398  0.00  0.00    +0.003 A 
ATOM     16  C   UNL     1      -2.775  12.516   6.479  0.00  0.00    +0.044 C 
ATOM     17  C   UNL     1       1.201  12.489   8.072  0.00  0.00    +0.000 A 
ATOM     18  C   UNL     1       0.101  12.578   8.925  0.00  0.00    +0.000 A 
ENDBRANCH   6  11
BRANCH   7   4
ATOM      3  O   UNL     1      -1.106   8.838   5.953  0.00  0.00    -0.270 OA
ATOM      4  N   UNL     1      -1.525  10.161   4.095  0.00  0.00    -0.305 N 
ATOM     14  C   UNL     1      -1.838   9.181   5.028  0.00  0.00    +0.244 C 
ATOM     26  H   UNL     1      -2.168  10.377   3.340  0.00  0.00    +0.149 HD
BRANCH  14  19
ATOM     19  C   UNL     1      -3.146   8.503   4.848  0.00  0.00    +0.037 A 
ATOM     20  C   UNL     1      -3.332   7.206   5.326  0.00  0.00    +0.014 A 
ATOM     21  C   UNL     1      -4.191   9.164   4.200  0.00  0.00    +0.014 A 
ATOM     22  C   UNL     1      -4.563   6.570   5.158  0.00  0.00    +0.019 A 
ATOM     23  C   UNL     1      -5.421   8.528   4.032  0.00  0.00    +0.019 A 
ATOM     24  C   UNL     1      -5.607   7.232   4.511  0.00  0.00    +0.052 A 
BRANCH  24  25
ATOM      5  N   UNL     1      -7.890   6.050   4.199  0.00  0.00    -0.191 NA
ATOM     25  C   UNL     1      -6.867   6.580   4.339  0.00  0.00    +0.099 C 
ENDBRANCH  24  25
ENDBRANCH  14  19
ENDBRANCH   7   4
BRANCH   8   1
ATOM      1  O   UNL     1       0.937   9.964   2.215  0.00  0.00    -0.387 OA
ATOM     27  H   UNL     1       0.362   9.199   2.386  0.00  0.00    +0.210 HD
ENDBRANCH   8   1
BRANCH  10   2
ATOM      2  O   UNL     1       2.443  11.823   3.562  0.00  0.00    -0.389 OA
ATOM     28  H   UNL     1       3.099  11.630   2.871  0.00  0.00    +0.210 HD
ENDBRANCH  10   2
TORSDOF 6
ENDMDL
MODEL 9
REMARK VINA RESULT:      -5.8     26.293     28.914
REMARK  Name = 71693922
REMARK  7 active torsions:
REMARK  status: ('A' for Active; 'I' for Inactive)
REMARK    1  A    between atoms: O_1  and  C_8
REMARK    2  A    between atoms: O_2  and  C_10
REMARK    3  A    between atoms: N_4  and  C_7
REMARK    4  A    between atoms: C_6  and  C_11
REMARK    5  A    between atoms: C_12  and  C_16
REMARK    6  A    between atoms: C_14  and  C_19
REMARK    7  A    between atoms: C_24  and  C_25
REMARK                            x       y       z     vdW  Elec       q    Type
REMARK                         _______ _______ _______ _____ _____    ______ ____
ROOT
ATOM      6  C   UNL     1      -5.009 -11.719  16.725  0.00  0.00    +0.045 C 
ATOM      7  C   UNL     1      -5.434 -10.702  17.808  0.00  0.00    +0.112 C 
ATOM      8  C   UNL     1      -5.850 -11.586  18.983  0.00  0.00    +0.164 C 
ATOM      9  C   UNL     1      -4.637 -13.017  17.488  0.00  0.00    +0.044 C 
ATOM     10  C   UNL     1      -4.801 -12.691  18.972  0.00  0.00    +0.145 C 
ENDROOT
BRANCH   6  11
ATOM     11  C   UNL     1      -3.917 -11.195  15.817  0.00  0.00    -0.039 A 
ATOM     12  C   UNL     1      -4.154 -10.978  14.460  0.00  0.00    -0.047 A 
ATOM     13  C   UNL     1      -2.658 -10.927  16.356  0.00  0.00    +0.004 A 
ATOM     15  C   UNL     1      -3.134 -10.494  13.642  0.00  0.00    +0.003 A 
ATOM     16  C   UNL     1      -5.494 -11.257  13.860  0.00  0.00    +0.044 C 
ATOM     17  C   UNL     1      -1.637 -10.444  15.538  0.00  0.00    +0.000 A 
ATOM     18  C   UNL     1      -1.875 -10.226  14.181  0.00  0.00    +0.000 A 
ENDBRANCH   6  11
BRANCH   7   4
ATOM      3  O   UNL     1      -8.017 -11.563  16.896  0.00  0.00    -0.270 OA
ATOM      4  N   UNL     1      -6.514  -9.859  17.361  0.00  0.00    -0.305 N 
ATOM     14  C   UNL     1      -7.734 -10.368  16.937  0.00  0.00    +0.244 C 
ATOM     26  H   UNL     1      -6.340  -8.859  17.345  0.00  0.00    +0.149 HD
BRANCH  14  19
ATOM     19  C   UNL     1      -8.735  -9.369  16.482  0.00  0.00    +0.037 A 
ATOM     20  C   UNL     1      -9.243  -8.431  17.380  0.00  0.00    +0.014 A 
ATOM     21  C   UNL     1      -9.166  -9.369  15.154  0.00  0.00    +0.014 A 
ATOM     22  C   UNL     1     -10.182  -7.492  16.951  0.00  0.00    +0.019 A 
ATOM     23  C   UNL     1     -10.104  -8.431  14.726  0.00  0.00    +0.019 A 
ATOM     24  C   UNL     1     -10.612  -7.492  15.623  0.00  0.00    +0.052 A 
BRANCH  24  25
ATOM      5  N   UNL     1     -12.355  -5.750  14.828  0.00  0.00    -0.191 NA
ATOM     25  C   UNL     1     -11.574  -6.530  15.185  0.00  0.00    +0.099 C 
ENDBRANCH  24  25
ENDBRANCH  14  19
ENDBRANCH   7   4
BRANCH   8   1
ATOM      1  O   UNL     1      -5.839 -10.884  20.213  0.00  0.00    -0.387 OA
ATOM     27  H   UNL     1      -6.470 -11.325  20.806  0.00  0.00    +0.210 HD
ENDBRANCH   8   1
BRANCH  10   2
ATOM      2  O   UNL     1      -3.555 -12.218  19.475  0.00  0.00    -0.389 OA
ATOM     28  H   UNL     1      -3.681 -12.009  20.416  0.00  0.00    +0.210 HD
ENDBRANCH  10   2
TORSDOF 6
ENDMDL
MODEL 10
REMARK VINA RESULT:      -5.8     27.030     28.494
REMARK  Name = 71693922
REMARK  7 active torsions:
REMARK  status: ('A' for Active; 'I' for Inactive)
REMARK    1  A    between atoms: O_1  and  C_8
REMARK    2  A    between atoms: O_2  and  C_10
REMARK    3  A    between atoms: N_4  and  C_7
REMARK    4  A    between atoms: C_6  and  C_11
REMARK    5  A    between atoms: C_12  and  C_16
REMARK    6  A    between atoms: C_14  and  C_19
REMARK    7  A    between atoms: C_24  and  C_25
REMARK                            x       y       z     vdW  Elec       q    Type
REMARK                         _______ _______ _______ _____ _____    ______ ____
ROOT
ATOM      6  C   UNL     1      -4.307 -11.788  12.468  0.00  0.00    +0.045 C 
ATOM      7  C   UNL     1      -3.753 -11.439  13.868  0.00  0.00    +0.112 C 
ATOM      8  C   UNL     1      -2.789 -12.587  14.164  0.00  0.00    +0.164 C 
ATOM      9  C   UNL     1      -3.250 -12.715  11.814  0.00  0.00    +0.044 C 
ATOM     10  C   UNL     1      -2.107 -12.822  12.822  0.00  0.00    +0.145 C 
ENDROOT
BRANCH   6  11
ATOM     11  C   UNL     1      -4.656 -10.564  11.648  0.00  0.00    -0.039 A 
ATOM     12  C   UNL     1      -5.960 -10.074  11.608  0.00  0.00    -0.047 A 
ATOM     13  C   UNL     1      -3.648  -9.923  10.925  0.00  0.00    +0.004 A 
ATOM     15  C   UNL     1      -6.259  -8.944  10.847  0.00  0.00    +0.003 A 
ATOM     16  C   UNL     1      -7.056 -10.742  12.374  0.00  0.00    +0.044 C 
ATOM     17  C   UNL     1      -3.947  -8.794  10.163  0.00  0.00    +0.000 A 
ATOM     18  C   UNL     1      -5.252  -8.304  10.125  0.00  0.00    +0.000 A 
ENDBRANCH   6  11
BRANCH   7   4
ATOM      3  O   UNL     1      -3.557 -10.230  16.465  0.00  0.00    -0.270 OA
ATOM      4  N   UNL     1      -4.798 -11.347  14.855  0.00  0.00    -0.305 N 
ATOM     14  C   UNL     1      -4.610 -10.740  16.090  0.00  0.00    +0.244 C 
ATOM     26  H   UNL     1      -5.690 -11.771  14.620  0.00  0.00    +0.149 HD
BRANCH  14  19
ATOM     19  C   UNL     1      -5.778 -10.751  17.006  0.00  0.00    +0.037 A 
ATOM     20  C   UNL     1      -7.073 -10.785  16.487  0.00  0.00    +0.014 A 
ATOM     21  C   UNL     1      -5.581 -10.728  18.388  0.00  0.00    +0.014 A 
ATOM     22  C   UNL     1      -8.170 -10.797  17.350  0.00  0.00    +0.019 A 
ATOM     23  C   UNL     1      -6.678 -10.740  19.249  0.00  0.00    +0.019 A 
ATOM     24  C   UNL     1      -7.972 -10.774  18.731  0.00  0.00    +0.052 A 
BRANCH  24  25
ATOM      5  N   UNL     1     -10.008 -10.796  20.329  0.00  0.00    -0.191 NA
ATOM     25  C   UNL     1      -9.096 -10.786  19.613  0.00  0.00    +0.099 C 
ENDBRANCH  24  25
ENDBRANCH  14  19
ENDBRANCH   7   4
BRANCH   8   1
ATOM      1  O   UNL     1      -1.844 -12.250  15.164  0.00  0.00    -0.387 OA
ATOM     27  H   UNL     1      -0.960 -12.433  14.804  0.00  0.00    +0.210 HD
ENDBRANCH   8   1
BRANCH  10   2
ATOM      2  O   UNL     1      -1.158 -11.796  12.544  0.00  0.00    -0.389 OA
ATOM     28  H   UNL     1      -0.503 -12.164  11.926  0.00  0.00    +0.210 HD
ENDBRANCH  10   2
TORSDOF 6
ENDMDL
