MODEL 1
REMARK VINA RESULT:      -6.7      0.000      0.000
REMARK  Name = 40779471
REMARK  7 active torsions:
REMARK  status: ('A' for Active; 'I' for Inactive)
REMARK    1  A    between atoms: S_1  and  N_6
REMARK    2  A    between atoms: S_1  and  C_21
REMARK    3  A    between atoms: N_5  and  C_19
REMARK    4  A    between atoms: N_6  and  C_15
REMARK    5  A    between atoms: C_9  and  C_16
REMARK    6  A    between atoms: C_10  and  C_15
REMARK    7  A    between atoms: C_18  and  C_20
REMARK                            x       y       z     vdW  Elec       q    Type
REMARK                         _______ _______ _______ _____ _____    ______ ____
ROOT
ATOM      4  N   UNL     1      -6.692 -12.644  18.563  0.00  0.00    -0.297 NA
ATOM      8  C   UNL     1      -5.978 -10.217  17.945  0.00  0.00    +0.002 C 
ATOM      9  C   UNL     1      -7.248 -10.630  17.149  0.00  0.00    +0.055 C 
ATOM     10  C   UNL     1      -5.243 -12.610  18.229  0.00  0.00    +0.072 C 
ATOM     11  C   UNL     1      -4.849 -11.229  17.663  0.00  0.00    +0.024 C 
ATOM     12  C   UNL     1      -6.333 -10.338  19.443  0.00  0.00    +0.019 C 
ATOM     13  C   UNL     1      -7.490 -12.143  17.416  0.00  0.00    +0.094 C 
ATOM     14  C   UNL     1      -6.915 -11.738  19.714  0.00  0.00    +0.085 C 
ENDROOT
BRANCH   9  16
ATOM      5  N   UNL     1      -8.427  -9.781  15.069  0.00  0.00    -0.270 N 
ATOM      7  N   UNL     1      -8.277  -9.547  13.754  0.00  0.00    -0.171 NA
ATOM     16  C   UNL     1      -7.310 -10.287  15.668  0.00  0.00    +0.044 A 
ATOM     17  C   UNL     1      -6.366 -10.393  14.676  0.00  0.00    +0.053 A 
ATOM     18  C   UNL     1      -7.017  -9.923  13.520  0.00  0.00    +0.093 A 
ATOM     19  C   UNL     1      -9.694  -9.491  15.697  0.00  0.00    +0.172 C 
BRANCH  18  20
ATOM     20  C   UNL     1      -6.458  -9.827  12.196  0.00  0.00    +0.003 A 
ATOM     22  C   UNL     1      -6.653 -10.863  11.282  0.00  0.00    +0.018 A 
ATOM     23  C   UNL     1      -5.725  -8.702  11.830  0.00  0.00    +0.011 A 
ATOM     26  C   UNL     1      -6.115 -10.785   9.986  0.00  0.00    -0.017 A 
ATOM     27  C   UNL     1      -5.185  -8.608  10.548  0.00  0.00    +0.009 A 
ATOM     28  C   UNL     1      -5.370  -9.640   9.614  0.00  0.00    -0.018 A 
ATOM     31  C   UNL     1      -6.300 -11.817   9.053  0.00  0.00    +0.008 A 
ATOM     33  C   UNL     1      -4.832  -9.562   8.319  0.00  0.00    +0.008 A 
ATOM     34  C   UNL     1      -5.759 -11.723   7.771  0.00  0.00    +0.001 A 
ATOM     35  C   UNL     1      -5.026 -10.598   7.404  0.00  0.00    +0.001 A 
ENDBRANCH  18  20
ENDBRANCH   9  16
BRANCH  10  15
ATOM     15  C   UNL     1      -4.833 -13.749  17.293  0.00  0.00    +0.124 C 
BRANCH  15   6
ATOM      6  N   UNL     1      -4.080 -13.194  16.156  0.00  0.00    -0.188 NA
ATOM     36  H   UNL     1      -3.817 -12.204  16.220  0.00  0.00    +0.148 HD
BRANCH   6   1
ATOM      1  S   UNL     1      -4.311 -13.820  14.590  0.00  0.00    +0.058 S 
ATOM      2  O   UNL     1      -5.729 -13.852  14.290  0.00  0.00    -0.153 OA
ATOM      3  O   UNL     1      -3.505 -15.016  14.433  0.00  0.00    -0.153 OA
BRANCH   1  21
ATOM     21  C   UNL     1      -3.571 -12.565  13.588  0.00  0.00    +0.105 A 
ATOM     24  C   UNL     1      -3.545 -12.705  12.201  0.00  0.00    +0.028 A 
ATOM     25  C   UNL     1      -3.007 -11.437  14.187  0.00  0.00    +0.028 A 
ATOM     29  C   UNL     1      -2.957 -11.716  11.412  0.00  0.00    +0.002 A 
ATOM     30  C   UNL     1      -2.418 -10.449  13.397  0.00  0.00    +0.002 A 
ATOM     32  C   UNL     1      -2.394 -10.589  12.010  0.00  0.00    +0.000 A 
ENDBRANCH   1  21
ENDBRANCH   6   1
ENDBRANCH  15   6
ENDBRANCH  10  15
TORSDOF 6
ENDMDL
MODEL 2
REMARK VINA RESULT:      -6.5     28.245     30.396
REMARK  Name = 40779471
REMARK  7 active torsions:
REMARK  status: ('A' for Active; 'I' for Inactive)
REMARK    1  A    between atoms: S_1  and  N_6
REMARK    2  A    between atoms: S_1  and  C_21
REMARK    3  A    between atoms: N_5  and  C_19
REMARK    4  A    between atoms: N_6  and  C_15
REMARK    5  A    between atoms: C_9  and  C_16
REMARK    6  A    between atoms: C_10  and  C_15
REMARK    7  A    between atoms: C_18  and  C_20
REMARK                            x       y       z     vdW  Elec       q    Type
REMARK                         _______ _______ _______ _____ _____    ______ ____
ROOT
ATOM      4  N   UNL     1      11.706  12.135  21.261  0.00  0.00    -0.297 NA
ATOM      8  C   UNL     1      13.209  11.953  23.380  0.00  0.00    +0.002 C 
ATOM      9  C   UNL     1      14.083  12.126  22.106  0.00  0.00    +0.055 C 
ATOM     10  C   UNL     1      11.303  10.955  22.070  0.00  0.00    +0.072 C 
ATOM     11  C   UNL     1      12.309  10.711  23.215  0.00  0.00    +0.024 C 
ATOM     12  C   UNL     1      12.277  13.182  23.451  0.00  0.00    +0.019 C 
ATOM     13  C   UNL     1      13.135  12.024  20.877  0.00  0.00    +0.094 C 
ATOM     14  C   UNL     1      11.545  13.341  22.106  0.00  0.00    +0.085 C 
ENDROOT
BRANCH   9  16
ATOM      5  N   UNL     1      16.566  11.655  22.334  0.00  0.00    -0.270 N 
ATOM      7  N   UNL     1      17.522  10.735  22.119  0.00  0.00    -0.171 NA
ATOM     16  C   UNL     1      15.318  11.250  21.957  0.00  0.00    +0.044 A 
ATOM     17  C   UNL     1      15.469   9.979  21.460  0.00  0.00    +0.053 A 
ATOM     18  C   UNL     1      16.846   9.714  21.585  0.00  0.00    +0.093 A 
ATOM     19  C   UNL     1      16.928  12.926  22.915  0.00  0.00    +0.172 C 
BRANCH  18  20
ATOM     20  C   UNL     1      17.528   8.505  21.203  0.00  0.00    +0.003 A 
ATOM     22  C   UNL     1      18.786   8.217  21.734  0.00  0.00    +0.018 A 
ATOM     23  C   UNL     1      16.932   7.624  20.304  0.00  0.00    +0.011 A 
ATOM     26  C   UNL     1      19.465   7.042  21.371  0.00  0.00    -0.017 A 
ATOM     27  C   UNL     1      17.592   6.453  19.934  0.00  0.00    +0.009 A 
ATOM     28  C   UNL     1      18.859   6.146  20.458  0.00  0.00    -0.018 A 
ATOM     31  C   UNL     1      20.731   6.736  21.896  0.00  0.00    +0.008 A 
ATOM     33  C   UNL     1      19.537   4.972  20.096  0.00  0.00    +0.008 A 
ATOM     34  C   UNL     1      21.390   5.564  21.525  0.00  0.00    +0.001 A 
ATOM     35  C   UNL     1      20.795   4.684  20.626  0.00  0.00    +0.001 A 
ENDBRANCH  18  20
ENDBRANCH   9  16
BRANCH  10  15
ATOM     15  C   UNL     1      11.098   9.703  21.214  0.00  0.00    +0.124 C 
BRANCH  15   6
ATOM      6  N   UNL     1      12.050   8.664  21.639  0.00  0.00    -0.188 NA
ATOM     36  H   UNL     1      12.785   8.956  22.294  0.00  0.00    +0.148 HD
BRANCH   6   1
ATOM      1  S   UNL     1      12.432   7.374  20.596  0.00  0.00    +0.058 S 
ATOM      2  O   UNL     1      11.295   6.479  20.505  0.00  0.00    -0.153 OA
ATOM      3  O   UNL     1      13.742   6.855  20.942  0.00  0.00    -0.153 OA
BRANCH   1  21
ATOM     21  C   UNL     1      12.599   8.203  19.043  0.00  0.00    +0.105 A 
ATOM     24  C   UNL     1      13.775   8.889  18.742  0.00  0.00    +0.028 A 
ATOM     25  C   UNL     1      11.552   8.174  18.121  0.00  0.00    +0.028 A 
ATOM     29  C   UNL     1      13.904   9.546  17.518  0.00  0.00    +0.002 A 
ATOM     30  C   UNL     1      11.681   8.832  16.898  0.00  0.00    +0.002 A 
ATOM     32  C   UNL     1      12.858   9.517  16.597  0.00  0.00    +0.000 A 
ENDBRANCH   1  21
ENDBRANCH   6   1
ENDBRANCH  15   6
ENDBRANCH  10  15
TORSDOF 6
ENDMDL
MODEL 3
REMARK VINA RESULT:      -6.4      3.528      8.417
REMARK  Name = 40779471
REMARK  7 active torsions:
REMARK  status: ('A' for Active; 'I' for Inactive)
REMARK    1  A    between atoms: S_1  and  N_6
REMARK    2  A    between atoms: S_1  and  C_21
REMARK    3  A    between atoms: N_5  and  C_19
REMARK    4  A    between atoms: N_6  and  C_15
REMARK    5  A    between atoms: C_9  and  C_16
REMARK    6  A    between atoms: C_10  and  C_15
REMARK    7  A    between atoms: C_18  and  C_20
REMARK                            x       y       z     vdW  Elec       q    Type
REMARK                         _______ _______ _______ _____ _____    ______ ____
ROOT
ATOM      4  N   UNL     1      -4.852 -11.945  14.901  0.00  0.00    -0.297 NA
ATOM      8  C   UNL     1      -4.789 -10.427  17.016  0.00  0.00    +0.002 C 
ATOM      9  C   UNL     1      -5.656 -11.690  17.278  0.00  0.00    +0.055 C 
ATOM     10  C   UNL     1      -5.177 -10.542  14.530  0.00  0.00    +0.072 C 
ATOM     11  C   UNL     1      -5.348  -9.671  15.792  0.00  0.00    +0.024 C 
ATOM     12  C   UNL     1      -3.378 -10.925  16.636  0.00  0.00    +0.019 C 
ATOM     13  C   UNL     1      -5.810 -12.435  15.922  0.00  0.00    +0.094 C 
ATOM     14  C   UNL     1      -3.495 -11.954  15.497  0.00  0.00    +0.085 C 
ENDROOT
BRANCH   9  16
ATOM      5  N   UNL     1      -7.086 -11.337  19.344  0.00  0.00    -0.270 N 
ATOM      7  N   UNL     1      -8.350 -11.200  19.781  0.00  0.00    -0.171 NA
ATOM     16  C   UNL     1      -6.986 -11.512  17.995  0.00  0.00    +0.044 A 
ATOM     17  C   UNL     1      -8.273 -11.489  17.516  0.00  0.00    +0.053 A 
ATOM     18  C   UNL     1      -9.070 -11.293  18.660  0.00  0.00    +0.093 A 
ATOM     19  C   UNL     1      -6.002 -11.291  20.296  0.00  0.00    +0.172 C 
BRANCH  18  20
ATOM     20  C   UNL     1     -10.506 -11.196  18.703  0.00  0.00    +0.003 A 
ATOM     22  C   UNL     1     -11.121 -10.392  19.663  0.00  0.00    +0.018 A 
ATOM     23  C   UNL     1     -11.279 -11.903  17.786  0.00  0.00    +0.011 A 
ATOM     26  C   UNL     1     -12.521 -10.286  19.718  0.00  0.00    -0.017 A 
ATOM     27  C   UNL     1     -12.670 -11.809  17.826  0.00  0.00    +0.009 A 
ATOM     28  C   UNL     1     -13.307 -11.005  18.786  0.00  0.00    -0.018 A 
ATOM     31  C   UNL     1     -13.157  -9.482  20.678  0.00  0.00    +0.008 A 
ATOM     33  C   UNL     1     -14.706 -10.898  18.841  0.00  0.00    +0.008 A 
ATOM     34  C   UNL     1     -14.549  -9.388  20.717  0.00  0.00    +0.001 A 
ATOM     35  C   UNL     1     -15.322 -10.095  19.801  0.00  0.00    +0.001 A 
ENDBRANCH  18  20
ENDBRANCH   9  16
BRANCH  10  15
ATOM     15  C   UNL     1      -6.392 -10.451  13.604  0.00  0.00    +0.124 C 
BRANCH  15   6
ATOM      6  N   UNL     1      -7.488  -9.769  14.311  0.00  0.00    -0.188 NA
ATOM     36  H   UNL     1      -7.291  -9.452  15.268  0.00  0.00    +0.148 HD
BRANCH   6   1
ATOM      1  S   UNL     1      -9.108 -10.161  13.960  0.00  0.00    +0.058 S 
ATOM      2  O   UNL     1      -9.326 -11.571  14.215  0.00  0.00    -0.153 OA
ATOM      3  O   UNL     1      -9.467  -9.588  12.677  0.00  0.00    -0.153 OA
BRANCH   1  21
ATOM     21  C   UNL     1      -9.977  -9.242  15.196  0.00  0.00    +0.105 A 
ATOM     24  C   UNL     1      -9.268  -8.503  16.142  0.00  0.00    +0.028 A 
ATOM     25  C   UNL     1     -11.372  -9.261  15.226  0.00  0.00    +0.028 A 
ATOM     29  C   UNL     1      -9.955  -7.782  17.120  0.00  0.00    +0.002 A 
ATOM     30  C   UNL     1     -12.058  -8.540  16.204  0.00  0.00    +0.002 A 
ATOM     32  C   UNL     1     -11.349  -7.801  17.150  0.00  0.00    +0.000 A 
ENDBRANCH   1  21
ENDBRANCH   6   1
ENDBRANCH  15   6
ENDBRANCH  10  15
TORSDOF 6
ENDMDL
MODEL 4
REMARK VINA RESULT:      -6.3     30.409     32.249
REMARK  Name = 40779471
REMARK  7 active torsions:
REMARK  status: ('A' for Active; 'I' for Inactive)
REMARK    1  A    between atoms: S_1  and  N_6
REMARK    2  A    between atoms: S_1  and  C_21
REMARK    3  A    between atoms: N_5  and  C_19
REMARK    4  A    between atoms: N_6  and  C_15
REMARK    5  A    between atoms: C_9  and  C_16
REMARK    6  A    between atoms: C_10  and  C_15
REMARK    7  A    between atoms: C_18  and  C_20
REMARK                            x       y       z     vdW  Elec       q    Type
REMARK                         _______ _______ _______ _____ _____    ______ ____
ROOT
ATOM      4  N   UNL     1      -4.945  14.871  33.506  0.00  0.00    -0.297 NA
ATOM      8  C   UNL     1      -5.611  12.528  32.586  0.00  0.00    +0.002 C 
ATOM      9  C   UNL     1      -6.115  12.702  34.046  0.00  0.00    +0.055 C 
ATOM     10  C   UNL     1      -3.758  14.204  32.908  0.00  0.00    +0.072 C 
ATOM     11  C   UNL     1      -4.083  12.739  32.546  0.00  0.00    +0.024 C 
ATOM     12  C   UNL     1      -6.248  13.663  31.756  0.00  0.00    +0.019 C 
ATOM     13  C   UNL     1      -5.510  14.028  34.589  0.00  0.00    +0.094 C 
ATOM     14  C   UNL     1      -5.970  15.011  32.445  0.00  0.00    +0.085 C 
ENDROOT
BRANCH   9  16
ATOM      5  N   UNL     1      -6.907  10.629  35.276  0.00  0.00    -0.270 N 
ATOM      7  N   UNL     1      -6.544   9.684  36.160  0.00  0.00    -0.171 NA
ATOM     16  C   UNL     1      -5.928  11.543  35.014  0.00  0.00    +0.044 A 
ATOM     17  C   UNL     1      -4.851  11.171  35.780  0.00  0.00    +0.053 A 
ATOM     18  C   UNL     1      -5.287  10.020  36.464  0.00  0.00    +0.093 A 
ATOM     19  C   UNL     1      -8.236  10.594  34.713  0.00  0.00    +0.172 C 
BRANCH  18  20
ATOM     20  C   UNL     1      -4.527   9.238  37.404  0.00  0.00    +0.003 A 
ATOM     22  C   UNL     1      -3.312   8.671  37.017  0.00  0.00    +0.018 A 
ATOM     23  C   UNL     1      -5.005   9.046  38.697  0.00  0.00    +0.011 A 
ATOM     26  C   UNL     1      -2.558   7.905  37.921  0.00  0.00    -0.017 A 
ATOM     27  C   UNL     1      -4.269   8.289  39.608  0.00  0.00    +0.009 A 
ATOM     28  C   UNL     1      -3.044   7.711  39.237  0.00  0.00    -0.018 A 
ATOM     31  C   UNL     1      -1.333   7.328  37.549  0.00  0.00    +0.008 A 
ATOM     33  C   UNL     1      -2.291   6.946  40.141  0.00  0.00    +0.008 A 
ATOM     34  C   UNL     1      -0.598   6.570  38.461  0.00  0.00    +0.001 A 
ATOM     35  C   UNL     1      -1.076   6.379  39.754  0.00  0.00    +0.001 A 
ENDBRANCH  18  20
ENDBRANCH   9  16
BRANCH  10  15
ATOM     15  C   UNL     1      -2.519  14.310  33.799  0.00  0.00    +0.124 C 
BRANCH  15   6
ATOM      6  N   UNL     1      -2.097  12.960  34.205  0.00  0.00    -0.188 NA
ATOM     36  H   UNL     1      -2.844  12.303  34.461  0.00  0.00    +0.148 HD
BRANCH   6   1
ATOM      1  S   UNL     1      -0.589  12.724  34.958  0.00  0.00    +0.058 S 
ATOM      2  O   UNL     1       0.092  13.998  35.078  0.00  0.00    -0.153 OA
ATOM      3  O   UNL     1       0.080  11.596  34.338  0.00  0.00    -0.153 OA
BRANCH   1  21
ATOM     21  C   UNL     1      -1.072  12.210  36.579  0.00  0.00    +0.105 A 
ATOM     24  C   UNL     1      -2.189  12.781  37.188  0.00  0.00    +0.028 A 
ATOM     25  C   UNL     1      -0.331  11.236  37.252  0.00  0.00    +0.028 A 
ATOM     29  C   UNL     1      -2.567  12.377  38.469  0.00  0.00    +0.002 A 
ATOM     30  C   UNL     1      -0.709  10.834  38.533  0.00  0.00    +0.002 A 
ATOM     32  C   UNL     1      -1.827  11.404  39.141  0.00  0.00    +0.000 A 
ENDBRANCH   1  21
ENDBRANCH   6   1
ENDBRANCH  15   6
ENDBRANCH  10  15
TORSDOF 6
ENDMDL
MODEL 5
REMARK VINA RESULT:      -6.2      2.937      5.921
REMARK  Name = 40779471
REMARK  7 active torsions:
REMARK  status: ('A' for Active; 'I' for Inactive)
REMARK    1  A    between atoms: S_1  and  N_6
REMARK    2  A    between atoms: S_1  and  C_21
REMARK    3  A    between atoms: N_5  and  C_19
REMARK    4  A    between atoms: N_6  and  C_15
REMARK    5  A    between atoms: C_9  and  C_16
REMARK    6  A    between atoms: C_10  and  C_15
REMARK    7  A    between atoms: C_18  and  C_20
REMARK                            x       y       z     vdW  Elec       q    Type
REMARK                         _______ _______ _______ _____ _____    ______ ____
ROOT
ATOM      4  N   UNL     1      -5.262 -12.748  17.197  0.00  0.00    -0.297 NA
ATOM      8  C   UNL     1      -5.667 -10.661  18.701  0.00  0.00    +0.002 C 
ATOM      9  C   UNL     1      -6.991 -11.451  18.499  0.00  0.00    +0.055 C 
ATOM     10  C   UNL     1      -4.686 -11.538  16.553  0.00  0.00    +0.072 C 
ATOM     11  C   UNL     1      -5.095 -10.265  17.324  0.00  0.00    +0.024 C 
ATOM     12  C   UNL     1      -4.661 -11.637  19.347  0.00  0.00    +0.019 C 
ATOM     13  C   UNL     1      -6.714 -12.554  17.437  0.00  0.00    +0.094 C 
ATOM     14  C   UNL     1      -4.595 -12.926  18.508  0.00  0.00    +0.085 C 
ENDROOT
BRANCH   9  16
ATOM      5  N   UNL     1      -9.415 -10.820  18.904  0.00  0.00    -0.270 N 
ATOM      7  N   UNL     1     -10.419 -10.034  18.480  0.00  0.00    -0.171 NA
ATOM     16  C   UNL     1      -8.258 -10.665  18.197  0.00  0.00    +0.044 A 
ATOM     17  C   UNL     1      -8.525  -9.712  17.244  0.00  0.00    +0.053 A 
ATOM     18  C   UNL     1      -9.869  -9.360  17.466  0.00  0.00    +0.093 A 
ATOM     19  C   UNL     1      -9.640 -11.715  20.014  0.00  0.00    +0.172 C 
BRANCH  18  20
ATOM     20  C   UNL     1     -10.639  -8.393  16.728  0.00  0.00    +0.003 A 
ATOM     22  C   UNL     1     -12.001  -8.605  16.512  0.00  0.00    +0.018 A 
ATOM     23  C   UNL     1     -10.024  -7.247  16.230  0.00  0.00    +0.011 A 
ATOM     26  C   UNL     1     -12.767  -7.671  15.794  0.00  0.00    -0.017 A 
ATOM     27  C   UNL     1     -10.769  -6.310  15.515  0.00  0.00    +0.009 A 
ATOM     28  C   UNL     1     -12.141  -6.506  15.288  0.00  0.00    -0.018 A 
ATOM     31  C   UNL     1     -14.138  -7.868  15.567  0.00  0.00    +0.008 A 
ATOM     33  C   UNL     1     -12.906  -5.573  14.571  0.00  0.00    +0.008 A 
ATOM     34  C   UNL     1     -14.883  -6.930  14.852  0.00  0.00    +0.001 A 
ATOM     35  C   UNL     1     -14.269  -5.785  14.354  0.00  0.00    +0.001 A 
ENDBRANCH  18  20
ENDBRANCH   9  16
BRANCH  10  15
ATOM     15  C   UNL     1      -5.040 -11.443  15.067  0.00  0.00    +0.124 C 
BRANCH  15   6
ATOM      6  N   UNL     1      -4.203 -10.412  14.435  0.00  0.00    -0.188 NA
ATOM     36  H   UNL     1      -4.584  -9.459  14.417  0.00  0.00    +0.148 HD
BRANCH   6   1
ATOM      1  S   UNL     1      -3.140 -10.828  13.172  0.00  0.00    +0.058 S 
ATOM      2  O   UNL     1      -3.236 -12.252  12.913  0.00  0.00    -0.153 OA
ATOM      3  O   UNL     1      -1.847 -10.218  13.418  0.00  0.00    -0.153 OA
BRANCH   1  21
ATOM     21  C   UNL     1      -3.858  -9.975  11.800  0.00  0.00    +0.105 A 
ATOM     24  C   UNL     1      -5.189  -9.563  11.855  0.00  0.00    +0.028 A 
ATOM     25  C   UNL     1      -3.095  -9.720  10.660  0.00  0.00    +0.028 A 
ATOM     29  C   UNL     1      -5.757  -8.893  10.770  0.00  0.00    +0.002 A 
ATOM     30  C   UNL     1      -3.663  -9.052   9.575  0.00  0.00    +0.002 A 
ATOM     32  C   UNL     1      -4.994  -8.638   9.631  0.00  0.00    +0.000 A 
ENDBRANCH   1  21
ENDBRANCH   6   1
ENDBRANCH  15   6
ENDBRANCH  10  15
TORSDOF 6
ENDMDL
MODEL 6
REMARK VINA RESULT:      -6.2      2.063      3.884
REMARK  Name = 40779471
REMARK  7 active torsions:
REMARK  status: ('A' for Active; 'I' for Inactive)
REMARK    1  A    between atoms: S_1  and  N_6
REMARK    2  A    between atoms: S_1  and  C_21
REMARK    3  A    between atoms: N_5  and  C_19
REMARK    4  A    between atoms: N_6  and  C_15
REMARK    5  A    between atoms: C_9  and  C_16
REMARK    6  A    between atoms: C_10  and  C_15
REMARK    7  A    between atoms: C_18  and  C_20
REMARK                            x       y       z     vdW  Elec       q    Type
REMARK                         _______ _______ _______ _____ _____    ______ ____
ROOT
ATOM      4  N   UNL     1      -6.374 -10.624  18.110  0.00  0.00    -0.297 NA
ATOM      8  C   UNL     1      -4.388 -12.189  17.487  0.00  0.00    +0.002 C 
ATOM      9  C   UNL     1      -4.208 -10.792  16.829  0.00  0.00    +0.055 C 
ATOM     10  C   UNL     1      -6.890 -11.927  17.615  0.00  0.00    +0.072 C 
ATOM     11  C   UNL     1      -5.740 -12.787  17.048  0.00  0.00    +0.024 C 
ATOM     12  C   UNL     1      -4.467 -11.956  19.011  0.00  0.00    +0.019 C 
ATOM     13  C   UNL     1      -5.517  -9.991  17.077  0.00  0.00    +0.094 C 
ATOM     14  C   UNL     1      -5.539 -10.890  19.305  0.00  0.00    +0.085 C 
ENDROOT
BRANCH   9  16
ATOM      5  N   UNL     1      -2.454 -10.632  15.002  0.00  0.00    -0.270 N 
ATOM      7  N   UNL     1      -2.270 -10.596  13.671  0.00  0.00    -0.171 NA
ATOM     16  C   UNL     1      -3.762 -10.735  15.375  0.00  0.00    +0.044 A 
ATOM     17  C   UNL     1      -4.485 -10.768  14.207  0.00  0.00    +0.053 A 
ATOM     18  C   UNL     1      -3.515 -10.679  13.191  0.00  0.00    +0.093 A 
ATOM     19  C   UNL     1      -1.306 -10.560  15.874  0.00  0.00    +0.172 C 
BRANCH  18  20
ATOM     20  C   UNL     1      -3.753 -10.670  11.771  0.00  0.00    +0.003 A 
ATOM     22  C   UNL     1      -4.229 -11.819  11.138  0.00  0.00    +0.018 A 
ATOM     23  C   UNL     1      -3.509  -9.516  11.031  0.00  0.00    +0.011 A 
ATOM     26  C   UNL     1      -4.467 -11.827   9.753  0.00  0.00    -0.017 A 
ATOM     27  C   UNL     1      -3.741  -9.506   9.657  0.00  0.00    +0.009 A 
ATOM     28  C   UNL     1      -4.220 -10.653   9.001  0.00  0.00    -0.018 A 
ATOM     31  C   UNL     1      -4.946 -12.973   9.099  0.00  0.00    +0.008 A 
ATOM     33  C   UNL     1      -4.458 -10.661   7.618  0.00  0.00    +0.008 A 
ATOM     34  C   UNL     1      -5.178 -12.962   7.723  0.00  0.00    +0.001 A 
ATOM     35  C   UNL     1      -4.934 -11.809   6.984  0.00  0.00    +0.001 A 
ENDBRANCH  18  20
ENDBRANCH   9  16
BRANCH  10  15
ATOM     15  C   UNL     1      -8.028 -11.759  16.606  0.00  0.00    +0.124 C 
BRANCH  15   6
ATOM      6  N   UNL     1      -7.545 -12.130  15.266  0.00  0.00    -0.188 NA
ATOM     36  H   UNL     1      -6.631 -11.753  14.987  0.00  0.00    +0.148 HD
BRANCH   6   1
ATOM      1  S   UNL     1      -8.653 -12.439  14.011  0.00  0.00    +0.058 S 
ATOM      2  O   UNL     1      -9.980 -12.033  14.432  0.00  0.00    -0.153 OA
ATOM      3  O   UNL     1      -8.430 -13.778  13.499  0.00  0.00    -0.153 OA
BRANCH   1  21
ATOM     21  C   UNL     1      -8.109 -11.312  12.763  0.00  0.00    +0.105 A 
ATOM     24  C   UNL     1      -7.605 -10.062  13.123  0.00  0.00    +0.028 A 
ATOM     25  C   UNL     1      -8.188 -11.671  11.416  0.00  0.00    +0.028 A 
ATOM     29  C   UNL     1      -7.179  -9.172  12.136  0.00  0.00    +0.002 A 
ATOM     30  C   UNL     1      -7.763 -10.780  10.431  0.00  0.00    +0.002 A 
ATOM     32  C   UNL     1      -7.259  -9.531  10.791  0.00  0.00    +0.000 A 
ENDBRANCH   1  21
ENDBRANCH   6   1
ENDBRANCH  15   6
ENDBRANCH  10  15
TORSDOF 6
ENDMDL
MODEL 7
REMARK VINA RESULT:      -5.9     25.421     28.013
REMARK  Name = 40779471
REMARK  7 active torsions:
REMARK  status: ('A' for Active; 'I' for Inactive)
REMARK    1  A    between atoms: S_1  and  N_6
REMARK    2  A    between atoms: S_1  and  C_21
REMARK    3  A    between atoms: N_5  and  C_19
REMARK    4  A    between atoms: N_6  and  C_15
REMARK    5  A    between atoms: C_9  and  C_16
REMARK    6  A    between atoms: C_10  and  C_15
REMARK    7  A    between atoms: C_18  and  C_20
REMARK                            x       y       z     vdW  Elec       q    Type
REMARK                         _______ _______ _______ _____ _____    ______ ____
ROOT
ATOM      4  N   UNL     1      12.828   9.050   6.288  0.00  0.00    -0.297 NA
ATOM      8  C   UNL     1      15.268   8.495   5.565  0.00  0.00    +0.002 C 
ATOM      9  C   UNL     1      14.374   8.743   4.318  0.00  0.00    +0.055 C 
ATOM     10  C   UNL     1      13.296   7.821   6.981  0.00  0.00    +0.072 C 
ATOM     11  C   UNL     1      14.656   7.360   6.413  0.00  0.00    +0.024 C 
ATOM     12  C   UNL     1      15.210   9.780   6.418  0.00  0.00    +0.019 C 
ATOM     13  C   UNL     1      12.906   8.866   4.817  0.00  0.00    +0.094 C 
ATOM     14  C   UNL     1      13.738  10.158   6.664  0.00  0.00    +0.085 C 
ENDROOT
BRANCH   9  16
ATOM      5  N   UNL     1      15.632   7.704   2.374  0.00  0.00    -0.270 N 
ATOM      7  N   UNL     1      15.547   6.802   1.381  0.00  0.00    -0.171 NA
ATOM     16  C   UNL     1      14.505   7.790   3.139  0.00  0.00    +0.044 A 
ATOM     17  C   UNL     1      13.621   6.883   2.608  0.00  0.00    +0.053 A 
ATOM     18  C   UNL     1      14.316   6.304   1.529  0.00  0.00    +0.093 A 
ATOM     19  C   UNL     1      16.849   8.465   2.533  0.00  0.00    +0.172 C 
BRANCH  18  20
ATOM     20  C   UNL     1      13.826   5.286   0.636  0.00  0.00    +0.003 A 
ATOM     22  C   UNL     1      13.839   5.504  -0.742  0.00  0.00    +0.018 A 
ATOM     23  C   UNL     1      13.341   4.086   1.148  0.00  0.00    +0.011 A 
ATOM     26  C   UNL     1      13.365   4.521  -1.627  0.00  0.00    -0.017 A 
ATOM     27  C   UNL     1      12.868   3.099   0.284  0.00  0.00    +0.009 A 
ATOM     28  C   UNL     1      12.872   3.300  -1.105  0.00  0.00    -0.018 A 
ATOM     31  C   UNL     1      13.370   4.722  -3.016  0.00  0.00    +0.008 A 
ATOM     33  C   UNL     1      12.400   2.318  -1.990  0.00  0.00    +0.008 A 
ATOM     34  C   UNL     1      12.896   3.735  -3.880  0.00  0.00    +0.001 A 
ATOM     35  C   UNL     1      12.411   2.535  -3.368  0.00  0.00    +0.001 A 
ENDBRANCH  18  20
ENDBRANCH   9  16
BRANCH  10  15
ATOM     15  C   UNL     1      12.255   6.700   6.947  0.00  0.00    +0.124 C 
BRANCH  15   6
ATOM      6  N   UNL     1      10.935   7.255   7.287  0.00  0.00    -0.188 NA
ATOM     36  H   UNL     1      10.882   7.824   8.140  0.00  0.00    +0.148 HD
BRANCH   6   1
ATOM      1  S   UNL     1       9.517   6.428   6.836  0.00  0.00    +0.058 S 
ATOM      2  O   UNL     1       8.380   7.320   6.962  0.00  0.00    -0.153 OA
ATOM      3  O   UNL     1       9.499   5.130   7.483  0.00  0.00    -0.153 OA
BRANCH   1  21
ATOM     21  C   UNL     1       9.797   6.143   5.114  0.00  0.00    +0.105 A 
ATOM     24  C   UNL     1       9.544   7.155   4.189  0.00  0.00    +0.028 A 
ATOM     25  C   UNL     1      10.267   4.902   4.681  0.00  0.00    +0.028 A 
ATOM     29  C   UNL     1       9.762   6.927   2.830  0.00  0.00    +0.002 A 
ATOM     30  C   UNL     1      10.484   4.675   3.322  0.00  0.00    +0.002 A 
ATOM     32  C   UNL     1      10.231   5.687   2.397  0.00  0.00    +0.000 A 
ENDBRANCH   1  21
ENDBRANCH   6   1
ENDBRANCH  15   6
ENDBRANCH  10  15
TORSDOF 6
ENDMDL
MODEL 8
REMARK VINA RESULT:      -5.9     22.581     25.281
REMARK  Name = 40779471
REMARK  7 active torsions:
REMARK  status: ('A' for Active; 'I' for Inactive)
REMARK    1  A    between atoms: S_1  and  N_6
REMARK    2  A    between atoms: S_1  and  C_21
REMARK    3  A    between atoms: N_5  and  C_19
REMARK    4  A    between atoms: N_6  and  C_15
REMARK    5  A    between atoms: C_9  and  C_16
REMARK    6  A    between atoms: C_10  and  C_15
REMARK    7  A    between atoms: C_18  and  C_20
REMARK                            x       y       z     vdW  Elec       q    Type
REMARK                         _______ _______ _______ _____ _____    ______ ____
ROOT
ATOM      4  N   UNL     1       0.862  14.651   8.911  0.00  0.00    -0.297 NA
ATOM      8  C   UNL     1       2.287  12.635   8.083  0.00  0.00    +0.002 C 
ATOM      9  C   UNL     1       1.892  13.548   6.889  0.00  0.00    +0.055 C 
ATOM     10  C   UNL     1       0.308  13.382   9.452  0.00  0.00    +0.072 C 
ATOM     11  C   UNL     1       1.009  12.166   8.809  0.00  0.00    +0.024 C 
ATOM     12  C   UNL     1       3.076  13.515   9.076  0.00  0.00    +0.019 C 
ATOM     13  C   UNL     1       0.885  14.604   7.427  0.00  0.00    +0.094 C 
ATOM     14  C   UNL     1       2.257  14.780   9.392  0.00  0.00    +0.085 C 
ENDROOT
BRANCH   9  16
ATOM      5  N   UNL     1       2.251  12.454   4.628  0.00  0.00    -0.270 N 
ATOM      7  N   UNL     1       1.623  11.898   3.577  0.00  0.00    -0.171 NA
ATOM     16  C   UNL     1       1.406  12.887   5.608  0.00  0.00    +0.044 A 
ATOM     17  C   UNL     1       0.138  12.596   5.167  0.00  0.00    +0.053 A 
ATOM     18  C   UNL     1       0.333  11.988   3.912  0.00  0.00    +0.093 A 
ATOM     19  C   UNL     1       3.692  12.539   4.624  0.00  0.00    +0.172 C 
BRANCH  18  20
ATOM     20  C   UNL     1      -0.689  11.494   3.027  0.00  0.00    +0.003 A 
ATOM     22  C   UNL     1      -0.335  10.744   1.904  0.00  0.00    +0.018 A 
ATOM     23  C   UNL     1      -2.029  11.763   3.291  0.00  0.00    +0.011 A 
ATOM     26  C   UNL     1      -1.319  10.254   1.031  0.00  0.00    -0.017 A 
ATOM     27  C   UNL     1      -3.019  11.284   2.435  0.00  0.00    +0.009 A 
ATOM     28  C   UNL     1      -2.682  10.528   1.300  0.00  0.00    -0.018 A 
ATOM     31  C   UNL     1      -0.982   9.497  -0.103  0.00  0.00    +0.008 A 
ATOM     33  C   UNL     1      -3.666  10.037   0.427  0.00  0.00    +0.008 A 
ATOM     34  C   UNL     1      -1.973   9.018  -0.959  0.00  0.00    +0.001 A 
ATOM     35  C   UNL     1      -3.313   9.288  -0.696  0.00  0.00    +0.001 A 
ENDBRANCH  18  20
ENDBRANCH   9  16
BRANCH  10  15
ATOM     15  C   UNL     1      -1.214  13.303   9.312  0.00  0.00    +0.124 C 
BRANCH  15   6
ATOM      6  N   UNL     1      -1.572  12.055   8.619  0.00  0.00    -0.188 NA
ATOM     36  H   UNL     1      -0.810  11.560   8.141  0.00  0.00    +0.148 HD
BRANCH   6   1
ATOM      1  S   UNL     1      -3.133  11.854   7.970  0.00  0.00    +0.058 S 
ATOM      2  O   UNL     1      -3.491  13.035   7.208  0.00  0.00    -0.153 OA
ATOM      3  O   UNL     1      -4.019  11.360   9.007  0.00  0.00    -0.153 OA
BRANCH   1  21
ATOM     21  C   UNL     1      -2.882  10.526   6.831  0.00  0.00    +0.105 A 
ATOM     24  C   UNL     1      -1.603  10.003   6.640  0.00  0.00    +0.028 A 
ATOM     25  C   UNL     1      -3.963  10.005   6.118  0.00  0.00    +0.028 A 
ATOM     29  C   UNL     1      -1.405   8.958   5.738  0.00  0.00    +0.002 A 
ATOM     30  C   UNL     1      -3.764   8.960   5.215  0.00  0.00    +0.002 A 
ATOM     32  C   UNL     1      -2.485   8.437   5.026  0.00  0.00    +0.000 A 
ENDBRANCH   1  21
ENDBRANCH   6   1
ENDBRANCH  15   6
ENDBRANCH  10  15
TORSDOF 6
ENDMDL
MODEL 9
REMARK VINA RESULT:      -5.9      3.233      6.083
REMARK  Name = 40779471
REMARK  7 active torsions:
REMARK  status: ('A' for Active; 'I' for Inactive)
REMARK    1  A    between atoms: S_1  and  N_6
REMARK    2  A    between atoms: S_1  and  C_21
REMARK    3  A    between atoms: N_5  and  C_19
REMARK    4  A    between atoms: N_6  and  C_15
REMARK    5  A    between atoms: C_9  and  C_16
REMARK    6  A    between atoms: C_10  and  C_15
REMARK    7  A    between atoms: C_18  and  C_20
REMARK                            x       y       z     vdW  Elec       q    Type
REMARK                         _______ _______ _______ _____ _____    ______ ____
ROOT
ATOM      4  N   UNL     1      -5.160 -10.565  18.167  0.00  0.00    -0.297 NA
ATOM      8  C   UNL     1      -5.100 -12.538  16.469  0.00  0.00    +0.002 C 
ATOM      9  C   UNL     1      -3.948 -11.536  16.178  0.00  0.00    +0.055 C 
ATOM     10  C   UNL     1      -6.509 -10.769  17.578  0.00  0.00    +0.072 C 
ATOM     11  C   UNL     1      -6.449 -11.792  16.422  0.00  0.00    +0.024 C 
ATOM     12  C   UNL     1      -4.904 -13.034  17.917  0.00  0.00    +0.019 C 
ATOM     13  C   UNL     1      -4.171 -10.298  17.093  0.00  0.00    +0.094 C 
ATOM     14  C   UNL     1      -4.769 -11.819  18.854  0.00  0.00    +0.085 C 
ENDROOT
BRANCH   9  16
ATOM      5  N   UNL     1      -2.494 -10.629  14.307  0.00  0.00    -0.270 N 
ATOM      7  N   UNL     1      -2.462 -10.349  12.993  0.00  0.00    -0.171 NA
ATOM     16  C   UNL     1      -3.684 -11.144  14.731  0.00  0.00    +0.044 A 
ATOM     17  C   UNL     1      -4.486 -11.203  13.619  0.00  0.00    +0.053 A 
ATOM     18  C   UNL     1      -3.683 -10.701  12.578  0.00  0.00    +0.093 A 
ATOM     19  C   UNL     1      -1.323 -10.372  15.111  0.00  0.00    +0.172 C 
BRANCH  18  20
ATOM     20  C   UNL     1      -4.058 -10.550  11.196  0.00  0.00    +0.003 A 
ATOM     22  C   UNL     1      -4.009 -11.649  10.337  0.00  0.00    +0.018 A 
ATOM     23  C   UNL     1      -4.469  -9.309  10.718  0.00  0.00    +0.011 A 
ATOM     26  C   UNL     1      -4.371 -11.518   8.986  0.00  0.00    -0.017 A 
ATOM     27  C   UNL     1      -4.833  -9.162   9.381  0.00  0.00    +0.009 A 
ATOM     28  C   UNL     1      -4.790 -10.256   8.501  0.00  0.00    -0.018 A 
ATOM     31  C   UNL     1      -4.328 -12.613   8.108  0.00  0.00    +0.008 A 
ATOM     33  C   UNL     1      -5.153 -10.126   7.151  0.00  0.00    +0.008 A 
ATOM     34  C   UNL     1      -4.693 -12.465   6.769  0.00  0.00    +0.001 A 
ATOM     35  C   UNL     1      -5.104 -11.224   6.291  0.00  0.00    +0.001 A 
ENDBRANCH  18  20
ENDBRANCH   9  16
BRANCH  10  15
ATOM     15  C   UNL     1      -7.160  -9.455  17.143  0.00  0.00    +0.124 C 
BRANCH  15   6
ATOM      6  N   UNL     1      -8.311  -9.172  18.016  0.00  0.00    -0.188 NA
ATOM     36  H   UNL     1      -8.211  -9.432  19.004  0.00  0.00    +0.148 HD
BRANCH   6   1
ATOM      1  S   UNL     1      -9.891  -9.185  17.382  0.00  0.00    +0.058 S 
ATOM      2  O   UNL     1      -9.912  -9.971  16.164  0.00  0.00    -0.153 OA
ATOM      3  O   UNL     1     -10.415  -7.833  17.387  0.00  0.00    -0.153 OA
BRANCH   1  21
ATOM     21  C   UNL     1     -10.770 -10.083  18.626  0.00  0.00    +0.105 A 
ATOM     24  C   UNL     1     -10.243 -11.271  19.132  0.00  0.00    +0.028 A 
ATOM     25  C   UNL     1     -11.994  -9.606  19.096  0.00  0.00    +0.028 A 
ATOM     29  C   UNL     1     -10.940 -11.981  20.110  0.00  0.00    +0.002 A 
ATOM     30  C   UNL     1     -12.691 -10.317  20.073  0.00  0.00    +0.002 A 
ATOM     32  C   UNL     1     -12.163 -11.504  20.581  0.00  0.00    +0.000 A 
ENDBRANCH   1  21
ENDBRANCH   6   1
ENDBRANCH  15   6
ENDBRANCH  10  15
TORSDOF 6
ENDMDL
MODEL 10
REMARK VINA RESULT:      -5.9      2.058      7.033
REMARK  Name = 40779471
REMARK  7 active torsions:
REMARK  status: ('A' for Active; 'I' for Inactive)
REMARK    1  A    between atoms: S_1  and  N_6
REMARK    2  A    between atoms: S_1  and  C_21
REMARK    3  A    between atoms: N_5  and  C_19
REMARK    4  A    between atoms: N_6  and  C_15
REMARK    5  A    between atoms: C_9  and  C_16
REMARK    6  A    between atoms: C_10  and  C_15
REMARK    7  A    between atoms: C_18  and  C_20
REMARK                            x       y       z     vdW  Elec       q    Type
REMARK                         _______ _______ _______ _____ _____    ______ ____
ROOT
ATOM      4  N   UNL     1      -3.807  -9.165  10.579  0.00  0.00    -0.297 NA
ATOM      8  C   UNL     1      -5.696 -10.924  10.233  0.00  0.00    +0.002 C 
ATOM      9  C   UNL     1      -6.268  -9.632  10.881  0.00  0.00    +0.055 C 
ATOM     10  C   UNL     1      -3.383 -10.480  11.126  0.00  0.00    +0.072 C 
ATOM     11  C   UNL     1      -4.560 -11.478  11.119  0.00  0.00    +0.024 C 
ATOM     12  C   UNL     1      -5.061 -10.505   8.890  0.00  0.00    +0.019 C 
ATOM     13  C   UNL     1      -5.060  -8.720  11.238  0.00  0.00    +0.094 C 
ATOM     14  C   UNL     1      -4.082  -9.342   9.133  0.00  0.00    +0.085 C 
ENDROOT
BRANCH   9  16
ATOM      5  N   UNL     1      -8.597  -9.779  11.876  0.00  0.00    -0.270 N 
ATOM      7  N   UNL     1      -9.282  -9.921  13.024  0.00  0.00    -0.171 NA
ATOM     16  C   UNL     1      -7.242  -9.780  12.040  0.00  0.00    +0.044 A 
ATOM     17  C   UNL     1      -7.026  -9.932  13.388  0.00  0.00    +0.053 A 
ATOM     18  C   UNL     1      -8.317 -10.013  13.943  0.00  0.00    +0.093 A 
ATOM     19  C   UNL     1      -9.322  -9.643  10.635  0.00  0.00    +0.172 C 
BRANCH  18  20
ATOM     20  C   UNL     1      -8.647 -10.177  15.336  0.00  0.00    +0.003 A 
ATOM     22  C   UNL     1      -8.721 -11.456  15.888  0.00  0.00    +0.018 A 
ATOM     23  C   UNL     1      -8.890  -9.059  16.129  0.00  0.00    +0.011 A 
ATOM     26  C   UNL     1      -9.041 -11.632  17.245  0.00  0.00    -0.017 A 
ATOM     27  C   UNL     1      -9.208  -9.216  17.477  0.00  0.00    +0.009 A 
ATOM     28  C   UNL     1      -9.288 -10.495  18.051  0.00  0.00    -0.018 A 
ATOM     31  C   UNL     1      -9.120 -12.912  17.818  0.00  0.00    +0.008 A 
ATOM     33  C   UNL     1      -9.607 -10.672  19.407  0.00  0.00    +0.008 A 
ATOM     34  C   UNL     1      -9.439 -13.068  19.167  0.00  0.00    +0.001 A 
ATOM     35  C   UNL     1      -9.683 -11.951  19.960  0.00  0.00    +0.001 A 
ENDBRANCH  18  20
ENDBRANCH   9  16
BRANCH  10  15
ATOM     15  C   UNL     1      -2.748 -10.357  12.513  0.00  0.00    +0.124 C 
BRANCH  15   6
ATOM      6  N   UNL     1      -3.622 -11.004  13.505  0.00  0.00    -0.188 NA
ATOM     36  H   UNL     1      -4.508 -10.529  13.715  0.00  0.00    +0.148 HD
BRANCH   6   1
ATOM      1  S   UNL     1      -2.950 -11.944  14.755  0.00  0.00    +0.058 S 
ATOM      2  O   UNL     1      -1.642 -11.422  15.098  0.00  0.00    -0.153 OA
ATOM      3  O   UNL     1      -3.112 -13.349  14.431  0.00  0.00    -0.153 OA
BRANCH   1  21
ATOM     21  C   UNL     1      -4.046 -11.595  16.098  0.00  0.00    +0.105 A 
ATOM     24  C   UNL     1      -4.496 -10.293  16.310  0.00  0.00    +0.028 A 
ATOM     25  C   UNL     1      -4.457 -12.623  16.947  0.00  0.00    +0.028 A 
ATOM     29  C   UNL     1      -5.357 -10.017  17.373  0.00  0.00    +0.002 A 
ATOM     30  C   UNL     1      -5.318 -12.347  18.010  0.00  0.00    +0.002 A 
ATOM     32  C   UNL     1      -5.768 -11.045  18.222  0.00  0.00    +0.000 A 
ENDBRANCH   1  21
ENDBRANCH   6   1
ENDBRANCH  15   6
ENDBRANCH  10  15
TORSDOF 6
ENDMDL
