MODEL 1
REMARK VINA RESULT:      -6.9      0.000      0.000
REMARK  Name = 45784167
REMARK  13 active torsions:
REMARK  status: ('A' for Active; 'I' for Inactive)
REMARK    1  A    between atoms: N_4  and  C_14
REMARK    2  A    between atoms: C_7  and  C_11
REMARK    3  A    between atoms: C_8  and  C_14
REMARK    4  A    between atoms: C_10  and  C_15
REMARK    5  A    between atoms: C_11  and  C_16
REMARK    6  A    between atoms: C_11  and  C_17
REMARK    7  A    between atoms: C_12  and  C_18
REMARK    8  A    between atoms: C_15  and  C_19
REMARK    9  A    between atoms: C_20  and  C_21
REMARK   10  A    between atoms: C_21  and  C_22
REMARK   11  A    between atoms: C_21  and  C_23
REMARK   12  A    between atoms: C_21  and  C_24
REMARK   13  A    between atoms: C_25  and  C_26
REMARK                            x       y       z     vdW  Elec       q    Type
REMARK                         _______ _______ _______ _____ _____    ______ ____
ROOT
ATOM      7  C   UNL     1      -6.435 -11.031  16.313  0.00  0.00    +0.000 C 
ATOM      8  C   UNL     1      -6.927 -11.093  17.782  0.00  0.00    +0.032 C 
ATOM      9  C   UNL     1      -5.397 -12.132  16.050  0.00  0.00    +0.012 C 
ATOM     10  C   UNL     1      -4.175 -12.016  16.980  0.00  0.00    +0.024 C 
ATOM     12  C   UNL     1      -4.584 -11.803  18.423  0.00  0.00    -0.073 C 
ATOM     13  C   UNL     1      -5.823 -11.403  18.763  0.00  0.00    -0.022 C 
ATOM     18  C   UNL     1      -3.549 -12.105  19.472  0.00  0.00    +0.039 C 
ENDROOT
BRANCH   7  11
ATOM     11  C   UNL     1      -7.594 -11.161  15.319  0.00  0.00    -0.013 C 
ATOM     16  C   UNL     1      -7.505 -12.486  14.569  0.00  0.00    +0.007 C 
ATOM     17  C   UNL     1      -7.593  -9.987  14.346  0.00  0.00    +0.007 C 
ENDBRANCH   7  11
BRANCH   8  14
ATOM     14  C   UNL     1      -7.619  -9.786  18.188  0.00  0.00    +0.112 C 
BRANCH  14   4
ATOM      3  O   UNL     1      -9.380  -8.037  16.787  0.00  0.00    -0.275 OA
ATOM      4  N   UNL     1      -9.039  -9.914  18.091  0.00  0.00    -0.314 N 
ATOM     20  C   UNL     1      -9.836  -9.013  17.384  0.00  0.00    +0.218 C 
ATOM     32  H   UNL     1      -9.473 -10.729  18.514  0.00  0.00    +0.149 HD
BRANCH  20  21
ATOM     21  C   UNL     1     -11.345  -9.335  17.401  0.00  0.00    +0.039 C 
ATOM     22  C   UNL     1     -11.618 -10.631  16.623  0.00  0.00    +0.020 C 
ATOM     23  C   UNL     1     -11.808  -9.530  18.857  0.00  0.00    +0.020 C 
ATOM     24  C   UNL     1     -12.139  -8.172  16.787  0.00  0.00    +0.020 C 
ENDBRANCH  20  21
ENDBRANCH  14   4
ENDBRANCH   8  14
BRANCH  10  15
ATOM     15  C   UNL     1      -3.227 -10.907  16.509  0.00  0.00    +0.105 C 
BRANCH  15  19
ATOM      2  O   UNL     1      -3.657 -10.413  14.158  0.00  0.00    -0.420 OA
ATOM      5  N   UNL     1      -1.902 -11.757  14.505  0.00  0.00    -0.112 NA
ATOM      6  N   UNL     1      -2.029 -11.563  13.142  0.00  0.00    -0.107 NA
ATOM     19  C   UNL     1      -2.873 -11.068  15.058  0.00  0.00    +0.218 A 
ATOM     25  C   UNL     1      -3.065 -10.772  12.987  0.00  0.00    +0.251 A 
BRANCH  25  26
ATOM      1  F   UNL     1      -1.543  -9.474  11.023  0.00  0.00    -0.205 F 
ATOM     26  C   UNL     1      -3.658 -10.239  11.795  0.00  0.00    +0.074 A 
ATOM     27  C   UNL     1      -2.866  -9.600  10.841  0.00  0.00    +0.136 A 
ATOM     28  C   UNL     1      -5.033 -10.362  11.590  0.00  0.00    +0.016 A 
ATOM     29  C   UNL     1      -3.448  -9.082   9.684  0.00  0.00    +0.039 A 
ATOM     30  C   UNL     1      -5.615  -9.844  10.433  0.00  0.00    +0.001 A 
ATOM     31  C   UNL     1      -4.823  -9.204   9.480  0.00  0.00    +0.003 A 
ENDBRANCH  25  26
ENDBRANCH  15  19
ENDBRANCH  10  15
TORSDOF 7
ENDMDL
MODEL 2
REMARK VINA RESULT:      -6.8     28.911     31.110
REMARK  Name = 45784167
REMARK  13 active torsions:
REMARK  status: ('A' for Active; 'I' for Inactive)
REMARK    1  A    between atoms: N_4  and  C_14
REMARK    2  A    between atoms: C_7  and  C_11
REMARK    3  A    between atoms: C_8  and  C_14
REMARK    4  A    between atoms: C_10  and  C_15
REMARK    5  A    between atoms: C_11  and  C_16
REMARK    6  A    between atoms: C_11  and  C_17
REMARK    7  A    between atoms: C_12  and  C_18
REMARK    8  A    between atoms: C_15  and  C_19
REMARK    9  A    between atoms: C_20  and  C_21
REMARK   10  A    between atoms: C_21  and  C_22
REMARK   11  A    between atoms: C_21  and  C_23
REMARK   12  A    between atoms: C_21  and  C_24
REMARK   13  A    between atoms: C_25  and  C_26
REMARK                            x       y       z     vdW  Elec       q    Type
REMARK                         _______ _______ _______ _____ _____    ______ ____
ROOT
ATOM      7  C   UNL     1      17.553   8.771  21.682  0.00  0.00    +0.000 C 
ATOM      8  C   UNL     1      16.636   8.003  20.697  0.00  0.00    +0.032 C 
ATOM      9  C   UNL     1      19.019   8.670  21.238  0.00  0.00    +0.012 C 
ATOM     10  C   UNL     1      19.505   7.210  21.156  0.00  0.00    +0.024 C 
ATOM     12  C   UNL     1      18.514   6.328  20.424  0.00  0.00    -0.073 C 
ATOM     13  C   UNL     1      17.239   6.706  20.217  0.00  0.00    -0.022 C 
ATOM     18  C   UNL     1      19.034   5.021  19.894  0.00  0.00    +0.039 C 
ENDROOT
BRANCH   7  11
ATOM     11  C   UNL     1      17.148  10.244  21.807  0.00  0.00    -0.013 C 
ATOM     16  C   UNL     1      16.876  10.838  20.429  0.00  0.00    +0.007 C 
ATOM     17  C   UNL     1      18.232  11.033  22.533  0.00  0.00    +0.007 C 
ENDBRANCH   7  11
BRANCH   8  14
ATOM     14  C   UNL     1      15.262   7.728  21.321  0.00  0.00    +0.112 C 
BRANCH  14   4
ATOM      3  O   UNL     1      13.836   6.791  19.039  0.00  0.00    -0.275 OA
ATOM      4  N   UNL     1      14.236   8.431  20.616  0.00  0.00    -0.314 N 
ATOM     20  C   UNL     1      13.582   7.902  19.503  0.00  0.00    +0.218 C 
ATOM     32  H   UNL     1      13.939   9.330  20.982  0.00  0.00    +0.149 HD
BRANCH  20  21
ATOM     21  C   UNL     1      12.503   8.822  18.892  0.00  0.00    +0.039 C 
ATOM     22  C   UNL     1      12.203   8.398  17.447  0.00  0.00    +0.020 C 
ATOM     23  C   UNL     1      11.208   8.706  19.716  0.00  0.00    +0.020 C 
ATOM     24  C   UNL     1      12.976  10.284  18.927  0.00  0.00    +0.020 C 
ENDBRANCH  20  21
ENDBRANCH  14   4
ENDBRANCH   8  14
BRANCH  10  15
ATOM     15  C   UNL     1      19.812   6.651  22.549  0.00  0.00    +0.105 C 
BRANCH  15  19
ATOM      2  O   UNL     1      21.427   4.832  22.352  0.00  0.00    -0.420 OA
ATOM      5  N   UNL     1      22.323   6.790  22.958  0.00  0.00    -0.112 NA
ATOM      6  N   UNL     1      23.341   5.858  22.886  0.00  0.00    -0.107 NA
ATOM     19  C   UNL     1      21.225   6.147  22.639  0.00  0.00    +0.218 A 
ATOM     25  C   UNL     1      22.772   4.731  22.528  0.00  0.00    +0.251 A 
BRANCH  25  26
ATOM      1  F   UNL     1      23.711   3.943  20.008  0.00  0.00    -0.205 F 
ATOM     26  C   UNL     1      23.339   3.433  22.300  0.00  0.00    +0.074 A 
ATOM     27  C   UNL     1      23.795   3.080  21.030  0.00  0.00    +0.136 A 
ATOM     28  C   UNL     1      23.434   2.524  23.354  0.00  0.00    +0.016 A 
ATOM     29  C   UNL     1      24.344   1.816  20.813  0.00  0.00    +0.039 A 
ATOM     30  C   UNL     1      23.983   1.260  23.137  0.00  0.00    +0.001 A 
ATOM     31  C   UNL     1      24.439   0.906  21.867  0.00  0.00    +0.003 A 
ENDBRANCH  25  26
ENDBRANCH  15  19
ENDBRANCH  10  15
TORSDOF 7
ENDMDL
MODEL 3
REMARK VINA RESULT:      -6.6     22.662     26.690
REMARK  Name = 45784167
REMARK  13 active torsions:
REMARK  status: ('A' for Active; 'I' for Inactive)
REMARK    1  A    between atoms: N_4  and  C_14
REMARK    2  A    between atoms: C_7  and  C_11
REMARK    3  A    between atoms: C_8  and  C_14
REMARK    4  A    between atoms: C_10  and  C_15
REMARK    5  A    between atoms: C_11  and  C_16
REMARK    6  A    between atoms: C_11  and  C_17
REMARK    7  A    between atoms: C_12  and  C_18
REMARK    8  A    between atoms: C_15  and  C_19
REMARK    9  A    between atoms: C_20  and  C_21
REMARK   10  A    between atoms: C_21  and  C_22
REMARK   11  A    between atoms: C_21  and  C_23
REMARK   12  A    between atoms: C_21  and  C_24
REMARK   13  A    between atoms: C_25  and  C_26
REMARK                            x       y       z     vdW  Elec       q    Type
REMARK                         _______ _______ _______ _____ _____    ______ ____
ROOT
ATOM      7  C   UNL     1     -12.270   9.454  31.889  0.00  0.00    +0.000 C 
ATOM      8  C   UNL     1     -11.624  10.043  33.169  0.00  0.00    +0.032 C 
ATOM      9  C   UNL     1     -13.655   8.873  32.208  0.00  0.00    +0.012 C 
ATOM     10  C   UNL     1     -13.592   7.765  33.276  0.00  0.00    +0.024 C 
ATOM     12  C   UNL     1     -12.741   8.175  34.461  0.00  0.00    -0.073 C 
ATOM     13  C   UNL     1     -11.877   9.204  34.398  0.00  0.00    -0.022 C 
ATOM     18  C   UNL     1     -12.939   7.403  35.736  0.00  0.00    +0.039 C 
ENDROOT
BRANCH   7  11
ATOM     11  C   UNL     1     -12.390  10.503  30.778  0.00  0.00    -0.013 C 
ATOM     16  C   UNL     1     -13.857  10.791  30.475  0.00  0.00    +0.007 C 
ATOM     17  C   UNL     1     -11.660  10.034  29.524  0.00  0.00    +0.007 C 
ENDBRANCH   7  11
BRANCH   8  14
ATOM     14  C   UNL     1     -10.114  10.239  32.985  0.00  0.00    +0.112 C 
BRANCH  14   4
ATOM      3  O   UNL     1      -7.732  11.516  33.887  0.00  0.00    -0.275 OA
ATOM      4  N   UNL     1      -9.417   9.967  34.203  0.00  0.00    -0.314 N 
ATOM     20  C   UNL     1      -8.251  10.638  34.576  0.00  0.00    +0.218 C 
ATOM     32  H   UNL     1      -9.824   9.293  34.843  0.00  0.00    +0.149 HD
BRANCH  20  21
ATOM     21  C   UNL     1      -7.659  10.196  35.931  0.00  0.00    +0.039 C 
ATOM     22  C   UNL     1      -6.137  10.027  35.812  0.00  0.00    +0.020 C 
ATOM     23  C   UNL     1      -7.951  11.273  36.991  0.00  0.00    +0.020 C 
ATOM     24  C   UNL     1      -8.303   8.876  36.382  0.00  0.00    +0.020 C 
ENDBRANCH  20  21
ENDBRANCH  14   4
ENDBRANCH   8  14
BRANCH  10  15
ATOM     15  C   UNL     1     -13.095   6.446  32.674  0.00  0.00    +0.105 C 
BRANCH  15  19
ATOM      2  O   UNL     1     -13.943   4.264  31.980  0.00  0.00    -0.420 OA
ATOM      5  N   UNL     1     -15.297   5.372  33.375  0.00  0.00    -0.112 NA
ATOM      6  N   UNL     1     -15.896   4.165  33.067  0.00  0.00    -0.107 NA
ATOM     19  C   UNL     1     -14.160   5.387  32.720  0.00  0.00    +0.218 A 
ATOM     25  C   UNL     1     -15.070   3.552  32.251  0.00  0.00    +0.251 A 
BRANCH  25  26
ATOM      1  F   UNL     1     -14.476   1.169  33.601  0.00  0.00    -0.205 F 
ATOM     26  C   UNL     1     -15.171   2.272  31.613  0.00  0.00    +0.074 A 
ATOM     27  C   UNL     1     -14.866   1.109  32.320  0.00  0.00    +0.136 A 
ATOM     28  C   UNL     1     -15.576   2.192  30.280  0.00  0.00    +0.016 A 
ATOM     29  C   UNL     1     -14.965  -0.134  31.694  0.00  0.00    +0.039 A 
ATOM     30  C   UNL     1     -15.675   0.950  29.654  0.00  0.00    +0.001 A 
ATOM     31  C   UNL     1     -15.370  -0.214  30.361  0.00  0.00    +0.003 A 
ENDBRANCH  25  26
ENDBRANCH  15  19
ENDBRANCH  10  15
TORSDOF 7
ENDMDL
MODEL 4
REMARK VINA RESULT:      -6.3      3.314      8.399
REMARK  Name = 45784167
REMARK  13 active torsions:
REMARK  status: ('A' for Active; 'I' for Inactive)
REMARK    1  A    between atoms: N_4  and  C_14
REMARK    2  A    between atoms: C_7  and  C_11
REMARK    3  A    between atoms: C_8  and  C_14
REMARK    4  A    between atoms: C_10  and  C_15
REMARK    5  A    between atoms: C_11  and  C_16
REMARK    6  A    between atoms: C_11  and  C_17
REMARK    7  A    between atoms: C_12  and  C_18
REMARK    8  A    between atoms: C_15  and  C_19
REMARK    9  A    between atoms: C_20  and  C_21
REMARK   10  A    between atoms: C_21  and  C_22
REMARK   11  A    between atoms: C_21  and  C_23
REMARK   12  A    between atoms: C_21  and  C_24
REMARK   13  A    between atoms: C_25  and  C_26
REMARK                            x       y       z     vdW  Elec       q    Type
REMARK                         _______ _______ _______ _____ _____    ______ ____
ROOT
ATOM      7  C   UNL     1      -6.470  -9.634   9.736  0.00  0.00    +0.000 C 
ATOM      8  C   UNL     1      -5.487  -9.238   8.606  0.00  0.00    +0.032 C 
ATOM      9  C   UNL     1      -6.062  -8.968  11.058  0.00  0.00    +0.012 C 
ATOM     10  C   UNL     1      -4.636  -9.358  11.493  0.00  0.00    +0.024 C 
ATOM     12  C   UNL     1      -3.650  -9.249  10.347  0.00  0.00    -0.073 C 
ATOM     13  C   UNL     1      -4.050  -9.182   9.065  0.00  0.00    -0.022 C 
ATOM     18  C   UNL     1      -2.194  -9.171  10.713  0.00  0.00    +0.039 C 
ENDROOT
BRANCH   7  11
ATOM     11  C   UNL     1      -7.915  -9.260   9.390  0.00  0.00    -0.013 C 
ATOM     16  C   UNL     1      -7.985  -7.826   8.875  0.00  0.00    +0.007 C 
ATOM     17  C   UNL     1      -8.817  -9.443  10.607  0.00  0.00    +0.007 C 
ENDBRANCH   7  11
BRANCH   8  14
ATOM     14  C   UNL     1      -5.606 -10.191   7.411  0.00  0.00    +0.112 C 
BRANCH  14   4
ATOM      3  O   UNL     1      -6.883 -12.708   7.803  0.00  0.00    -0.275 OA
ATOM      4  N   UNL     1      -4.958 -11.435   7.688  0.00  0.00    -0.314 N 
ATOM     20  C   UNL     1      -5.656 -12.629   7.869  0.00  0.00    +0.218 C 
ATOM     32  H   UNL     1      -3.943 -11.450   7.699  0.00  0.00    +0.149 HD
BRANCH  20  21
ATOM     21  C   UNL     1      -4.766 -13.858   8.155  0.00  0.00    +0.039 C 
ATOM     22  C   UNL     1      -4.082 -13.708   9.522  0.00  0.00    +0.020 C 
ATOM     23  C   UNL     1      -5.640 -15.126   8.180  0.00  0.00    +0.020 C 
ATOM     24  C   UNL     1      -3.710 -14.013   7.050  0.00  0.00    +0.020 C 
ENDBRANCH  20  21
ENDBRANCH  14   4
ENDBRANCH   8  14
BRANCH  10  15
ATOM     15  C   UNL     1      -4.611 -10.761  12.107  0.00  0.00    +0.105 C 
BRANCH  15  19
ATOM      2  O   UNL     1      -4.891 -10.870  14.529  0.00  0.00    -0.420 OA
ATOM      5  N   UNL     1      -2.769 -10.626  13.862  0.00  0.00    -0.112 NA
ATOM      6  N   UNL     1      -2.780 -10.672  15.243  0.00  0.00    -0.107 NA
ATOM     19  C   UNL     1      -4.021 -10.745  13.489  0.00  0.00    +0.218 A 
ATOM     25  C   UNL     1      -4.039 -10.815  15.589  0.00  0.00    +0.251 A 
BRANCH  25  26
ATOM      1  F   UNL     1      -6.230  -9.238  16.340  0.00  0.00    -0.205 F 
ATOM     26  C   UNL     1      -4.642 -10.921  16.885  0.00  0.00    +0.074 A 
ATOM     27  C   UNL     1      -5.732 -10.118  17.221  0.00  0.00    +0.136 A 
ATOM     28  C   UNL     1      -4.134 -11.831  17.813  0.00  0.00    +0.016 A 
ATOM     29  C   UNL     1      -6.313 -10.223  18.484  0.00  0.00    +0.039 A 
ATOM     30  C   UNL     1      -4.716 -11.936  19.076  0.00  0.00    +0.001 A 
ATOM     31  C   UNL     1      -5.806 -11.133  19.412  0.00  0.00    +0.003 A 
ENDBRANCH  25  26
ENDBRANCH  15  19
ENDBRANCH  10  15
TORSDOF 7
ENDMDL
MODEL 5
REMARK VINA RESULT:      -6.3     24.473     27.812
REMARK  Name = 45784167
REMARK  13 active torsions:
REMARK  status: ('A' for Active; 'I' for Inactive)
REMARK    1  A    between atoms: N_4  and  C_14
REMARK    2  A    between atoms: C_7  and  C_11
REMARK    3  A    between atoms: C_8  and  C_14
REMARK    4  A    between atoms: C_10  and  C_15
REMARK    5  A    between atoms: C_11  and  C_16
REMARK    6  A    between atoms: C_11  and  C_17
REMARK    7  A    between atoms: C_12  and  C_18
REMARK    8  A    between atoms: C_15  and  C_19
REMARK    9  A    between atoms: C_20  and  C_21
REMARK   10  A    between atoms: C_21  and  C_22
REMARK   11  A    between atoms: C_21  and  C_23
REMARK   12  A    between atoms: C_21  and  C_24
REMARK   13  A    between atoms: C_25  and  C_26
REMARK                            x       y       z     vdW  Elec       q    Type
REMARK                         _______ _______ _______ _____ _____    ______ ____
ROOT
ATOM      7  C   UNL     1       9.860   6.582   5.191  0.00  0.00    +0.000 C 
ATOM      8  C   UNL     1      10.292   6.342   3.723  0.00  0.00    +0.032 C 
ATOM      9  C   UNL     1       8.355   6.878   5.265  0.00  0.00    +0.012 C 
ATOM     10  C   UNL     1       7.962   8.114   4.433  0.00  0.00    +0.024 C 
ATOM     12  C   UNL     1       8.578   8.079   3.048  0.00  0.00    -0.073 C 
ATOM     13  C   UNL     1       9.610   7.270   2.747  0.00  0.00    -0.022 C 
ATOM     18  C   UNL     1       7.951   8.961   2.005  0.00  0.00    +0.039 C 
ENDROOT
BRANCH   7  11
ATOM     11  C   UNL     1      10.197   5.385   6.086  0.00  0.00    -0.013 C 
ATOM     16  C   UNL     1       9.818   4.080   5.394  0.00  0.00    +0.007 C 
ATOM     17  C   UNL     1       9.489   5.510   7.431  0.00  0.00    +0.007 C 
ENDBRANCH   7  11
BRANCH   8  14
ATOM     14  C   UNL     1      11.813   6.464   3.567  0.00  0.00    +0.112 C 
BRANCH  14   4
ATOM      3  O   UNL     1      13.111   6.396   1.031  0.00  0.00    -0.275 OA
ATOM      4  N   UNL     1      12.350   5.308   2.922  0.00  0.00    -0.314 N 
ATOM     20  C   UNL     1      12.974   5.355   1.675  0.00  0.00    +0.218 C 
ATOM     32  H   UNL     1      12.320   4.426   3.425  0.00  0.00    +0.149 HD
BRANCH  20  21
ATOM     21  C   UNL     1      13.488   3.995   1.159  0.00  0.00    +0.039 C 
ATOM     22  C   UNL     1      14.916   3.742   1.666  0.00  0.00    +0.020 C 
ATOM     23  C   UNL     1      12.575   2.872   1.684  0.00  0.00    +0.020 C 
ATOM     24  C   UNL     1      13.461   3.969  -0.377  0.00  0.00    +0.020 C 
ENDBRANCH  20  21
ENDBRANCH  14   4
ENDBRANCH   8  14
BRANCH  10  15
ATOM     15  C   UNL     1       8.328   9.410   5.163  0.00  0.00    +0.105 C 
BRANCH  15  19
ATOM      2  O   UNL     1      10.720   9.234   5.618  0.00  0.00    -0.420 OA
ATOM      5  N   UNL     1       9.423   8.970   7.422  0.00  0.00    -0.112 NA
ATOM      6  N   UNL     1      10.740   8.846   7.821  0.00  0.00    -0.107 NA
ATOM     19  C   UNL     1       9.458   9.195   6.129  0.00  0.00    +0.218 A 
ATOM     25  C   UNL     1      11.461   9.008   6.736  0.00  0.00    +0.251 A 
BRANCH  25  26
ATOM      1  F   UNL     1      12.919   6.614   6.759  0.00  0.00    -0.205 F 
ATOM     26  C   UNL     1      12.883   8.983   6.552  0.00  0.00    +0.074 A 
ATOM     27  C   UNL     1      13.572   7.770   6.570  0.00  0.00    +0.136 A 
ATOM     28  C   UNL     1      13.577  10.176   6.354  0.00  0.00    +0.016 A 
ATOM     29  C   UNL     1      14.956   7.751   6.392  0.00  0.00    +0.039 A 
ATOM     30  C   UNL     1      14.961  10.157   6.176  0.00  0.00    +0.001 A 
ATOM     31  C   UNL     1      15.650   8.945   6.195  0.00  0.00    +0.003 A 
ENDBRANCH  25  26
ENDBRANCH  15  19
ENDBRANCH  10  15
TORSDOF 7
ENDMDL
MODEL 6
REMARK VINA RESULT:      -6.3     24.361     27.750
REMARK  Name = 45784167
REMARK  13 active torsions:
REMARK  status: ('A' for Active; 'I' for Inactive)
REMARK    1  A    between atoms: N_4  and  C_14
REMARK    2  A    between atoms: C_7  and  C_11
REMARK    3  A    between atoms: C_8  and  C_14
REMARK    4  A    between atoms: C_10  and  C_15
REMARK    5  A    between atoms: C_11  and  C_16
REMARK    6  A    between atoms: C_11  and  C_17
REMARK    7  A    between atoms: C_12  and  C_18
REMARK    8  A    between atoms: C_15  and  C_19
REMARK    9  A    between atoms: C_20  and  C_21
REMARK   10  A    between atoms: C_21  and  C_22
REMARK   11  A    between atoms: C_21  and  C_23
REMARK   12  A    between atoms: C_21  and  C_24
REMARK   13  A    between atoms: C_25  and  C_26
REMARK                            x       y       z     vdW  Elec       q    Type
REMARK                         _______ _______ _______ _____ _____    ______ ____
ROOT
ATOM      7  C   UNL     1      13.352   7.733   4.142  0.00  0.00    +0.000 C 
ATOM      8  C   UNL     1      12.312   8.839   4.449  0.00  0.00    +0.032 C 
ATOM      9  C   UNL     1      13.286   7.332   2.661  0.00  0.00    +0.012 C 
ATOM     10  C   UNL     1      11.892   6.816   2.258  0.00  0.00    +0.024 C 
ATOM     12  C   UNL     1      10.788   7.723   2.764  0.00  0.00    -0.073 C 
ATOM     13  C   UNL     1      10.999   8.631   3.734  0.00  0.00    -0.022 C 
ATOM     18  C   UNL     1       9.447   7.596   2.095  0.00  0.00    +0.039 C 
ENDROOT
BRANCH   7  11
ATOM     11  C   UNL     1      14.775   8.176   4.497  0.00  0.00    -0.013 C 
ATOM     16  C   UNL     1      15.746   7.788   3.386  0.00  0.00    +0.007 C 
ATOM     17  C   UNL     1      15.205   7.569   5.829  0.00  0.00    +0.007 C 
ENDBRANCH   7  11
BRANCH   8  14
ATOM     14  C   UNL     1      12.059   8.958   5.957  0.00  0.00    +0.112 C 
BRANCH  14   4
ATOM      3  O   UNL     1      12.133   6.410   7.233  0.00  0.00    -0.275 OA
ATOM      4  N   UNL     1      10.930   8.172   6.345  0.00  0.00    -0.314 N 
ATOM     20  C   UNL     1      11.048   6.929   6.968  0.00  0.00    +0.218 C 
ATOM     32  H   UNL     1      10.006   8.568   6.206  0.00  0.00    +0.149 HD
BRANCH  20  21
ATOM     21  C   UNL     1       9.705   6.248   7.307  0.00  0.00    +0.039 C 
ATOM     22  C   UNL     1       8.765   7.247   7.998  0.00  0.00    +0.020 C 
ATOM     23  C   UNL     1       9.036   5.764   6.007  0.00  0.00    +0.020 C 
ATOM     24  C   UNL     1       9.945   5.033   8.216  0.00  0.00    +0.020 C 
ENDBRANCH  20  21
ENDBRANCH  14   4
ENDBRANCH   8  14
BRANCH  10  15
ATOM     15  C   UNL     1      11.678   5.375   2.734  0.00  0.00    +0.105 C 
BRANCH  15  19
ATOM      2  O   UNL     1      11.959   4.579   0.443  0.00  0.00    -0.420 OA
ATOM      5  N   UNL     1      13.006   3.336   1.981  0.00  0.00    -0.112 NA
ATOM      6  N   UNL     1      13.248   2.775   0.741  0.00  0.00    -0.107 NA
ATOM     19  C   UNL     1      12.250   4.385   1.760  0.00  0.00    +0.218 A 
ATOM     25  C   UNL     1      12.618   3.534  -0.126  0.00  0.00    +0.251 A 
BRANCH  25  26
ATOM      1  F   UNL     1      14.588   4.570  -1.828  0.00  0.00    -0.205 F 
ATOM     26  C   UNL     1      12.519   3.432  -1.553  0.00  0.00    +0.074 A 
ATOM     27  C   UNL     1      13.521   3.961  -2.366  0.00  0.00    +0.136 A 
ATOM     28  C   UNL     1      11.415   2.802  -2.128  0.00  0.00    +0.016 A 
ATOM     29  C   UNL     1      13.419   3.861  -3.753  0.00  0.00    +0.039 A 
ATOM     30  C   UNL     1      11.313   2.702  -3.515  0.00  0.00    +0.001 A 
ATOM     31  C   UNL     1      12.315   3.231  -4.328  0.00  0.00    +0.003 A 
ENDBRANCH  25  26
ENDBRANCH  15  19
ENDBRANCH  10  15
TORSDOF 7
ENDMDL
MODEL 7
REMARK VINA RESULT:      -6.2      4.761      7.787
REMARK  Name = 45784167
REMARK  13 active torsions:
REMARK  status: ('A' for Active; 'I' for Inactive)
REMARK    1  A    between atoms: N_4  and  C_14
REMARK    2  A    between atoms: C_7  and  C_11
REMARK    3  A    between atoms: C_8  and  C_14
REMARK    4  A    between atoms: C_10  and  C_15
REMARK    5  A    between atoms: C_11  and  C_16
REMARK    6  A    between atoms: C_11  and  C_17
REMARK    7  A    between atoms: C_12  and  C_18
REMARK    8  A    between atoms: C_15  and  C_19
REMARK    9  A    between atoms: C_20  and  C_21
REMARK   10  A    between atoms: C_21  and  C_22
REMARK   11  A    between atoms: C_21  and  C_23
REMARK   12  A    between atoms: C_21  and  C_24
REMARK   13  A    between atoms: C_25  and  C_26
REMARK                            x       y       z     vdW  Elec       q    Type
REMARK                         _______ _______ _______ _____ _____    ______ ____
ROOT
ATOM      7  C   UNL     1      -8.048  -7.915   7.323  0.00  0.00    +0.000 C 
ATOM      8  C   UNL     1      -9.336  -7.665   8.147  0.00  0.00    +0.032 C 
ATOM      9  C   UNL     1      -7.471  -9.303   7.637  0.00  0.00    +0.012 C 
ATOM     10  C   UNL     1      -7.135  -9.470   9.131  0.00  0.00    +0.024 C 
ATOM     12  C   UNL     1      -8.264  -8.989  10.020  0.00  0.00    -0.073 C 
ATOM     13  C   UNL     1      -9.247  -8.195   9.558  0.00  0.00    -0.022 C 
ATOM     18  C   UNL     1      -8.265  -9.482  11.440  0.00  0.00    +0.039 C 
ENDROOT
BRANCH   7  11
ATOM     11  C   UNL     1      -8.302  -7.787   5.817  0.00  0.00    -0.013 C 
ATOM     16  C   UNL     1      -9.562  -8.552   5.424  0.00  0.00    +0.007 C 
ATOM     17  C   UNL     1      -7.096  -8.288   5.030  0.00  0.00    +0.007 C 
ENDBRANCH   7  11
BRANCH   8  14
ATOM     14  C   UNL     1      -9.690  -6.174   8.182  0.00  0.00    +0.112 C 
BRANCH  14   4
ATOM      3  O   UNL     1     -10.528  -3.631   9.159  0.00  0.00    -0.275 OA
ATOM      4  N   UNL     1     -10.763  -5.929   9.094  0.00  0.00    -0.314 N 
ATOM     20  C   UNL     1     -11.113  -4.650   9.527  0.00  0.00    +0.218 C 
ATOM     32  H   UNL     1     -11.322  -6.722   9.393  0.00  0.00    +0.149 HD
BRANCH  20  21
ATOM     21  C   UNL     1     -12.304  -4.605  10.509  0.00  0.00    +0.039 C 
ATOM     22  C   UNL     1     -13.613  -4.372   9.741  0.00  0.00    +0.020 C 
ATOM     23  C   UNL     1     -12.403  -5.951  11.251  0.00  0.00    +0.020 C 
ATOM     24  C   UNL     1     -12.091  -3.490  11.544  0.00  0.00    +0.020 C 
ENDBRANCH  20  21
ENDBRANCH  14   4
ENDBRANCH   8  14
BRANCH  10  15
ATOM     15  C   UNL     1      -5.821  -8.764   9.483  0.00  0.00    +0.105 C 
BRANCH  15  19
ATOM      2  O   UNL     1      -4.673  -9.487  11.513  0.00  0.00    -0.420 OA
ATOM      5  N   UNL     1      -4.177 -10.698   9.698  0.00  0.00    -0.112 NA
ATOM      6  N   UNL     1      -3.463 -11.213  10.764  0.00  0.00    -0.107 NA
ATOM     19  C   UNL     1      -4.869  -9.693  10.181  0.00  0.00    +0.218 A 
ATOM     25  C   UNL     1      -3.784 -10.475  11.801  0.00  0.00    +0.251 A 
BRANCH  25  26
ATOM      1  F   UNL     1      -1.133  -9.953  12.546  0.00  0.00    -0.205 F 
ATOM     26  C   UNL     1      -3.349 -10.550  13.166  0.00  0.00    +0.074 A 
ATOM     27  C   UNL     1      -2.021 -10.282  13.495  0.00  0.00    +0.136 A 
ATOM     28  C   UNL     1      -4.261 -10.891  14.166  0.00  0.00    +0.016 A 
ATOM     29  C   UNL     1      -1.603 -10.358  14.824  0.00  0.00    +0.039 A 
ATOM     30  C   UNL     1      -3.843 -10.967  15.494  0.00  0.00    +0.001 A 
ATOM     31  C   UNL     1      -2.514 -10.699  15.824  0.00  0.00    +0.003 A 
ENDBRANCH  25  26
ENDBRANCH  15  19
ENDBRANCH  10  15
TORSDOF 7
ENDMDL
MODEL 8
REMARK VINA RESULT:      -6.2     23.822     28.078
REMARK  Name = 45784167
REMARK  13 active torsions:
REMARK  status: ('A' for Active; 'I' for Inactive)
REMARK    1  A    between atoms: N_4  and  C_14
REMARK    2  A    between atoms: C_7  and  C_11
REMARK    3  A    between atoms: C_8  and  C_14
REMARK    4  A    between atoms: C_10  and  C_15
REMARK    5  A    between atoms: C_11  and  C_16
REMARK    6  A    between atoms: C_11  and  C_17
REMARK    7  A    between atoms: C_12  and  C_18
REMARK    8  A    between atoms: C_15  and  C_19
REMARK    9  A    between atoms: C_20  and  C_21
REMARK   10  A    between atoms: C_21  and  C_22
REMARK   11  A    between atoms: C_21  and  C_23
REMARK   12  A    between atoms: C_21  and  C_24
REMARK   13  A    between atoms: C_25  and  C_26
REMARK                            x       y       z     vdW  Elec       q    Type
REMARK                         _______ _______ _______ _____ _____    ______ ____
ROOT
ATOM      7  C   UNL     1      13.938   5.876   0.239  0.00  0.00    +0.000 C 
ATOM      8  C   UNL     1      14.077   4.345   0.043  0.00  0.00    +0.032 C 
ATOM      9  C   UNL     1      13.625   6.201   1.707  0.00  0.00    +0.012 C 
ATOM     10  C   UNL     1      12.327   5.528   2.190  0.00  0.00    +0.024 C 
ATOM     12  C   UNL     1      12.270   4.066   1.793  0.00  0.00    -0.073 C 
ATOM     13  C   UNL     1      13.070   3.553   0.841  0.00  0.00    -0.022 C 
ATOM     18  C   UNL     1      11.305   3.197   2.550  0.00  0.00    +0.039 C 
ENDROOT
BRANCH   7  11
ATOM     11  C   UNL     1      15.202   6.623  -0.200  0.00  0.00    -0.013 C 
ATOM     16  C   UNL     1      15.691   7.543   0.914  0.00  0.00    +0.007 C 
ATOM     17  C   UNL     1      14.936   7.413  -1.478  0.00  0.00    +0.007 C 
ENDBRANCH   7  11
BRANCH   8  14
ATOM     14  C   UNL     1      13.967   3.966  -1.439  0.00  0.00    +0.112 C 
BRANCH  14   4
ATOM      3  O   UNL     1      11.664   2.444  -2.149  0.00  0.00    -0.275 OA
ATOM      4  N   UNL     1      12.757   4.475  -2.004  0.00  0.00    -0.314 N 
ATOM     20  C   UNL     1      11.669   3.663  -2.325  0.00  0.00    +0.218 C 
ATOM     32  H   UNL     1      12.674   5.480  -2.123  0.00  0.00    +0.149 HD
BRANCH  20  21
ATOM     21  C   UNL     1      10.458   4.413  -2.921  0.00  0.00    +0.039 C 
ATOM     22  C   UNL     1       9.530   3.426  -3.645  0.00  0.00    +0.020 C 
ATOM     23  C   UNL     1       9.667   5.088  -1.786  0.00  0.00    +0.020 C 
ATOM     24  C   UNL     1      10.939   5.499  -3.896  0.00  0.00    +0.020 C 
ENDBRANCH  20  21
ENDBRANCH  14   4
ENDBRANCH   8  14
BRANCH  10  15
ATOM     15  C   UNL     1      11.093   6.282   1.683  0.00  0.00    +0.105 C 
BRANCH  15  19
ATOM      2  O   UNL     1      10.447   6.086   4.029  0.00  0.00    -0.420 OA
ATOM      5  N   UNL     1       9.053   7.328   2.795  0.00  0.00    -0.112 NA
ATOM      6  N   UNL     1       8.570   7.302   4.090  0.00  0.00    -0.107 NA
ATOM     19  C   UNL     1      10.148   6.605   2.806  0.00  0.00    +0.218 A 
ATOM     25  C   UNL     1       9.415   6.567   4.774  0.00  0.00    +0.251 A 
BRANCH  25  26
ATOM      1  F   UNL     1      10.156   4.002   5.629  0.00  0.00    -0.205 F 
ATOM     26  C   UNL     1       9.418   6.199   6.160  0.00  0.00    +0.074 A 
ATOM     27  C   UNL     1       9.793   4.912   6.545  0.00  0.00    +0.136 A 
ATOM     28  C   UNL     1       9.043   7.134   7.126  0.00  0.00    +0.016 A 
ATOM     29  C   UNL     1       9.792   4.559   7.894  0.00  0.00    +0.039 A 
ATOM     30  C   UNL     1       9.042   6.781   8.475  0.00  0.00    +0.001 A 
ATOM     31  C   UNL     1       9.418   5.493   8.860  0.00  0.00    +0.003 A 
ENDBRANCH  25  26
ENDBRANCH  15  19
ENDBRANCH  10  15
TORSDOF 7
ENDMDL
MODEL 9
REMARK VINA RESULT:      -6.2     23.963     27.287
REMARK  Name = 45784167
REMARK  13 active torsions:
REMARK  status: ('A' for Active; 'I' for Inactive)
REMARK    1  A    between atoms: N_4  and  C_14
REMARK    2  A    between atoms: C_7  and  C_11
REMARK    3  A    between atoms: C_8  and  C_14
REMARK    4  A    between atoms: C_10  and  C_15
REMARK    5  A    between atoms: C_11  and  C_16
REMARK    6  A    between atoms: C_11  and  C_17
REMARK    7  A    between atoms: C_12  and  C_18
REMARK    8  A    between atoms: C_15  and  C_19
REMARK    9  A    between atoms: C_20  and  C_21
REMARK   10  A    between atoms: C_21  and  C_22
REMARK   11  A    between atoms: C_21  and  C_23
REMARK   12  A    between atoms: C_21  and  C_24
REMARK   13  A    between atoms: C_25  and  C_26
REMARK                            x       y       z     vdW  Elec       q    Type
REMARK                         _______ _______ _______ _____ _____    ______ ____
ROOT
ATOM      7  C   UNL     1      10.486   9.686   4.888  0.00  0.00    +0.000 C 
ATOM      8  C   UNL     1       9.520  10.473   5.810  0.00  0.00    +0.032 C 
ATOM      9  C   UNL     1      10.122   9.913   3.413  0.00  0.00    +0.012 C 
ATOM     10  C   UNL     1       8.680   9.477   3.094  0.00  0.00    +0.024 C 
ATOM     12  C   UNL     1       7.694   9.997   4.122  0.00  0.00    -0.073 C 
ATOM     13  C   UNL     1       8.090  10.450   5.325  0.00  0.00    -0.022 C 
ATOM     18  C   UNL     1       6.247  10.026   3.717  0.00  0.00    +0.039 C 
ENDROOT
BRANCH   7  11
ATOM     11  C   UNL     1      11.947  10.078   5.129  0.00  0.00    -0.013 C 
ATOM     16  C   UNL     1      12.271  11.388   4.417  0.00  0.00    +0.007 C 
ATOM     17  C   UNL     1      12.880   8.964   4.664  0.00  0.00    +0.007 C 
ENDBRANCH   7  11
BRANCH   8  14
ATOM     14  C   UNL     1       9.579   9.948   7.249  0.00  0.00    +0.112 C 
BRANCH  14   4
ATOM      3  O   UNL     1       8.005   7.574   7.266  0.00  0.00    -0.275 OA
ATOM      4  N   UNL     1      10.071   8.607   7.280  0.00  0.00    -0.314 N 
ATOM     20  C   UNL     1       9.233   7.492   7.286  0.00  0.00    +0.218 C 
ATOM     32  H   UNL     1      11.076   8.468   7.241  0.00  0.00    +0.149 HD
BRANCH  20  21
ATOM     21  C   UNL     1       9.967   6.134   7.317  0.00  0.00    +0.039 C 
ATOM     22  C   UNL     1       9.612   5.314   6.067  0.00  0.00    +0.020 C 
ATOM     23  C   UNL     1      11.487   6.376   7.329  0.00  0.00    +0.020 C 
ATOM     24  C   UNL     1       9.584   5.357   8.585  0.00  0.00    +0.020 C 
ENDBRANCH  20  21
ENDBRANCH  14   4
ENDBRANCH   8  14
BRANCH  10  15
ATOM     15  C   UNL     1       8.581   7.953   2.961  0.00  0.00    +0.105 C 
BRANCH  15  19
ATOM      2  O   UNL     1      10.493   6.543   2.400  0.00  0.00    -0.420 OA
ATOM      5  N   UNL     1       9.660   7.689   0.668  0.00  0.00    -0.112 NA
ATOM      6  N   UNL     1      10.728   6.940   0.211  0.00  0.00    -0.107 NA
ATOM     19  C   UNL     1       9.559   7.426   1.950  0.00  0.00    +0.218 A 
ATOM     25  C   UNL     1      11.182   6.287   1.256  0.00  0.00    +0.251 A 
BRANCH  25  26
ATOM      1  F   UNL     1      10.770   3.538   1.608  0.00  0.00    -0.205 F 
ATOM     26  C   UNL     1      12.274   5.364   1.374  0.00  0.00    +0.074 A 
ATOM     27  C   UNL     1      12.026   4.003   1.549  0.00  0.00    +0.136 A 
ATOM     28  C   UNL     1      13.586   5.832   1.315  0.00  0.00    +0.016 A 
ATOM     29  C   UNL     1      13.091   3.109   1.665  0.00  0.00    +0.039 A 
ATOM     30  C   UNL     1      14.651   4.939   1.431  0.00  0.00    +0.001 A 
ATOM     31  C   UNL     1      14.404   3.577   1.605  0.00  0.00    +0.003 A 
ENDBRANCH  25  26
ENDBRANCH  15  19
ENDBRANCH  10  15
TORSDOF 7
ENDMDL
MODEL 10
REMARK VINA RESULT:      -6.2     22.771     26.919
REMARK  Name = 45784167
REMARK  13 active torsions:
REMARK  status: ('A' for Active; 'I' for Inactive)
REMARK    1  A    between atoms: N_4  and  C_14
REMARK    2  A    between atoms: C_7  and  C_11
REMARK    3  A    between atoms: C_8  and  C_14
REMARK    4  A    between atoms: C_10  and  C_15
REMARK    5  A    between atoms: C_11  and  C_16
REMARK    6  A    between atoms: C_11  and  C_17
REMARK    7  A    between atoms: C_12  and  C_18
REMARK    8  A    between atoms: C_15  and  C_19
REMARK    9  A    between atoms: C_20  and  C_21
REMARK   10  A    between atoms: C_21  and  C_22
REMARK   11  A    between atoms: C_21  and  C_23
REMARK   12  A    between atoms: C_21  and  C_24
REMARK   13  A    between atoms: C_25  and  C_26
REMARK                            x       y       z     vdW  Elec       q    Type
REMARK                         _______ _______ _______ _____ _____    ______ ____
ROOT
ATOM      7  C   UNL     1     -12.621   9.360  32.915  0.00  0.00    +0.000 C 
ATOM      8  C   UNL     1     -13.649  10.377  33.473  0.00  0.00    +0.032 C 
ATOM      9  C   UNL     1     -13.300   8.402  31.924  0.00  0.00    +0.012 C 
ATOM     10  C   UNL     1     -14.459   7.620  32.570  0.00  0.00    +0.024 C 
ATOM     12  C   UNL     1     -15.373   8.527  33.369  0.00  0.00    -0.073 C 
ATOM     13  C   UNL     1     -14.998   9.761  33.752  0.00  0.00    -0.022 C 
ATOM     18  C   UNL     1     -16.747   8.000  33.679  0.00  0.00    +0.039 C 
ENDROOT
BRANCH   7  11
ATOM     11  C   UNL     1     -11.440  10.060  32.234  0.00  0.00    -0.013 C 
ATOM     16  C   UNL     1     -11.505   9.864  30.723  0.00  0.00    +0.007 C 
ATOM     17  C   UNL     1     -10.120   9.538  32.791  0.00  0.00    +0.007 C 
ENDBRANCH   7  11
BRANCH   8  14
ATOM     14  C   UNL     1     -13.122  11.052  34.745  0.00  0.00    +0.112 C 
BRANCH  14   4
ATOM      3  O   UNL     1     -10.534  11.110  35.936  0.00  0.00    -0.275 OA
ATOM      4  N   UNL     1     -12.584  10.083  35.647  0.00  0.00    -0.314 N 
ATOM     20  C   UNL     1     -11.302  10.182  36.190  0.00  0.00    +0.218 C 
ATOM     32  H   UNL     1     -13.187   9.322  35.942  0.00  0.00    +0.149 HD
BRANCH  20  21
ATOM     21  C   UNL     1     -10.917   9.033  37.146  0.00  0.00    +0.039 C 
ATOM     22  C   UNL     1     -11.793   7.802  36.872  0.00  0.00    +0.020 C 
ATOM     23  C   UNL     1      -9.444   8.648  36.913  0.00  0.00    +0.020 C 
ATOM     24  C   UNL     1     -11.080   9.484  38.605  0.00  0.00    +0.020 C 
ENDBRANCH  20  21
ENDBRANCH  14   4
ENDBRANCH   8  14
BRANCH  10  15
ATOM     15  C   UNL     1     -13.934   6.470  33.436  0.00  0.00    +0.105 C 
BRANCH  15  19
ATOM      2  O   UNL     1     -14.379   4.377  32.261  0.00  0.00    -0.420 OA
ATOM      5  N   UNL     1     -15.813   4.818  33.921  0.00  0.00    -0.112 NA
ATOM      6  N   UNL     1     -16.180   3.615  33.347  0.00  0.00    -0.107 NA
ATOM     19  C   UNL     1     -14.758   5.226  33.255  0.00  0.00    +0.218 A 
ATOM     25  C   UNL     1     -15.315   3.398  32.384  0.00  0.00    +0.251 A 
BRANCH  25  26
ATOM      1  F   UNL     1     -14.722   0.790  33.224  0.00  0.00    -0.205 F 
ATOM     26  C   UNL     1     -15.208   2.307  31.459  0.00  0.00    +0.074 A 
ATOM     27  C   UNL     1     -14.910   1.024  31.917  0.00  0.00    +0.136 A 
ATOM     28  C   UNL     1     -15.401   2.534  30.096  0.00  0.00    +0.016 A 
ATOM     29  C   UNL     1     -14.806  -0.033  31.012  0.00  0.00    +0.039 A 
ATOM     30  C   UNL     1     -15.296   1.477  29.191  0.00  0.00    +0.001 A 
ATOM     31  C   UNL     1     -14.999   0.194  29.650  0.00  0.00    +0.003 A 
ENDBRANCH  25  26
ENDBRANCH  15  19
ENDBRANCH  10  15
TORSDOF 7
ENDMDL
