MODEL 1
REMARK VINA RESULT:      -7.3      0.000      0.000
REMARK  Name = 45784358
REMARK  7 active torsions:
REMARK  status: ('A' for Active; 'I' for Inactive)
REMARK    1  A    between atoms: O_2  and  C_25
REMARK    2  A    between atoms: O_2  and  C_26
REMARK    3  A    between atoms: N_4  and  C_10
REMARK    4  A    between atoms: C_6  and  C_11
REMARK    5  A    between atoms: C_10  and  C_12
REMARK    6  A    between atoms: C_15  and  C_20
REMARK    7  A    between atoms: C_17  and  C_25
REMARK                            x       y       z     vdW  Elec       q    Type
REMARK                         _______ _______ _______ _____ _____    ______ ____
ROOT
ATOM      4  N   UNL     1      18.270   6.192  20.655  0.00  0.00    -0.297 NA
ATOM      6  C   UNL     1      16.076   6.717  21.294  0.00  0.00    +0.090 C 
ATOM      7  C   UNL     1      16.082   6.204  19.843  0.00  0.00    +0.029 C 
ATOM      8  C   UNL     1      17.543   7.050  21.593  0.00  0.00    +0.097 C 
ATOM      9  C   UNL     1      17.534   6.302  19.395  0.00  0.00    +0.085 C 
ENDROOT
BRANCH   6  11
ATOM      1  O   UNL     1      13.845   7.693  21.184  0.00  0.00    -0.439 OA
ATOM      5  N   UNL     1      15.422   9.045  22.089  0.00  0.00    -0.213 NA
ATOM     11  C   UNL     1      15.144   7.877  21.553  0.00  0.00    +0.201 A 
ATOM     13  C   UNL     1      13.244   8.870  21.525  0.00  0.00    +0.169 A 
ATOM     14  C   UNL     1      14.213   9.695  22.079  0.00  0.00    +0.110 A 
ATOM     17  C   UNL     1      11.908   9.216  21.363  0.00  0.00    +0.103 A 
ATOM     18  C   UNL     1      13.842  10.975  22.516  0.00  0.00    +0.031 A 
ATOM     23  C   UNL     1      11.556  10.496  21.803  0.00  0.00    +0.019 A 
ATOM     24  C   UNL     1      12.502  11.360  22.368  0.00  0.00    +0.003 A 
BRANCH  17  25
ATOM      3  O   UNL     1      10.559   8.351  19.596  0.00  0.00    -0.245 OA
ATOM     25  C   UNL     1      10.939   8.312  20.777  0.00  0.00    +0.343 C 
BRANCH  25   2
ATOM      2  O   UNL     1      10.485   7.395  21.689  0.00  0.00    -0.464 OA
ATOM     26  C   UNL     1      10.993   6.060  21.579  0.00  0.00    +0.280 C 
ENDBRANCH  25   2
ENDBRANCH  17  25
ENDBRANCH   6  11
BRANCH   4  10
ATOM     10  C   UNL     1      19.667   6.580  20.516  0.00  0.00    +0.119 C 
BRANCH  10  12
ATOM     12  C   UNL     1      20.590   5.600  21.189  0.00  0.00    -0.030 A 
ATOM     15  C   UNL     1      21.202   5.910  22.404  0.00  0.00    -0.046 A 
ATOM     16  C   UNL     1      20.831   4.368  20.581  0.00  0.00    +0.005 A 
ATOM     19  C   UNL     1      22.054   4.986  23.010  0.00  0.00    +0.003 A 
ATOM     20  C   UNL     1      20.961   7.222  23.074  0.00  0.00    +0.044 C 
ATOM     21  C   UNL     1      21.683   3.445  21.188  0.00  0.00    +0.000 A 
ATOM     22  C   UNL     1      22.295   3.754  22.402  0.00  0.00    +0.000 A 
ENDBRANCH  10  12
ENDBRANCH   4  10
TORSDOF 5
ENDMDL
MODEL 2
REMARK VINA RESULT:      -7.0     26.739     28.859
REMARK  Name = 45784358
REMARK  7 active torsions:
REMARK  status: ('A' for Active; 'I' for Inactive)
REMARK    1  A    between atoms: O_2  and  C_25
REMARK    2  A    between atoms: O_2  and  C_26
REMARK    3  A    between atoms: N_4  and  C_10
REMARK    4  A    between atoms: C_6  and  C_11
REMARK    5  A    between atoms: C_10  and  C_12
REMARK    6  A    between atoms: C_15  and  C_20
REMARK    7  A    between atoms: C_17  and  C_25
REMARK                            x       y       z     vdW  Elec       q    Type
REMARK                         _______ _______ _______ _____ _____    ______ ____
ROOT
ATOM      4  N   UNL     1      -2.123 -11.114  13.568  0.00  0.00    -0.297 NA
ATOM      6  C   UNL     1      -3.080 -10.300  15.549  0.00  0.00    +0.090 C 
ATOM      7  C   UNL     1      -1.710 -10.928  15.858  0.00  0.00    +0.029 C 
ATOM      8  C   UNL     1      -3.435 -10.815  14.147  0.00  0.00    +0.097 C 
ATOM      9  C   UNL     1      -1.380 -11.779  14.639  0.00  0.00    +0.085 C 
ENDROOT
BRANCH   6  11
ATOM      1  O   UNL     1      -5.377 -10.041  16.321  0.00  0.00    -0.439 OA
ATOM      5  N   UNL     1      -4.064 -11.297  17.675  0.00  0.00    -0.213 NA
ATOM     11  C   UNL     1      -4.154 -10.587  16.571  0.00  0.00    +0.201 A 
ATOM     13  C   UNL     1      -6.136 -10.451  17.379  0.00  0.00    +0.169 A 
ATOM     14  C   UNL     1      -5.328 -11.220  18.205  0.00  0.00    +0.110 A 
ATOM     17  C   UNL     1      -7.475 -10.171  17.620  0.00  0.00    +0.103 A 
ATOM     18  C   UNL     1      -5.879 -11.766  19.373  0.00  0.00    +0.031 A 
ATOM     23  C   UNL     1      -8.009 -10.723  18.789  0.00  0.00    +0.019 A 
ATOM     24  C   UNL     1      -7.229 -11.505  19.650  0.00  0.00    +0.003 A 
BRANCH  17  25
ATOM      3  O   UNL     1      -8.413  -9.585  15.507  0.00  0.00    -0.245 OA
ATOM     25  C   UNL     1      -8.271  -9.361  16.719  0.00  0.00    +0.343 C 
BRANCH  25   2
ATOM      2  O   UNL     1      -8.856  -8.306  17.370  0.00  0.00    -0.464 OA
ATOM     26  C   UNL     1     -10.022  -7.735  16.764  0.00  0.00    +0.280 C 
ENDBRANCH  25   2
ENDBRANCH  17  25
ENDBRANCH   6  11
BRANCH   4  10
ATOM     10  C   UNL     1      -2.219 -11.933  12.369  0.00  0.00    +0.119 C 
BRANCH  10  12
ATOM     12  C   UNL     1      -2.890 -11.199  11.240  0.00  0.00    -0.030 A 
ATOM     15  C   UNL     1      -3.766 -11.856  10.376  0.00  0.00    -0.046 A 
ATOM     16  C   UNL     1      -2.625  -9.840  11.063  0.00  0.00    +0.005 A 
ATOM     19  C   UNL     1      -4.378 -11.155   9.336  0.00  0.00    +0.003 A 
ATOM     20  C   UNL     1      -4.066 -13.310  10.544  0.00  0.00    +0.044 C 
ATOM     21  C   UNL     1      -3.237  -9.139  10.024  0.00  0.00    +0.000 A 
ATOM     22  C   UNL     1      -4.113  -9.797   9.160  0.00  0.00    +0.000 A 
ENDBRANCH  10  12
ENDBRANCH   4  10
TORSDOF 5
ENDMDL
MODEL 3
REMARK VINA RESULT:      -6.9     27.845     29.679
REMARK  Name = 45784358
REMARK  7 active torsions:
REMARK  status: ('A' for Active; 'I' for Inactive)
REMARK    1  A    between atoms: O_2  and  C_25
REMARK    2  A    between atoms: O_2  and  C_26
REMARK    3  A    between atoms: N_4  and  C_10
REMARK    4  A    between atoms: C_6  and  C_11
REMARK    5  A    between atoms: C_10  and  C_12
REMARK    6  A    between atoms: C_15  and  C_20
REMARK    7  A    between atoms: C_17  and  C_25
REMARK                            x       y       z     vdW  Elec       q    Type
REMARK                         _______ _______ _______ _____ _____    ______ ____
ROOT
ATOM      4  N   UNL     1      -4.707 -10.413  14.554  0.00  0.00    -0.297 NA
ATOM      6  C   UNL     1      -5.928  -9.575  16.373  0.00  0.00    +0.090 C 
ATOM      7  C   UNL     1      -4.640 -10.248  16.882  0.00  0.00    +0.029 C 
ATOM      8  C   UNL     1      -6.081 -10.075  14.930  0.00  0.00    +0.097 C 
ATOM      9  C   UNL     1      -4.157 -11.106  15.720  0.00  0.00    +0.085 C 
ENDROOT
BRANCH   6  11
ATOM      1  O   UNL     1      -8.292  -9.194  16.825  0.00  0.00    -0.439 OA
ATOM      5  N   UNL     1      -7.265 -10.589  18.287  0.00  0.00    -0.213 NA
ATOM     11  C   UNL     1      -7.153  -9.831  17.218  0.00  0.00    +0.201 A 
ATOM     13  C   UNL     1      -9.218  -9.596  17.744  0.00  0.00    +0.169 A 
ATOM     14  C   UNL     1      -8.586 -10.449  18.637  0.00  0.00    +0.110 A 
ATOM     17  C   UNL     1     -10.559  -9.236  17.807  0.00  0.00    +0.103 A 
ATOM     18  C   UNL     1      -9.332 -11.004  19.687  0.00  0.00    +0.031 A 
ATOM     23  C   UNL     1     -11.288  -9.798  18.861  0.00  0.00    +0.019 A 
ATOM     24  C   UNL     1     -10.689 -10.664  19.784  0.00  0.00    +0.003 A 
BRANCH  17  25
ATOM      3  O   UNL     1     -11.976  -8.684  15.971  0.00  0.00    -0.245 OA
ATOM     25  C   UNL     1     -11.166  -8.339  16.845  0.00  0.00    +0.343 C 
BRANCH  25   2
ATOM      2  O   UNL     1     -10.737  -7.048  17.014  0.00  0.00    -0.464 OA
ATOM     26  C   UNL     1     -11.293  -6.058  16.141  0.00  0.00    +0.280 C 
ENDBRANCH  25   2
ENDBRANCH  17  25
ENDBRANCH   6  11
BRANCH   4  10
ATOM     10  C   UNL     1      -4.645 -11.226  13.348  0.00  0.00    +0.119 C 
BRANCH  10  12
ATOM     12  C   UNL     1      -4.273 -10.409  12.140  0.00  0.00    -0.030 A 
ATOM     15  C   UNL     1      -2.951 -10.336  11.701  0.00  0.00    -0.046 A 
ATOM     16  C   UNL     1      -5.274  -9.717  11.456  0.00  0.00    +0.005 A 
ATOM     19  C   UNL     1      -2.630  -9.573  10.578  0.00  0.00    +0.003 A 
ATOM     20  C   UNL     1      -1.863 -11.067  12.416  0.00  0.00    +0.044 C 
ATOM     21  C   UNL     1      -4.953  -8.954  10.334  0.00  0.00    +0.000 A 
ATOM     22  C   UNL     1      -3.631  -8.882   9.895  0.00  0.00    +0.000 A 
ENDBRANCH  10  12
ENDBRANCH   4  10
TORSDOF 5
ENDMDL
MODEL 4
REMARK VINA RESULT:      -6.8     17.186     19.138
REMARK  Name = 45784358
REMARK  7 active torsions:
REMARK  status: ('A' for Active; 'I' for Inactive)
REMARK    1  A    between atoms: O_2  and  C_25
REMARK    2  A    between atoms: O_2  and  C_26
REMARK    3  A    between atoms: N_4  and  C_10
REMARK    4  A    between atoms: C_6  and  C_11
REMARK    5  A    between atoms: C_10  and  C_12
REMARK    6  A    between atoms: C_15  and  C_20
REMARK    7  A    between atoms: C_17  and  C_25
REMARK                            x       y       z     vdW  Elec       q    Type
REMARK                         _______ _______ _______ _____ _____    ______ ____
ROOT
ATOM      4  N   UNL     1      11.752   4.190   1.622  0.00  0.00    -0.297 NA
ATOM      6  C   UNL     1      10.246   4.897   3.275  0.00  0.00    +0.090 C 
ATOM      7  C   UNL     1      10.985   6.116   2.695  0.00  0.00    +0.029 C 
ATOM      8  C   UNL     1      11.075   3.689   2.820  0.00  0.00    +0.097 C 
ATOM      9  C   UNL     1      12.197   5.539   1.976  0.00  0.00    +0.085 C 
ENDROOT
BRANCH   6  11
ATOM      1  O   UNL     1       9.767   6.162   5.302  0.00  0.00    -0.439 OA
ATOM      5  N   UNL     1      10.069   3.939   5.627  0.00  0.00    -0.213 NA
ATOM     11  C   UNL     1      10.032   4.937   4.769  0.00  0.00    +0.201 A 
ATOM     13  C   UNL     1       9.621   5.908   6.635  0.00  0.00    +0.169 A 
ATOM     14  C   UNL     1       9.807   4.547   6.830  0.00  0.00    +0.110 A 
ATOM     17  C   UNL     1       9.338   6.820   7.645  0.00  0.00    +0.103 A 
ATOM     18  C   UNL     1       9.706   4.029   8.129  0.00  0.00    +0.031 A 
ATOM     23  C   UNL     1       9.242   6.287   8.934  0.00  0.00    +0.019 A 
ATOM     24  C   UNL     1       9.422   4.919   9.174  0.00  0.00    +0.003 A 
BRANCH  17  25
ATOM      3  O   UNL     1       8.306   8.703   6.606  0.00  0.00    -0.245 OA
ATOM     25  C   UNL     1       9.153   8.234   7.382  0.00  0.00    +0.343 C 
BRANCH  25   2
ATOM      2  O   UNL     1      10.034   9.002   8.098  0.00  0.00    -0.464 OA
ATOM     26  C   UNL     1       9.602  10.319   8.461  0.00  0.00    +0.280 C 
ENDBRANCH  25   2
ENDBRANCH  17  25
ENDBRANCH   6  11
BRANCH   4  10
ATOM     10  C   UNL     1      12.855   3.335   1.208  0.00  0.00    +0.119 C 
BRANCH  10  12
ATOM     12  C   UNL     1      13.262   3.596  -0.218  0.00  0.00    -0.030 A 
ATOM     15  C   UNL     1      14.526   4.102  -0.521  0.00  0.00    -0.046 A 
ATOM     16  C   UNL     1      12.355   3.325  -1.242  0.00  0.00    +0.005 A 
ATOM     19  C   UNL     1      14.883   4.337  -1.849  0.00  0.00    +0.003 A 
ATOM     20  C   UNL     1      15.515   4.401   0.557  0.00  0.00    +0.044 C 
ATOM     21  C   UNL     1      12.712   3.559  -2.570  0.00  0.00    +0.000 A 
ATOM     22  C   UNL     1      13.976   4.065  -2.874  0.00  0.00    +0.000 A 
ENDBRANCH  10  12
ENDBRANCH   4  10
TORSDOF 5
ENDMDL
MODEL 5
REMARK VINA RESULT:      -6.8     14.038     15.540
REMARK  Name = 45784358
REMARK  7 active torsions:
REMARK  status: ('A' for Active; 'I' for Inactive)
REMARK    1  A    between atoms: O_2  and  C_25
REMARK    2  A    between atoms: O_2  and  C_26
REMARK    3  A    between atoms: N_4  and  C_10
REMARK    4  A    between atoms: C_6  and  C_11
REMARK    5  A    between atoms: C_10  and  C_12
REMARK    6  A    between atoms: C_15  and  C_20
REMARK    7  A    between atoms: C_17  and  C_25
REMARK                            x       y       z     vdW  Elec       q    Type
REMARK                         _______ _______ _______ _____ _____    ______ ____
ROOT
ATOM      4  N   UNL     1      16.459   8.028   4.974  0.00  0.00    -0.297 NA
ATOM      6  C   UNL     1      14.387   7.166   5.654  0.00  0.00    +0.090 C 
ATOM      7  C   UNL     1      14.480   7.135   4.118  0.00  0.00    +0.029 C 
ATOM      8  C   UNL     1      15.515   8.109   6.091  0.00  0.00    +0.097 C 
ATOM      9  C   UNL     1      15.626   8.076   3.773  0.00  0.00    +0.085 C 
ENDROOT
BRANCH   6  11
ATOM      1  O   UNL     1      12.297   6.571   6.758  0.00  0.00    -0.439 OA
ATOM      5  N   UNL     1      12.481   8.761   6.206  0.00  0.00    -0.213 NA
ATOM     11  C   UNL     1      13.037   7.569   6.200  0.00  0.00    +0.201 A 
ATOM     13  C   UNL     1      11.155   7.202   7.159  0.00  0.00    +0.169 A 
ATOM     14  C   UNL     1      11.272   8.543   6.819  0.00  0.00    +0.110 A 
ATOM     17  C   UNL     1      10.055   6.640   7.794  0.00  0.00    +0.103 A 
ATOM     18  C   UNL     1      10.218   9.414   7.129  0.00  0.00    +0.031 A 
ATOM     23  C   UNL     1       9.013   7.522   8.095  0.00  0.00    +0.019 A 
ATOM     24  C   UNL     1       9.090   8.882   7.770  0.00  0.00    +0.003 A 
BRANCH  17  25
ATOM      3  O   UNL     1       9.796   4.320   7.304  0.00  0.00    -0.245 OA
ATOM     25  C   UNL     1       9.989   5.231   8.125  0.00  0.00    +0.343 C 
BRANCH  25   2
ATOM      2  O   UNL     1      10.166   5.016   9.467  0.00  0.00    -0.464 OA
ATOM     26  C   UNL     1       9.044   4.505  10.198  0.00  0.00    +0.280 C 
ENDBRANCH  25   2
ENDBRANCH  17  25
ENDBRANCH   6  11
BRANCH   4  10
ATOM     10  C   UNL     1      17.448   9.096   5.005  0.00  0.00    +0.119 C 
BRANCH  10  12
ATOM     12  C   UNL     1      18.832   8.570   5.277  0.00  0.00    -0.030 A 
ATOM     15  C   UNL     1      19.636   8.094   4.241  0.00  0.00    -0.046 A 
ATOM     16  C   UNL     1      19.309   8.565   6.588  0.00  0.00    +0.005 A 
ATOM     19  C   UNL     1      20.915   7.611   4.517  0.00  0.00    +0.003 A 
ATOM     20  C   UNL     1      19.148   8.089   2.830  0.00  0.00    +0.044 C 
ATOM     21  C   UNL     1      20.589   8.083   6.864  0.00  0.00    +0.000 A 
ATOM     22  C   UNL     1      21.392   7.606   5.828  0.00  0.00    +0.000 A 
ENDBRANCH  10  12
ENDBRANCH   4  10
TORSDOF 5
ENDMDL
MODEL 6
REMARK VINA RESULT:      -6.7     26.332     29.620
REMARK  Name = 45784358
REMARK  7 active torsions:
REMARK  status: ('A' for Active; 'I' for Inactive)
REMARK    1  A    between atoms: O_2  and  C_25
REMARK    2  A    between atoms: O_2  and  C_26
REMARK    3  A    between atoms: N_4  and  C_10
REMARK    4  A    between atoms: C_6  and  C_11
REMARK    5  A    between atoms: C_10  and  C_12
REMARK    6  A    between atoms: C_15  and  C_20
REMARK    7  A    between atoms: C_17  and  C_25
REMARK                            x       y       z     vdW  Elec       q    Type
REMARK                         _______ _______ _______ _____ _____    ______ ____
ROOT
ATOM      4  N   UNL     1      -4.641 -11.606  17.453  0.00  0.00    -0.297 NA
ATOM      6  C   UNL     1      -6.319 -10.624  18.765  0.00  0.00    +0.090 C 
ATOM      7  C   UNL     1      -5.669 -11.782  19.542  0.00  0.00    +0.029 C 
ATOM      8  C   UNL     1      -5.881 -10.840  17.310  0.00  0.00    +0.097 C 
ATOM      9  C   UNL     1      -4.929 -12.598  18.491  0.00  0.00    +0.085 C 
ENDROOT
BRANCH   6  11
ATOM      1  O   UNL     1      -8.460  -9.744  18.002  0.00  0.00    -0.439 OA
ATOM      5  N   UNL     1      -8.587 -11.082  19.826  0.00  0.00    -0.213 NA
ATOM     11  C   UNL     1      -7.818 -10.520  18.919  0.00  0.00    +0.201 A 
ATOM     13  C   UNL     1      -9.772  -9.828  18.371  0.00  0.00    +0.169 A 
ATOM     14  C   UNL     1      -9.845 -10.648  19.488  0.00  0.00    +0.110 A 
ATOM     17  C   UNL     1     -10.862  -9.217  17.764  0.00  0.00    +0.103 A 
ATOM     18  C   UNL     1     -11.100 -10.896  20.064  0.00  0.00    +0.031 A 
ATOM     23  C   UNL     1     -12.105  -9.475  18.351  0.00  0.00    +0.019 A 
ATOM     24  C   UNL     1     -12.224 -10.297  19.479  0.00  0.00    +0.003 A 
BRANCH  17  25
ATOM      3  O   UNL     1     -10.739  -8.774  15.424  0.00  0.00    -0.245 OA
ATOM     25  C   UNL     1     -10.725  -8.369  16.596  0.00  0.00    +0.343 C 
BRANCH  25   2
ATOM      2  O   UNL     1     -10.575  -7.051  16.942  0.00  0.00    -0.464 OA
ATOM     26  C   UNL     1     -11.373  -6.098  16.230  0.00  0.00    +0.280 C 
ENDBRANCH  25   2
ENDBRANCH  17  25
ENDBRANCH   6  11
BRANCH   4  10
ATOM     10  C   UNL     1      -4.220 -12.220  16.203  0.00  0.00    +0.119 C 
BRANCH  10  12
ATOM     12  C   UNL     1      -3.188 -11.388  15.489  0.00  0.00    -0.030 A 
ATOM     15  C   UNL     1      -3.275 -11.161  14.116  0.00  0.00    -0.046 A 
ATOM     16  C   UNL     1      -2.135 -10.842  16.222  0.00  0.00    +0.005 A 
ATOM     19  C   UNL     1      -2.307 -10.386  13.475  0.00  0.00    +0.003 A 
ATOM     20  C   UNL     1      -4.393 -11.735  13.309  0.00  0.00    +0.044 C 
ATOM     21  C   UNL     1      -1.167 -10.067  15.582  0.00  0.00    +0.000 A 
ATOM     22  C   UNL     1      -1.253  -9.839  14.208  0.00  0.00    +0.000 A 
ENDBRANCH  10  12
ENDBRANCH   4  10
TORSDOF 5
ENDMDL
MODEL 7
REMARK VINA RESULT:      -6.4     27.908     29.988
REMARK  Name = 45784358
REMARK  7 active torsions:
REMARK  status: ('A' for Active; 'I' for Inactive)
REMARK    1  A    between atoms: O_2  and  C_25
REMARK    2  A    between atoms: O_2  and  C_26
REMARK    3  A    between atoms: N_4  and  C_10
REMARK    4  A    between atoms: C_6  and  C_11
REMARK    5  A    between atoms: C_10  and  C_12
REMARK    6  A    between atoms: C_15  and  C_20
REMARK    7  A    between atoms: C_17  and  C_25
REMARK                            x       y       z     vdW  Elec       q    Type
REMARK                         _______ _______ _______ _____ _____    ______ ____
ROOT
ATOM      4  N   UNL     1      -4.850 -10.416  14.371  0.00  0.00    -0.297 NA
ATOM      6  C   UNL     1      -6.096  -9.481  16.124  0.00  0.00    +0.090 C 
ATOM      7  C   UNL     1      -4.888 -10.243  16.699  0.00  0.00    +0.029 C 
ATOM      8  C   UNL     1      -6.213  -9.976  14.676  0.00  0.00    +0.097 C 
ATOM      9  C   UNL     1      -4.412 -11.141  15.564  0.00  0.00    +0.085 C 
ENDROOT
BRANCH   6  11
ATOM      1  O   UNL     1      -7.412 -10.677  17.790  0.00  0.00    -0.439 OA
ATOM      5  N   UNL     1      -8.468  -8.907  16.848  0.00  0.00    -0.213 NA
ATOM     11  C   UNL     1      -7.377  -9.640  16.907  0.00  0.00    +0.201 A 
ATOM     13  C   UNL     1      -8.656 -10.586  18.345  0.00  0.00    +0.169 A 
ATOM     14  C   UNL     1      -9.299  -9.500  17.766  0.00  0.00    +0.110 A 
ATOM     17  C   UNL     1      -9.212 -11.410  19.315  0.00  0.00    +0.103 A 
ATOM     18  C   UNL     1     -10.605  -9.192  18.173  0.00  0.00    +0.031 A 
ATOM     23  C   UNL     1     -10.515 -11.088  19.709  0.00  0.00    +0.019 A 
ATOM     24  C   UNL     1     -11.200 -10.001  19.150  0.00  0.00    +0.003 A 
BRANCH  17  25
ATOM      3  O   UNL     1      -7.349 -12.466  20.364  0.00  0.00    -0.245 OA
ATOM     25  C   UNL     1      -8.492 -12.530  19.886  0.00  0.00    +0.343 C 
BRANCH  25   2
ATOM      2  O   UNL     1      -9.228 -13.686  19.835  0.00  0.00    -0.464 OA
ATOM     26  C   UNL     1      -9.229 -14.509  21.007  0.00  0.00    +0.280 C 
ENDBRANCH  25   2
ENDBRANCH  17  25
ENDBRANCH   6  11
BRANCH   4  10
ATOM     10  C   UNL     1      -4.788 -11.238  13.171  0.00  0.00    +0.119 C 
BRANCH  10  12
ATOM     12  C   UNL     1      -4.424 -10.429  11.955  0.00  0.00    -0.030 A 
ATOM     15  C   UNL     1      -3.091 -10.261  11.577  0.00  0.00    -0.046 A 
ATOM     16  C   UNL     1      -5.441  -9.843  11.202  0.00  0.00    +0.005 A 
ATOM     19  C   UNL     1      -2.777  -9.507  10.447  0.00  0.00    +0.003 A 
ATOM     20  C   UNL     1      -1.985 -10.879  12.367  0.00  0.00    +0.044 C 
ATOM     21  C   UNL     1      -5.127  -9.089  10.071  0.00  0.00    +0.000 A 
ATOM     22  C   UNL     1      -3.795  -8.921   9.693  0.00  0.00    +0.000 A 
ENDBRANCH  10  12
ENDBRANCH   4  10
TORSDOF 5
ENDMDL
MODEL 8
REMARK VINA RESULT:      -6.3      2.010      2.905
REMARK  Name = 45784358
REMARK  7 active torsions:
REMARK  status: ('A' for Active; 'I' for Inactive)
REMARK    1  A    between atoms: O_2  and  C_25
REMARK    2  A    between atoms: O_2  and  C_26
REMARK    3  A    between atoms: N_4  and  C_10
REMARK    4  A    between atoms: C_6  and  C_11
REMARK    5  A    between atoms: C_10  and  C_12
REMARK    6  A    between atoms: C_15  and  C_20
REMARK    7  A    between atoms: C_17  and  C_25
REMARK                            x       y       z     vdW  Elec       q    Type
REMARK                         _______ _______ _______ _____ _____    ______ ____
ROOT
ATOM      4  N   UNL     1      18.343   7.104  21.463  0.00  0.00    -0.297 NA
ATOM      6  C   UNL     1      16.241   6.524  20.600  0.00  0.00    +0.090 C 
ATOM      7  C   UNL     1      17.346   5.900  19.729  0.00  0.00    +0.029 C 
ATOM      8  C   UNL     1      16.962   7.590  21.435  0.00  0.00    +0.097 C 
ATOM      9  C   UNL     1      18.614   6.660  20.095  0.00  0.00    +0.085 C 
ENDROOT
BRANCH   6  11
ATOM      1  O   UNL     1      13.897   7.187  20.526  0.00  0.00    -0.439 OA
ATOM      5  N   UNL     1      15.016   7.461  18.575  0.00  0.00    -0.213 NA
ATOM     11  C   UNL     1      15.063   7.075  19.831  0.00  0.00    +0.201 A 
ATOM     13  C   UNL     1      13.024   7.699  19.610  0.00  0.00    +0.169 A 
ATOM     14  C   UNL     1      13.714   7.866  18.416  0.00  0.00    +0.110 A 
ATOM     17  C   UNL     1      11.684   8.010  19.799  0.00  0.00    +0.103 A 
ATOM     18  C   UNL     1      13.030   8.384  17.307  0.00  0.00    +0.031 A 
ATOM     23  C   UNL     1      11.017   8.526  18.683  0.00  0.00    +0.019 A 
ATOM     24  C   UNL     1      11.675   8.709  17.460  0.00  0.00    +0.003 A 
BRANCH  17  25
ATOM      3  O   UNL     1      10.810   6.711  21.599  0.00  0.00    -0.245 OA
ATOM     25  C   UNL     1      11.016   7.815  21.070  0.00  0.00    +0.343 C 
BRANCH  25   2
ATOM      2  O   UNL     1      10.632   9.007  21.630  0.00  0.00    -0.464 OA
ATOM     26  C   UNL     1      11.558   9.633  22.525  0.00  0.00    +0.280 C 
ENDBRANCH  25   2
ENDBRANCH  17  25
ENDBRANCH   6  11
BRANCH   4  10
ATOM     10  C   UNL     1      19.282   8.123  21.910  0.00  0.00    +0.119 C 
BRANCH  10  12
ATOM     12  C   UNL     1      20.622   7.535  22.263  0.00  0.00    -0.030 A 
ATOM     15  C   UNL     1      21.792   8.005  21.666  0.00  0.00    -0.046 A 
ATOM     16  C   UNL     1      20.683   6.505  23.202  0.00  0.00    +0.005 A 
ATOM     19  C   UNL     1      23.023   7.445  22.009  0.00  0.00    +0.003 A 
ATOM     20  C   UNL     1      21.753   9.106  20.658  0.00  0.00    +0.044 C 
ATOM     21  C   UNL     1      21.914   5.945  23.545  0.00  0.00    +0.000 A 
ATOM     22  C   UNL     1      23.084   6.415  22.948  0.00  0.00    +0.000 A 
ENDBRANCH  10  12
ENDBRANCH   4  10
TORSDOF 5
ENDMDL
MODEL 9
REMARK VINA RESULT:      -6.3     19.124     21.476
REMARK  Name = 45784358
REMARK  7 active torsions:
REMARK  status: ('A' for Active; 'I' for Inactive)
REMARK    1  A    between atoms: O_2  and  C_25
REMARK    2  A    between atoms: O_2  and  C_26
REMARK    3  A    between atoms: N_4  and  C_10
REMARK    4  A    between atoms: C_6  and  C_11
REMARK    5  A    between atoms: C_10  and  C_12
REMARK    6  A    between atoms: C_15  and  C_20
REMARK    7  A    between atoms: C_17  and  C_25
REMARK                            x       y       z     vdW  Elec       q    Type
REMARK                         _______ _______ _______ _____ _____    ______ ____
ROOT
ATOM      4  N   UNL     1      10.726   5.550   4.178  0.00  0.00    -0.297 NA
ATOM      6  C   UNL     1      12.011   4.589   2.467  0.00  0.00    +0.090 C 
ATOM      7  C   UNL     1      12.445   6.050   2.679  0.00  0.00    +0.029 C 
ATOM      8  C   UNL     1      10.657   4.479   3.181  0.00  0.00    +0.097 C 
ATOM      9  C   UNL     1      11.309   6.689   3.468  0.00  0.00    +0.085 C 
ENDROOT
BRANCH   6  11
ATOM      1  O   UNL     1      11.028   4.771   0.245  0.00  0.00    -0.439 OA
ATOM      5  N   UNL     1      12.685   3.235   0.420  0.00  0.00    -0.213 NA
ATOM     11  C   UNL     1      11.955   4.147   1.024  0.00  0.00    +0.201 A 
ATOM     13  C   UNL     1      11.194   4.191  -0.979  0.00  0.00    +0.169 A 
ATOM     14  C   UNL     1      12.209   3.251  -0.868  0.00  0.00    +0.110 A 
ATOM     17  C   UNL     1      10.493   4.465  -2.148  0.00  0.00    +0.103 A 
ATOM     18  C   UNL     1      12.574   2.511  -2.003  0.00  0.00    +0.031 A 
ATOM     23  C   UNL     1      10.869   3.718  -3.269  0.00  0.00    +0.019 A 
ATOM     24  C   UNL     1      11.888   2.760  -3.200  0.00  0.00    +0.003 A 
BRANCH  17  25
ATOM      3  O   UNL     1       9.365   6.450  -1.461  0.00  0.00    -0.245 OA
ATOM     25  C   UNL     1       9.441   5.460  -2.205  0.00  0.00    +0.343 C 
BRANCH  25   2
ATOM      2  O   UNL     1       8.528   5.176  -3.187  0.00  0.00    -0.464 OA
ATOM     26  C   UNL     1       7.591   6.207  -3.520  0.00  0.00    +0.280 C 
ENDBRANCH  25   2
ENDBRANCH  17  25
ENDBRANCH   6  11
BRANCH   4  10
ATOM     10  C   UNL     1       9.424   5.861   4.749  0.00  0.00    +0.119 C 
BRANCH  10  12
ATOM     12  C   UNL     1       9.417   5.708   6.246  0.00  0.00    -0.030 A 
ATOM     15  C   UNL     1       9.042   6.765   7.075  0.00  0.00    -0.046 A 
ATOM     16  C   UNL     1       9.793   4.485   6.803  0.00  0.00    +0.005 A 
ATOM     19  C   UNL     1       9.042   6.600   8.460  0.00  0.00    +0.003 A 
ATOM     20  C   UNL     1       8.635   8.083   6.503  0.00  0.00    +0.044 C 
ATOM     21  C   UNL     1       9.794   4.319   8.188  0.00  0.00    +0.000 A 
ATOM     22  C   UNL     1       9.418   5.377   9.017  0.00  0.00    +0.000 A 
ENDBRANCH  10  12
ENDBRANCH   4  10
TORSDOF 5
ENDMDL
MODEL 10
REMARK VINA RESULT:      -6.2     25.121     27.921
REMARK  Name = 45784358
REMARK  7 active torsions:
REMARK  status: ('A' for Active; 'I' for Inactive)
REMARK    1  A    between atoms: O_2  and  C_25
REMARK    2  A    between atoms: O_2  and  C_26
REMARK    3  A    between atoms: N_4  and  C_10
REMARK    4  A    between atoms: C_6  and  C_11
REMARK    5  A    between atoms: C_10  and  C_12
REMARK    6  A    between atoms: C_15  and  C_20
REMARK    7  A    between atoms: C_17  and  C_25
REMARK                            x       y       z     vdW  Elec       q    Type
REMARK                         _______ _______ _______ _____ _____    ______ ____
ROOT
ATOM      4  N   UNL     1      -9.697  10.982  16.694  0.00  0.00    -0.297 NA
ATOM      6  C   UNL     1     -10.131   9.290  18.260  0.00  0.00    +0.090 C 
ATOM      7  C   UNL     1     -10.325   8.738  16.837  0.00  0.00    +0.029 C 
ATOM      8  C   UNL     1     -10.122  10.815  18.086  0.00  0.00    +0.097 C 
ATOM      9  C   UNL     1     -10.444   9.968  15.948  0.00  0.00    +0.085 C 
ENDROOT
BRANCH   6  11
ATOM      1  O   UNL     1     -11.661   9.774  20.094  0.00  0.00    -0.439 OA
ATOM      5  N   UNL     1     -11.614   7.601  19.454  0.00  0.00    -0.213 NA
ATOM     11  C   UNL     1     -11.151   8.818  19.268  0.00  0.00    +0.201 A 
ATOM     13  C   UNL     1     -12.537   9.085  20.882  0.00  0.00    +0.169 A 
ATOM     14  C   UNL     1     -12.506   7.755  20.487  0.00  0.00    +0.110 A 
ATOM     17  C   UNL     1     -13.333   9.589  21.903  0.00  0.00    +0.103 A 
ATOM     18  C   UNL     1     -13.328   6.833  21.149  0.00  0.00    +0.031 A 
ATOM     23  C   UNL     1     -14.146   8.655  22.554  0.00  0.00    +0.019 A 
ATOM     24  C   UNL     1     -14.146   7.304  22.187  0.00  0.00    +0.003 A 
BRANCH  17  25
ATOM      3  O   UNL     1     -14.267  11.775  22.087  0.00  0.00    -0.245 OA
ATOM     25  C   UNL     1     -13.324  10.990  22.273  0.00  0.00    +0.343 C 
BRANCH  25   2
ATOM      2  O   UNL     1     -12.140  11.353  22.859  0.00  0.00    -0.464 OA
ATOM     26  C   UNL     1     -12.048  11.214  24.282  0.00  0.00    +0.280 C 
ENDBRANCH  25   2
ENDBRANCH  17  25
ENDBRANCH   6  11
BRANCH   4  10
ATOM     10  C   UNL     1      -9.941  12.328  16.196  0.00  0.00    +0.119 C 
BRANCH  10  12
ATOM     12  C   UNL     1      -8.864  13.288  16.624  0.00  0.00    -0.030 A 
ATOM     15  C   UNL     1      -9.158  14.381  17.439  0.00  0.00    -0.046 A 
ATOM     16  C   UNL     1      -7.554  13.072  16.193  0.00  0.00    +0.005 A 
ATOM     19  C   UNL     1      -8.143  15.257  17.823  0.00  0.00    +0.003 A 
ATOM     20  C   UNL     1     -10.551  14.633  17.913  0.00  0.00    +0.044 C 
ATOM     21  C   UNL     1      -6.539  13.948  16.578  0.00  0.00    +0.000 A 
ATOM     22  C   UNL     1      -6.834  15.041  17.393  0.00  0.00    +0.000 A 
ENDBRANCH  10  12
ENDBRANCH   4  10
TORSDOF 5
ENDMDL
