MODEL 1
REMARK VINA RESULT:      -7.5      0.000      0.000
REMARK  Name = 11886192
REMARK  6 active torsions:
REMARK  status: ('A' for Active; 'I' for Inactive)
REMARK    1  A    between atoms: O_3  and  C_17
REMARK    2  A    between atoms: O_3  and  C_20
REMARK    3  A    between atoms: N_5  and  C_13
REMARK    4  A    between atoms: N_6  and  C_14
REMARK    5  A    between atoms: N_9  and  C_19
REMARK    6  A    between atoms: C_19  and  C_21
REMARK                            x       y       z     vdW  Elec       q    Type
REMARK                         _______ _______ _______ _____ _____    ______ ____
ROOT
ATOM      1  O   UNL     1      -5.461 -10.647  17.859  0.00  0.00    -0.370 OA
ATOM      2  O   UNL     1      -7.016 -11.402  15.232  0.00  0.00    -0.370 OA
ATOM     11  C   UNL     1      -5.843 -10.616  15.505  0.00  0.00    +0.176 C 
ATOM     12  C   UNL     1      -6.087  -9.887  16.813  0.00  0.00    +0.171 C 
ATOM     13  C   UNL     1      -4.664 -11.528  15.787  0.00  0.00    +0.171 C 
ATOM     14  C   UNL     1      -7.589  -9.908  16.978  0.00  0.00    +0.131 C 
ATOM     15  C   UNL     1      -4.765 -11.765  17.290  0.00  0.00    +0.190 C 
ATOM     16  C   UNL     1      -7.973 -11.200  16.281  0.00  0.00    +0.185 C 
ENDROOT
BRANCH  14   6
ATOM      4  O   UNL     1     -10.017  -8.564  17.773  0.00  0.00    -0.253 OA
ATOM      6  N   UNL     1      -8.201  -8.768  16.339  0.00  0.00    -0.292 N 
ATOM      9  N   UNL     1      -9.747  -7.099  15.993  0.00  0.00    -0.295 N 
ATOM     18  C   UNL     1      -9.381  -8.180  16.792  0.00  0.00    +0.300 C 
ATOM     32  H   UNL     1      -7.717  -8.333  15.560  0.00  0.00    +0.151 HD
ATOM     33  H   UNL     1      -9.147  -6.839  15.216  0.00  0.00    +0.151 HD
BRANCH   9  19
ATOM     19  C   UNL     1     -10.930  -6.310  16.240  0.00  0.00    +0.141 C 
BRANCH  19  21
ATOM     21  C   UNL     1     -11.936  -6.443  15.133  0.00  0.00    -0.030 A 
ATOM     24  C   UNL     1     -12.034  -5.444  14.171  0.00  0.00    +0.005 A 
ATOM     25  C   UNL     1     -12.759  -7.562  15.081  0.00  0.00    +0.005 A 
ATOM     28  C   UNL     1     -12.968  -5.567  13.142  0.00  0.00    +0.000 A 
ATOM     29  C   UNL     1     -13.692  -7.685  14.052  0.00  0.00    +0.000 A 
ATOM     31  C   UNL     1     -13.796  -6.687  13.082  0.00  0.00    +0.000 A 
ENDBRANCH  19  21
ENDBRANCH   9  19
ENDBRANCH  14   6
BRANCH  13   5
ATOM      5  N   UNL     1      -3.392 -10.959  15.333  0.00  0.00    -0.187 N 
ATOM      7  N   UNL     1      -2.502 -10.483  16.208  0.00  0.00    -0.041 NA
ATOM      8  N   UNL     1      -1.744 -10.260  14.123  0.00  0.00    -0.071 NA
ATOM     10  N   UNL     1      -1.491 -10.056  15.461  0.00  0.00    -0.020 NA
ATOM     17  C   UNL     1      -2.929 -10.822  14.068  0.00  0.00    +0.342 A 
BRANCH  17   3
ATOM      3  O   UNL     1      -3.575 -11.195  12.980  0.00  0.00    -0.423 OA
BRANCH   3  20
ATOM     20  C   UNL     1      -3.924 -10.303  11.975  0.00  0.00    +0.132 A 
ATOM     22  C   UNL     1      -5.152  -9.672  12.036  0.00  0.00    +0.046 A 
ATOM     23  C   UNL     1      -3.035 -10.074  10.943  0.00  0.00    +0.046 A 
ATOM     26  C   UNL     1      -5.504  -8.776  11.027  0.00  0.00    +0.004 A 
ATOM     27  C   UNL     1      -3.387  -9.178   9.933  0.00  0.00    +0.004 A 
ATOM     30  C   UNL     1      -4.621  -8.529   9.975  0.00  0.00    +0.000 A 
ENDBRANCH   3  20
ENDBRANCH  17   3
ENDBRANCH  13   5
TORSDOF 6
ENDMDL
MODEL 2
REMARK VINA RESULT:      -7.1     18.108     21.417
REMARK  Name = 11886192
REMARK  6 active torsions:
REMARK  status: ('A' for Active; 'I' for Inactive)
REMARK    1  A    between atoms: O_3  and  C_17
REMARK    2  A    between atoms: O_3  and  C_20
REMARK    3  A    between atoms: N_5  and  C_13
REMARK    4  A    between atoms: N_6  and  C_14
REMARK    5  A    between atoms: N_9  and  C_19
REMARK    6  A    between atoms: C_19  and  C_21
REMARK                            x       y       z     vdW  Elec       q    Type
REMARK                         _______ _______ _______ _____ _____    ______ ____
ROOT
ATOM      1  O   UNL     1     -17.028   3.900  28.595  0.00  0.00    -0.370 OA
ATOM      2  O   UNL     1     -16.996   1.645  26.403  0.00  0.00    -0.370 OA
ATOM     11  C   UNL     1     -16.133   1.977  27.505  0.00  0.00    +0.176 C 
ATOM     12  C   UNL     1     -16.083   3.490  27.594  0.00  0.00    +0.171 C 
ATOM     13  C   UNL     1     -16.767   1.536  28.810  0.00  0.00    +0.171 C 
ATOM     14  C   UNL     1     -16.530   3.960  26.228  0.00  0.00    +0.131 C 
ATOM     15  C   UNL     1     -17.613   2.741  29.205  0.00  0.00    +0.190 C 
ATOM     16  C   UNL     1     -17.477   2.853  25.800  0.00  0.00    +0.185 C 
ENDROOT
BRANCH  14   6
ATOM      4  O   UNL     1     -16.631   4.565  23.408  0.00  0.00    -0.253 OA
ATOM      6  N   UNL     1     -15.413   4.072  25.322  0.00  0.00    -0.292 N 
ATOM      9  N   UNL     1     -14.317   4.415  23.328  0.00  0.00    -0.295 N 
ATOM     18  C   UNL     1     -15.553   4.368  23.967  0.00  0.00    +0.300 C 
ATOM     32  H   UNL     1     -14.473   3.994  25.701  0.00  0.00    +0.151 HD
ATOM     33  H   UNL     1     -13.476   4.263  23.877  0.00  0.00    +0.151 HD
BRANCH   9  19
ATOM     19  C   UNL     1     -14.175   4.703  21.920  0.00  0.00    +0.141 C 
BRANCH  19  21
ATOM     21  C   UNL     1     -13.608   6.073  21.681  0.00  0.00    -0.030 A 
ATOM     24  C   UNL     1     -12.348   6.204  21.109  0.00  0.00    +0.005 A 
ATOM     25  C   UNL     1     -14.348   7.196  22.034  0.00  0.00    +0.005 A 
ATOM     28  C   UNL     1     -11.821   7.477  20.886  0.00  0.00    +0.000 A 
ATOM     29  C   UNL     1     -13.821   8.467  21.812  0.00  0.00    +0.000 A 
ATOM     31  C   UNL     1     -12.557   8.608  21.237  0.00  0.00    +0.000 A 
ENDBRANCH  19  21
ENDBRANCH   9  19
ENDBRANCH  14   6
BRANCH  13   5
ATOM      5  N   UNL     1     -15.775   1.121  29.806  0.00  0.00    -0.187 N 
ATOM      7  N   UNL     1     -15.506  -0.171  30.009  0.00  0.00    -0.041 NA
ATOM      8  N   UNL     1     -14.267   1.106  31.353  0.00  0.00    -0.071 NA
ATOM     10  N   UNL     1     -14.579  -0.177  30.959  0.00  0.00    -0.020 NA
ATOM     17  C   UNL     1     -15.021   1.894  30.623  0.00  0.00    +0.342 A 
BRANCH  17   3
ATOM      3  O   UNL     1     -15.055   3.212  30.664  0.00  0.00    -0.423 OA
BRANCH   3  20
ATOM     20  C   UNL     1     -15.182   3.920  31.851  0.00  0.00    +0.132 A 
ATOM     22  C   UNL     1     -16.412   3.958  32.481  0.00  0.00    +0.046 A 
ATOM     23  C   UNL     1     -14.077   4.568  32.368  0.00  0.00    +0.046 A 
ATOM     26  C   UNL     1     -16.541   4.670  33.673  0.00  0.00    +0.004 A 
ATOM     27  C   UNL     1     -14.206   5.280  33.560  0.00  0.00    +0.004 A 
ATOM     30  C   UNL     1     -15.437   5.331  34.213  0.00  0.00    +0.000 A 
ENDBRANCH   3  20
ENDBRANCH  17   3
ENDBRANCH  13   5
TORSDOF 6
ENDMDL
MODEL 3
REMARK VINA RESULT:      -7.1     18.453     19.941
REMARK  Name = 11886192
REMARK  6 active torsions:
REMARK  status: ('A' for Active; 'I' for Inactive)
REMARK    1  A    between atoms: O_3  and  C_17
REMARK    2  A    between atoms: O_3  and  C_20
REMARK    3  A    between atoms: N_5  and  C_13
REMARK    4  A    between atoms: N_6  and  C_14
REMARK    5  A    between atoms: N_9  and  C_19
REMARK    6  A    between atoms: C_19  and  C_21
REMARK                            x       y       z     vdW  Elec       q    Type
REMARK                         _______ _______ _______ _____ _____    ______ ____
ROOT
ATOM      1  O   UNL     1     -13.519   5.135  22.363  0.00  0.00    -0.370 OA
ATOM      2  O   UNL     1     -16.599   5.742  22.558  0.00  0.00    -0.370 OA
ATOM     11  C   UNL     1     -15.413   6.477  22.909  0.00  0.00    +0.176 C 
ATOM     12  C   UNL     1     -14.406   5.476  23.441  0.00  0.00    +0.171 C 
ATOM     13  C   UNL     1     -14.768   7.044  21.658  0.00  0.00    +0.171 C 
ATOM     14  C   UNL     1     -15.241   4.277  23.831  0.00  0.00    +0.131 C 
ATOM     15  C   UNL     1     -13.847   5.917  21.206  0.00  0.00    +0.190 C 
ATOM     16  C   UNL     1     -16.394   4.352  22.846  0.00  0.00    +0.185 C 
ENDROOT
BRANCH  14   6
ATOM      4  O   UNL     1     -16.199   2.140  25.517  0.00  0.00    -0.253 OA
ATOM      6  N   UNL     1     -15.708   4.386  25.192  0.00  0.00    -0.292 N 
ATOM      9  N   UNL     1     -16.547   3.683  27.215  0.00  0.00    -0.295 N 
ATOM     18  C   UNL     1     -16.156   3.296  25.936  0.00  0.00    +0.300 C 
ATOM     32  H   UNL     1     -15.648   5.290  25.652  0.00  0.00    +0.151 HD
ATOM     33  H   UNL     1     -16.454   4.659  27.482  0.00  0.00    +0.151 HD
BRANCH   9  19
ATOM     19  C   UNL     1     -17.052   2.749  28.194  0.00  0.00    +0.141 C 
BRANCH  19  21
ATOM     21  C   UNL     1     -15.958   2.201  29.065  0.00  0.00    -0.030 A 
ATOM     24  C   UNL     1     -14.932   3.038  29.489  0.00  0.00    +0.005 A 
ATOM     25  C   UNL     1     -15.982   0.862  29.438  0.00  0.00    +0.005 A 
ATOM     28  C   UNL     1     -13.916   2.529  30.298  0.00  0.00    +0.000 A 
ATOM     29  C   UNL     1     -14.966   0.353  30.246  0.00  0.00    +0.000 A 
ATOM     31  C   UNL     1     -13.933   1.187  30.676  0.00  0.00    +0.000 A 
ENDBRANCH  19  21
ENDBRANCH   9  19
ENDBRANCH  14   6
BRANCH  13   5
ATOM      5  N   UNL     1     -14.105   8.328  21.901  0.00  0.00    -0.187 N 
ATOM      7  N   UNL     1     -14.744   9.324  22.520  0.00  0.00    -0.041 NA
ATOM      8  N   UNL     1     -12.671   9.943  21.981  0.00  0.00    -0.071 NA
ATOM     10  N   UNL     1     -13.860  10.313  22.568  0.00  0.00    -0.020 NA
ATOM     17  C   UNL     1     -12.846   8.707  21.575  0.00  0.00    +0.342 A 
BRANCH  17   3
ATOM      3  O   UNL     1     -11.963   7.948  20.954  0.00  0.00    -0.423 OA
BRANCH   3  20
ATOM     20  C   UNL     1     -11.401   8.300  19.735  0.00  0.00    +0.132 A 
ATOM     22  C   UNL     1     -11.757   7.592  18.603  0.00  0.00    +0.046 A 
ATOM     23  C   UNL     1     -10.501   9.347  19.689  0.00  0.00    +0.046 A 
ATOM     26  C   UNL     1     -11.191   7.945  17.378  0.00  0.00    +0.004 A 
ATOM     27  C   UNL     1      -9.935   9.699  18.464  0.00  0.00    +0.004 A 
ATOM     30  C   UNL     1     -10.280   8.999  17.308  0.00  0.00    +0.000 A 
ENDBRANCH   3  20
ENDBRANCH  17   3
ENDBRANCH  13   5
TORSDOF 6
ENDMDL
MODEL 4
REMARK VINA RESULT:      -7.1     18.619     21.225
REMARK  Name = 11886192
REMARK  6 active torsions:
REMARK  status: ('A' for Active; 'I' for Inactive)
REMARK    1  A    between atoms: O_3  and  C_17
REMARK    2  A    between atoms: O_3  and  C_20
REMARK    3  A    between atoms: N_5  and  C_13
REMARK    4  A    between atoms: N_6  and  C_14
REMARK    5  A    between atoms: N_9  and  C_19
REMARK    6  A    between atoms: C_19  and  C_21
REMARK                            x       y       z     vdW  Elec       q    Type
REMARK                         _______ _______ _______ _____ _____    ______ ____
ROOT
ATOM      1  O   UNL     1     -15.648   4.388  21.998  0.00  0.00    -0.370 OA
ATOM      2  O   UNL     1     -16.596   6.767  23.822  0.00  0.00    -0.370 OA
ATOM     11  C   UNL     1     -15.317   6.350  23.312  0.00  0.00    +0.176 C 
ATOM     12  C   UNL     1     -15.305   4.834  23.320  0.00  0.00    +0.171 C 
ATOM     13  C   UNL     1     -15.197   6.728  21.848  0.00  0.00    +0.171 C 
ATOM     14  C   UNL     1     -16.395   4.456  24.298  0.00  0.00    +0.131 C 
ATOM     15  C   UNL     1     -15.794   5.522  21.132  0.00  0.00    +0.190 C 
ATOM     16  C   UNL     1     -17.372   5.608  24.153  0.00  0.00    +0.185 C 
ENDROOT
BRANCH  14   6
ATOM      4  O   UNL     1     -16.662   2.238  26.125  0.00  0.00    -0.253 OA
ATOM      6  N   UNL     1     -15.882   4.372  25.644  0.00  0.00    -0.292 N 
ATOM      9  N   UNL     1     -15.464   3.441  27.707  0.00  0.00    -0.295 N 
ATOM     18  C   UNL     1     -16.059   3.256  26.461  0.00  0.00    +0.300 C 
ATOM     32  H   UNL     1     -15.310   5.136  25.992  0.00  0.00    +0.151 HD
ATOM     33  H   UNL     1     -14.966   4.308  27.887  0.00  0.00    +0.151 HD
BRANCH   9  19
ATOM     19  C   UNL     1     -15.497   2.439  28.746  0.00  0.00    +0.141 C 
BRANCH  19  21
ATOM     21  C   UNL     1     -14.893   2.938  30.026  0.00  0.00    -0.030 A 
ATOM     24  C   UNL     1     -13.967   2.150  30.701  0.00  0.00    +0.005 A 
ATOM     25  C   UNL     1     -15.264   4.181  30.525  0.00  0.00    +0.005 A 
ATOM     28  C   UNL     1     -13.405   2.613  31.891  0.00  0.00    +0.000 A 
ATOM     29  C   UNL     1     -14.702   4.644  31.714  0.00  0.00    +0.000 A 
ATOM     31  C   UNL     1     -13.772   3.859  32.398  0.00  0.00    +0.000 A 
ENDBRANCH  19  21
ENDBRANCH   9  19
ENDBRANCH  14   6
BRANCH  13   5
ATOM      5  N   UNL     1     -13.822   7.060  21.464  0.00  0.00    -0.187 N 
ATOM      7  N   UNL     1     -12.979   6.112  21.046  0.00  0.00    -0.041 NA
ATOM      8  N   UNL     1     -11.977   8.104  21.046  0.00  0.00    -0.071 NA
ATOM     10  N   UNL     1     -11.848   6.757  20.789  0.00  0.00    -0.020 NA
ATOM     17  C   UNL     1     -13.211   8.268  21.462  0.00  0.00    +0.342 A 
BRANCH  17   3
ATOM      3  O   UNL     1     -13.776   9.404  21.825  0.00  0.00    -0.423 OA
BRANCH   3  20
ATOM     20  C   UNL     1     -13.412  10.086  22.977  0.00  0.00    +0.132 A 
ATOM     22  C   UNL     1     -12.373  10.995  22.919  0.00  0.00    +0.046 A 
ATOM     23  C   UNL     1     -14.099   9.836  24.149  0.00  0.00    +0.046 A 
ATOM     26  C   UNL     1     -12.006  11.680  24.077  0.00  0.00    +0.004 A 
ATOM     27  C   UNL     1     -13.732  10.521  25.308  0.00  0.00    +0.004 A 
ATOM     30  C   UNL     1     -12.687  11.443  25.272  0.00  0.00    +0.000 A 
ENDBRANCH   3  20
ENDBRANCH  17   3
ENDBRANCH  13   5
TORSDOF 6
ENDMDL
MODEL 5
REMARK VINA RESULT:      -7.1     27.507     30.393
REMARK  Name = 11886192
REMARK  6 active torsions:
REMARK  status: ('A' for Active; 'I' for Inactive)
REMARK    1  A    between atoms: O_3  and  C_17
REMARK    2  A    between atoms: O_3  and  C_20
REMARK    3  A    between atoms: N_5  and  C_13
REMARK    4  A    between atoms: N_6  and  C_14
REMARK    5  A    between atoms: N_9  and  C_19
REMARK    6  A    between atoms: C_19  and  C_21
REMARK                            x       y       z     vdW  Elec       q    Type
REMARK                         _______ _______ _______ _____ _____    ______ ____
ROOT
ATOM      1  O   UNL     1      14.684  10.096  22.751  0.00  0.00    -0.370 OA
ATOM      2  O   UNL     1      15.576   9.814  19.748  0.00  0.00    -0.370 OA
ATOM     11  C   UNL     1      14.765   9.014  20.627  0.00  0.00    +0.176 C 
ATOM     12  C   UNL     1      15.390   9.091  22.006  0.00  0.00    +0.171 C 
ATOM     13  C   UNL     1      13.397   9.650  20.789  0.00  0.00    +0.171 C 
ATOM     14  C   UNL     1      16.813   9.533  21.748  0.00  0.00    +0.131 C 
ATOM     15  C   UNL     1      13.599  10.603  21.962  0.00  0.00    +0.190 C 
ATOM     16  C   UNL     1      16.667  10.373  20.492  0.00  0.00    +0.185 C 
ENDROOT
BRANCH  14   6
ATOM      4  O   UNL     1      19.697   9.547  21.627  0.00  0.00    -0.253 OA
ATOM      6  N   UNL     1      17.679   8.402  21.522  0.00  0.00    -0.292 N 
ATOM      9  N   UNL     1      19.657   7.258  21.247  0.00  0.00    -0.295 N 
ATOM     18  C   UNL     1      19.069   8.499  21.478  0.00  0.00    +0.300 C 
ATOM     32  H   UNL     1      17.261   7.478  21.455  0.00  0.00    +0.151 HD
ATOM     33  H   UNL     1      19.059   6.442  21.160  0.00  0.00    +0.151 HD
BRANCH   9  19
ATOM     19  C   UNL     1      21.086   7.075  21.155  0.00  0.00    +0.141 C 
BRANCH  19  21
ATOM     21  C   UNL     1      21.508   5.708  21.610  0.00  0.00    -0.030 A 
ATOM     24  C   UNL     1      21.239   4.604  20.810  0.00  0.00    +0.005 A 
ATOM     25  C   UNL     1      22.163   5.559  22.828  0.00  0.00    +0.005 A 
ATOM     28  C   UNL     1      21.632   3.333  21.232  0.00  0.00    +0.000 A 
ATOM     29  C   UNL     1      22.555   4.290  23.250  0.00  0.00    +0.000 A 
ATOM     31  C   UNL     1      22.289   3.176  22.452  0.00  0.00    +0.000 A 
ENDBRANCH  19  21
ENDBRANCH   9  19
ENDBRANCH  14   6
BRANCH  13   5
ATOM      5  N   UNL     1      12.334   8.658  20.972  0.00  0.00    -0.187 N 
ATOM      7  N   UNL     1      11.541   8.692  22.046  0.00  0.00    -0.041 NA
ATOM      8  N   UNL     1      10.982   6.992  20.715  0.00  0.00    -0.071 NA
ATOM     10  N   UNL     1      10.712   7.668  21.885  0.00  0.00    -0.020 NA
ATOM     17  C   UNL     1      11.992   7.626  20.166  0.00  0.00    +0.342 A 
BRANCH  17   3
ATOM      3  O   UNL     1      12.586   7.323  19.027  0.00  0.00    -0.423 OA
BRANCH   3  20
ATOM     20  C   UNL     1      12.369   8.037  17.857  0.00  0.00    +0.132 A 
ATOM     22  C   UNL     1      13.457   8.507  17.147  0.00  0.00    +0.046 A 
ATOM     23  C   UNL     1      11.072   8.258  17.437  0.00  0.00    +0.046 A 
ATOM     26  C   UNL     1      13.239   9.226  15.971  0.00  0.00    +0.004 A 
ATOM     27  C   UNL     1      10.854   8.976  16.262  0.00  0.00    +0.004 A 
ATOM     30  C   UNL     1      11.937   9.460  15.528  0.00  0.00    +0.000 A 
ENDBRANCH   3  20
ENDBRANCH  17   3
ENDBRANCH  13   5
TORSDOF 6
ENDMDL
MODEL 6
REMARK VINA RESULT:      -6.9      2.342      7.810
REMARK  Name = 11886192
REMARK  6 active torsions:
REMARK  status: ('A' for Active; 'I' for Inactive)
REMARK    1  A    between atoms: O_3  and  C_17
REMARK    2  A    between atoms: O_3  and  C_20
REMARK    3  A    between atoms: N_5  and  C_13
REMARK    4  A    between atoms: N_6  and  C_14
REMARK    5  A    between atoms: N_9  and  C_19
REMARK    6  A    between atoms: C_19  and  C_21
REMARK                            x       y       z     vdW  Elec       q    Type
REMARK                         _______ _______ _______ _____ _____    ______ ____
ROOT
ATOM      1  O   UNL     1      -4.700 -12.776  18.415  0.00  0.00    -0.370 OA
ATOM      2  O   UNL     1      -4.396 -10.069  16.844  0.00  0.00    -0.370 OA
ATOM     11  C   UNL     1      -5.521 -10.879  17.228  0.00  0.00    +0.176 C 
ATOM     12  C   UNL     1      -5.092 -12.328  17.108  0.00  0.00    +0.171 C 
ATOM     13  C   UNL     1      -5.819 -10.686  18.703  0.00  0.00    +0.171 C 
ATOM     14  C   UNL     1      -3.893 -12.288  16.187  0.00  0.00    +0.131 C 
ATOM     15  C   UNL     1      -4.933 -11.732  19.370  0.00  0.00    +0.190 C 
ATOM     16  C   UNL     1      -3.300 -10.923  16.488  0.00  0.00    +0.185 C 
ENDROOT
BRANCH  14   6
ATOM      4  O   UNL     1      -2.163 -12.340  13.877  0.00  0.00    -0.253 OA
ATOM      6  N   UNL     1      -4.291 -12.392  14.805  0.00  0.00    -0.292 N 
ATOM      9  N   UNL     1      -4.038 -12.516  12.521  0.00  0.00    -0.295 N 
ATOM     18  C   UNL     1      -3.385 -12.409  13.746  0.00  0.00    +0.300 C 
ATOM     32  H   UNL     1      -5.277 -12.522  14.594  0.00  0.00    +0.151 HD
ATOM     33  H   UNL     1      -5.051 -12.591  12.512  0.00  0.00    +0.151 HD
BRANCH   9  19
ATOM     19  C   UNL     1      -3.335 -12.557  11.261  0.00  0.00    +0.141 C 
BRANCH  19  21
ATOM     21  C   UNL     1      -3.611 -11.342  10.424  0.00  0.00    -0.030 A 
ATOM     24  C   UNL     1      -3.085 -10.112  10.802  0.00  0.00    +0.005 A 
ATOM     25  C   UNL     1      -4.391 -11.458   9.278  0.00  0.00    +0.005 A 
ATOM     28  C   UNL     1      -3.341  -8.983  10.024  0.00  0.00    +0.000 A 
ATOM     29  C   UNL     1      -4.647 -10.329   8.501  0.00  0.00    +0.000 A 
ATOM     31  C   UNL     1      -4.122  -9.091   8.874  0.00  0.00    +0.000 A 
ENDBRANCH  19  21
ENDBRANCH   9  19
ENDBRANCH  14   6
BRANCH  13   5
ATOM      5  N   UNL     1      -7.248 -10.797  19.007  0.00  0.00    -0.187 N 
ATOM      7  N   UNL     1      -7.688 -11.667  19.921  0.00  0.00    -0.041 NA
ATOM      8  N   UNL     1      -9.391 -10.531  19.037  0.00  0.00    -0.071 NA
ATOM     10  N   UNL     1      -9.005 -11.499  19.936  0.00  0.00    -0.020 NA
ATOM     17  C   UNL     1      -8.284 -10.109  18.473  0.00  0.00    +0.342 A 
BRANCH  17   3
ATOM      3  O   UNL     1      -8.177  -9.179  17.543  0.00  0.00    -0.423 OA
BRANCH   3  20
ATOM     20  C   UNL     1      -9.259  -8.750  16.786  0.00  0.00    +0.132 A 
ATOM     22  C   UNL     1      -9.528  -9.378  15.586  0.00  0.00    +0.046 A 
ATOM     23  C   UNL     1     -10.033  -7.706  17.255  0.00  0.00    +0.046 A 
ATOM     26  C   UNL     1     -10.615  -8.947  14.825  0.00  0.00    +0.004 A 
ATOM     27  C   UNL     1     -11.119  -7.275  16.494  0.00  0.00    +0.004 A 
ATOM     30  C   UNL     1     -11.411  -7.895  15.279  0.00  0.00    +0.000 A 
ENDBRANCH   3  20
ENDBRANCH  17   3
ENDBRANCH  13   5
TORSDOF 6
ENDMDL
MODEL 7
REMARK VINA RESULT:      -6.8      2.880      8.566
REMARK  Name = 11886192
REMARK  6 active torsions:
REMARK  status: ('A' for Active; 'I' for Inactive)
REMARK    1  A    between atoms: O_3  and  C_17
REMARK    2  A    between atoms: O_3  and  C_20
REMARK    3  A    between atoms: N_5  and  C_13
REMARK    4  A    between atoms: N_6  and  C_14
REMARK    5  A    between atoms: N_9  and  C_19
REMARK    6  A    between atoms: C_19  and  C_21
REMARK                            x       y       z     vdW  Elec       q    Type
REMARK                         _______ _______ _______ _____ _____    ______ ____
ROOT
ATOM      1  O   UNL     1      -4.942 -11.818  19.424  0.00  0.00    -0.370 OA
ATOM      2  O   UNL     1      -6.160  -9.980  17.181  0.00  0.00    -0.370 OA
ATOM     11  C   UNL     1      -6.561 -11.227  17.776  0.00  0.00    +0.176 C 
ATOM     12  C   UNL     1      -5.298 -12.021  18.047  0.00  0.00    +0.171 C 
ATOM     13  C   UNL     1      -7.160 -10.977  19.148  0.00  0.00    +0.171 C 
ATOM     14  C   UNL     1      -4.262 -11.395  17.140  0.00  0.00    +0.131 C 
ATOM     15  C   UNL     1      -5.942 -11.015  20.065  0.00  0.00    +0.190 C 
ATOM     16  C   UNL     1      -4.732  -9.955  17.059  0.00  0.00    +0.185 C 
ENDROOT
BRANCH  14   6
ATOM      4  O   UNL     1      -2.211 -11.199  15.119  0.00  0.00    -0.253 OA
ATOM      6  N   UNL     1      -4.261 -12.019  15.839  0.00  0.00    -0.292 N 
ATOM      9  N   UNL     1      -3.479 -12.578  13.748  0.00  0.00    -0.295 N 
ATOM     18  C   UNL     1      -3.224 -11.869  14.920  0.00  0.00    +0.300 C 
ATOM     32  H   UNL     1      -5.023 -12.650  15.605  0.00  0.00    +0.151 HD
ATOM     33  H   UNL     1      -4.333 -13.124  13.683  0.00  0.00    +0.151 HD
BRANCH   9  19
ATOM     19  C   UNL     1      -2.566 -12.595  12.630  0.00  0.00    +0.141 C 
BRANCH  19  21
ATOM     21  C   UNL     1      -2.841 -11.479  11.663  0.00  0.00    -0.030 A 
ATOM     24  C   UNL     1      -3.896 -11.592  10.765  0.00  0.00    +0.005 A 
ATOM     25  C   UNL     1      -2.037 -10.345  11.675  0.00  0.00    +0.005 A 
ATOM     28  C   UNL     1      -4.152 -10.556   9.867  0.00  0.00    +0.000 A 
ATOM     29  C   UNL     1      -2.293  -9.309  10.777  0.00  0.00    +0.000 A 
ATOM     31  C   UNL     1      -3.350  -9.415   9.873  0.00  0.00    +0.000 A 
ENDBRANCH  19  21
ENDBRANCH   9  19
ENDBRANCH  14   6
BRANCH  13   5
ATOM      5  N   UNL     1      -8.219 -11.933  19.482  0.00  0.00    -0.187 N 
ATOM      7  N   UNL     1      -7.993 -13.249  19.440  0.00  0.00    -0.041 NA
ATOM      8  N   UNL     1     -10.096 -12.835  20.058  0.00  0.00    -0.071 NA
ATOM     10  N   UNL     1      -9.148 -13.799  19.795  0.00  0.00    -0.020 NA
ATOM     17  C   UNL     1      -9.496 -11.685  19.858  0.00  0.00    +0.342 A 
BRANCH  17   3
ATOM      3  O   UNL     1     -10.028 -10.485  19.991  0.00  0.00    -0.423 OA
BRANCH   3  20
ATOM     20  C   UNL     1     -10.842  -9.915  19.022  0.00  0.00    +0.132 A 
ATOM     22  C   UNL     1     -12.211 -10.072  19.120  0.00  0.00    +0.046 A 
ATOM     23  C   UNL     1     -10.259  -9.211  17.986  0.00  0.00    +0.046 A 
ATOM     26  C   UNL     1     -13.030  -9.501  18.146  0.00  0.00    +0.004 A 
ATOM     27  C   UNL     1     -11.078  -8.640  17.012  0.00  0.00    +0.004 A 
ATOM     30  C   UNL     1     -12.463  -8.784  17.091  0.00  0.00    +0.000 A 
ENDBRANCH   3  20
ENDBRANCH  17   3
ENDBRANCH  13   5
TORSDOF 6
ENDMDL
MODEL 8
REMARK VINA RESULT:      -6.8     24.574     27.424
REMARK  Name = 11886192
REMARK  6 active torsions:
REMARK  status: ('A' for Active; 'I' for Inactive)
REMARK    1  A    between atoms: O_3  and  C_17
REMARK    2  A    between atoms: O_3  and  C_20
REMARK    3  A    between atoms: N_5  and  C_13
REMARK    4  A    between atoms: N_6  and  C_14
REMARK    5  A    between atoms: N_9  and  C_19
REMARK    6  A    between atoms: C_19  and  C_21
REMARK                            x       y       z     vdW  Elec       q    Type
REMARK                         _______ _______ _______ _____ _____    ______ ____
ROOT
ATOM      1  O   UNL     1       8.874   6.545  -1.892  0.00  0.00    -0.370 OA
ATOM      2  O   UNL     1      11.768   7.323  -0.936  0.00  0.00    -0.370 OA
ATOM     11  C   UNL     1      11.038   6.085  -1.000  0.00  0.00    +0.176 C 
ATOM     12  C   UNL     1       9.594   6.398  -0.657  0.00  0.00    +0.171 C 
ATOM     13  C   UNL     1      10.993   5.584  -2.431  0.00  0.00    +0.171 C 
ATOM     14  C   UNL     1       9.662   7.723   0.069  0.00  0.00    +0.131 C 
ATOM     15  C   UNL     1       9.749   6.262  -2.993  0.00  0.00    +0.190 C 
ATOM     16  C   UNL     1      10.872   8.380  -0.568  0.00  0.00    +0.185 C 
ENDROOT
BRANCH  14   6
ATOM      4  O   UNL     1       7.892   8.548   2.195  0.00  0.00    -0.253 OA
ATOM      6  N   UNL     1       9.856   7.532   1.486  0.00  0.00    -0.292 N 
ATOM      9  N   UNL     1       9.380   7.653   3.734  0.00  0.00    -0.295 N 
ATOM     18  C   UNL     1       8.946   7.966   2.448  0.00  0.00    +0.300 C 
ATOM     32  H   UNL     1      10.665   7.000   1.796  0.00  0.00    +0.151 HD
ATOM     33  H   UNL     1      10.255   7.148   3.846  0.00  0.00    +0.151 HD
BRANCH   9  19
ATOM     19  C   UNL     1       8.625   7.989   4.918  0.00  0.00    +0.141 C 
BRANCH  19  21
ATOM     21  C   UNL     1       8.947   7.078   6.067  0.00  0.00    -0.030 A 
ATOM     24  C   UNL     1       9.464   5.812   5.817  0.00  0.00    +0.005 A 
ATOM     25  C   UNL     1       8.726   7.509   7.370  0.00  0.00    +0.005 A 
ATOM     28  C   UNL     1       9.764   4.966   6.885  0.00  0.00    +0.000 A 
ATOM     29  C   UNL     1       9.026   6.663   8.437  0.00  0.00    +0.000 A 
ATOM     31  C   UNL     1       9.545   5.391   8.194  0.00  0.00    +0.000 A 
ENDBRANCH  19  21
ENDBRANCH   9  19
ENDBRANCH  14   6
BRANCH  13   5
ATOM      5  N   UNL     1      10.994   4.121  -2.515  0.00  0.00    -0.187 N 
ATOM      7  N   UNL     1       9.866   3.447  -2.753  0.00  0.00    -0.041 NA
ATOM      8  N   UNL     1      11.583   2.042  -2.530  0.00  0.00    -0.071 NA
ATOM     10  N   UNL     1      10.232   2.171  -2.762  0.00  0.00    -0.020 NA
ATOM     17  C   UNL     1      12.035   3.266  -2.381  0.00  0.00    +0.342 A 
BRANCH  17   3
ATOM      3  O   UNL     1      13.283   3.621  -2.139  0.00  0.00    -0.423 OA
BRANCH   3  20
ATOM     20  C   UNL     1      13.820   3.641  -0.859  0.00  0.00    +0.132 A 
ATOM     22  C   UNL     1      13.022   3.275   0.208  0.00  0.00    +0.046 A 
ATOM     23  C   UNL     1      15.135   4.028  -0.690  0.00  0.00    +0.046 A 
ATOM     26  C   UNL     1      13.561   3.296   1.494  0.00  0.00    +0.004 A 
ATOM     27  C   UNL     1      15.674   4.049   0.596  0.00  0.00    +0.004 A 
ATOM     30  C   UNL     1      14.888   3.682   1.688  0.00  0.00    +0.000 A 
ENDBRANCH   3  20
ENDBRANCH  17   3
ENDBRANCH  13   5
TORSDOF 6
ENDMDL
MODEL 9
REMARK VINA RESULT:      -6.6     26.213     29.388
REMARK  Name = 11886192
REMARK  6 active torsions:
REMARK  status: ('A' for Active; 'I' for Inactive)
REMARK    1  A    between atoms: O_3  and  C_17
REMARK    2  A    between atoms: O_3  and  C_20
REMARK    3  A    between atoms: N_5  and  C_13
REMARK    4  A    between atoms: N_6  and  C_14
REMARK    5  A    between atoms: N_9  and  C_19
REMARK    6  A    between atoms: C_19  and  C_21
REMARK                            x       y       z     vdW  Elec       q    Type
REMARK                         _______ _______ _______ _____ _____    ______ ____
ROOT
ATOM      1  O   UNL     1      20.544  -8.773  -0.346  0.00  0.00    -0.370 OA
ATOM      2  O   UNL     1      18.613  -9.633  -2.675  0.00  0.00    -0.370 OA
ATOM     11  C   UNL     1      18.637  -8.526  -1.757  0.00  0.00    +0.176 C 
ATOM     12  C   UNL     1      19.139  -9.058  -0.428  0.00  0.00    +0.171 C 
ATOM     13  C   UNL     1      19.686  -7.518  -2.188  0.00  0.00    +0.171 C 
ATOM     14  C   UNL     1      18.910 -10.550  -0.512  0.00  0.00    +0.131 C 
ATOM     15  C   UNL     1      20.949  -8.022  -1.499  0.00  0.00    +0.190 C 
ATOM     16  C   UNL     1      19.059 -10.816  -1.999  0.00  0.00    +0.185 C 
ENDROOT
BRANCH  14   6
ATOM      4  O   UNL     1      18.090 -13.065   0.642  0.00  0.00    -0.253 OA
ATOM      6  N   UNL     1      17.591 -10.904  -0.047  0.00  0.00    -0.292 N 
ATOM      9  N   UNL     1      15.939 -12.222   0.864  0.00  0.00    -0.295 N 
ATOM     18  C   UNL     1      17.281 -12.148   0.498  0.00  0.00    +0.300 C 
ATOM     32  H   UNL     1      16.867 -10.191  -0.060  0.00  0.00    +0.151 HD
ATOM     33  H   UNL     1      15.350 -11.405   0.729  0.00  0.00    +0.151 HD
BRANCH   9  19
ATOM     19  C   UNL     1      15.353 -13.401   1.455  0.00  0.00    +0.141 C 
BRANCH  19  21
ATOM     21  C   UNL     1      15.589 -13.463   2.936  0.00  0.00    -0.030 A 
ATOM     24  C   UNL     1      15.405 -12.323   3.710  0.00  0.00    +0.005 A 
ATOM     25  C   UNL     1      15.989 -14.660   3.520  0.00  0.00    +0.005 A 
ATOM     28  C   UNL     1      15.624 -12.381   5.087  0.00  0.00    +0.000 A 
ATOM     29  C   UNL     1      16.208 -14.717   4.896  0.00  0.00    +0.000 A 
ATOM     31  C   UNL     1      16.025 -13.578   5.680  0.00  0.00    +0.000 A 
ENDBRANCH  19  21
ENDBRANCH   9  19
ENDBRANCH  14   6
BRANCH  13   5
ATOM      5  N   UNL     1      19.309  -6.140  -1.863  0.00  0.00    -0.187 N 
ATOM      7  N   UNL     1      19.838  -5.516  -0.807  0.00  0.00    -0.041 NA
ATOM      8  N   UNL     1      18.407  -4.177  -1.871  0.00  0.00    -0.071 NA
ATOM     10  N   UNL     1      19.282  -4.310  -0.816  0.00  0.00    -0.020 NA
ATOM     17  C   UNL     1      18.441  -5.325  -2.507  0.00  0.00    +0.342 A 
BRANCH  17   3
ATOM      3  O   UNL     1      17.755  -5.649  -3.586  0.00  0.00    -0.423 OA
BRANCH   3  20
ATOM     20  C   UNL     1      16.400  -5.950  -3.549  0.00  0.00    +0.132 A 
ATOM     22  C   UNL     1      15.485  -4.915  -3.501  0.00  0.00    +0.046 A 
ATOM     23  C   UNL     1      16.007  -7.274  -3.559  0.00  0.00    +0.046 A 
ATOM     26  C   UNL     1      14.124  -5.217  -3.462  0.00  0.00    +0.004 A 
ATOM     27  C   UNL     1      14.645  -7.575  -3.520  0.00  0.00    +0.004 A 
ATOM     30  C   UNL     1      13.704  -6.548  -3.472  0.00  0.00    +0.000 A 
ENDBRANCH   3  20
ENDBRANCH  17   3
ENDBRANCH  13   5
TORSDOF 6
ENDMDL
MODEL 10
REMARK VINA RESULT:      -6.5     23.986     27.721
REMARK  Name = 11886192
REMARK  6 active torsions:
REMARK  status: ('A' for Active; 'I' for Inactive)
REMARK    1  A    between atoms: O_3  and  C_17
REMARK    2  A    between atoms: O_3  and  C_20
REMARK    3  A    between atoms: N_5  and  C_13
REMARK    4  A    between atoms: N_6  and  C_14
REMARK    5  A    between atoms: N_9  and  C_19
REMARK    6  A    between atoms: C_19  and  C_21
REMARK                            x       y       z     vdW  Elec       q    Type
REMARK                         _______ _______ _______ _____ _____    ______ ____
ROOT
ATOM      1  O   UNL     1       8.784   7.735   6.300  0.00  0.00    -0.370 OA
ATOM      2  O   UNL     1      10.795   5.896   7.870  0.00  0.00    -0.370 OA
ATOM     11  C   UNL     1      10.950   7.046   7.021  0.00  0.00    +0.176 C 
ATOM     12  C   UNL     1       9.914   6.933   5.920  0.00  0.00    +0.171 C 
ATOM     13  C   UNL     1      10.571   8.304   7.779  0.00  0.00    +0.171 C 
ATOM     14  C   UNL     1       9.537   5.469   5.910  0.00  0.00    +0.131 C 
ATOM     15  C   UNL     1       9.071   8.415   7.530  0.00  0.00    +0.190 C 
ATOM     16  C   UNL     1       9.735   5.075   7.362  0.00  0.00    +0.185 C 
ENDROOT
BRANCH  14   6
ATOM      4  O   UNL     1       9.681   5.628   3.031  0.00  0.00    -0.253 OA
ATOM      6  N   UNL     1      10.404   4.712   5.039  0.00  0.00    -0.292 N 
ATOM      9  N   UNL     1      11.338   4.004   3.059  0.00  0.00    -0.295 N 
ATOM     18  C   UNL     1      10.407   4.852   3.653  0.00  0.00    +0.300 C 
ATOM     32  H   UNL     1      11.090   4.093   5.460  0.00  0.00    +0.151 HD
ATOM     33  H   UNL     1      11.912   3.414   3.655  0.00  0.00    +0.151 HD
BRANCH   9  19
ATOM     19  C   UNL     1      11.547   3.948   1.632  0.00  0.00    +0.141 C 
BRANCH  19  21
ATOM     21  C   UNL     1      12.961   4.286   1.257  0.00  0.00    -0.030 A 
ATOM     24  C   UNL     1      13.227   5.468   0.574  0.00  0.00    +0.005 A 
ATOM     25  C   UNL     1      13.991   3.416   1.597  0.00  0.00    +0.005 A 
ATOM     28  C   UNL     1      14.541   5.783   0.227  0.00  0.00    +0.000 A 
ATOM     29  C   UNL     1      15.304   3.731   1.249  0.00  0.00    +0.000 A 
ATOM     31  C   UNL     1      15.579   4.915   0.564  0.00  0.00    +0.000 A 
ENDBRANCH  19  21
ENDBRANCH   9  19
ENDBRANCH  14   6
BRANCH  13   5
ATOM      5  N   UNL     1      11.357   9.469   7.364  0.00  0.00    -0.187 N 
ATOM      7  N   UNL     1      10.792  10.675   7.260  0.00  0.00    -0.041 NA
ATOM      8  N   UNL     1      12.955  10.776   6.729  0.00  0.00    -0.071 NA
ATOM     10  N   UNL     1      11.777  11.475   6.870  0.00  0.00    -0.020 NA
ATOM     17  C   UNL     1      12.670   9.534   7.042  0.00  0.00    +0.342 A 
BRANCH  17   3
ATOM      3  O   UNL     1      13.503   8.511   7.045  0.00  0.00    -0.423 OA
BRANCH   3  20
ATOM     20  C   UNL     1      14.222   8.128   5.921  0.00  0.00    +0.132 A 
ATOM     22  C   UNL     1      13.546   7.591   4.843  0.00  0.00    +0.046 A 
ATOM     23  C   UNL     1      15.594   8.294   5.915  0.00  0.00    +0.046 A 
ATOM     26  C   UNL     1      14.268   7.206   3.714  0.00  0.00    +0.004 A 
ATOM     27  C   UNL     1      16.316   7.908   4.786  0.00  0.00    +0.004 A 
ATOM     30  C   UNL     1      15.654   7.364   3.685  0.00  0.00    +0.000 A 
ENDBRANCH   3  20
ENDBRANCH  17   3
ENDBRANCH  13   5
TORSDOF 6
ENDMDL
