MODEL 1
REMARK VINA RESULT:      -6.6      0.000      0.000
REMARK  Name = 56774078
REMARK  9 active torsions:
REMARK  status: ('A' for Active; 'I' for Inactive)
REMARK    1  A    between atoms: O_3  and  C_20
REMARK    2  A    between atoms: O_3  and  C_24
REMARK    3  A    between atoms: N_4  and  C_8
REMARK    4  A    between atoms: C_6  and  C_11
REMARK    5  A    between atoms: C_6  and  C_12
REMARK    6  A    between atoms: C_7  and  C_10
REMARK    7  A    between atoms: C_10  and  C_13
REMARK    8  A    between atoms: C_14  and  C_16
REMARK    9  A    between atoms: C_17  and  C_20
REMARK                            x       y       z     vdW  Elec       q    Type
REMARK                         _______ _______ _______ _____ _____    ______ ____
ROOT
ATOM      6  C   UNL     1      15.941   7.590  20.864  0.00  0.00    -0.013 C 
ATOM      7  C   UNL     1      17.202   6.700  20.838  0.00  0.00    +0.004 C 
ATOM      8  C   UNL     1      15.374   6.686  19.750  0.00  0.00    +0.079 C 
ATOM      9  C   UNL     1      16.835   6.356  19.379  0.00  0.00    +0.027 C 
ATOM     11  C   UNL     1      15.121   7.535  22.140  0.00  0.00    +0.013 C 
ATOM     12  C   UNL     1      16.208   9.030  20.488  0.00  0.00    +0.013 C 
ENDROOT
BRANCH   8   4
ATOM      2  O   UNL     1      12.520   6.733  19.369  0.00  0.00    -0.270 OA
ATOM      4  N   UNL     1      14.634   7.381  18.678  0.00  0.00    -0.308 N 
ATOM     14  C   UNL     1      13.238   7.353  18.564  0.00  0.00    +0.244 C 
ATOM     25  H   UNL     1      15.171   7.859  17.960  0.00  0.00    +0.149 HD
BRANCH  14  16
ATOM     16  C   UNL     1      12.645   8.102  17.468  0.00  0.00    +0.037 A 
ATOM     18  C   UNL     1      11.259   8.164  17.333  0.00  0.00    +0.013 A 
ATOM     19  C   UNL     1      13.464   8.762  16.551  0.00  0.00    +0.013 A 
ATOM     21  C   UNL     1      10.690   8.883  16.282  0.00  0.00    +0.001 A 
ATOM     22  C   UNL     1      12.897   9.482  15.501  0.00  0.00    +0.001 A 
ATOM     23  C   UNL     1      11.510   9.542  15.365  0.00  0.00    +0.000 A 
ENDBRANCH  14  16
ENDBRANCH   8   4
BRANCH   7  10
ATOM     10  C   UNL     1      18.537   7.385  21.011  0.00  0.00    +0.063 C 
BRANCH  10  13
ATOM      1  O   UNL     1      20.955   5.317  22.712  0.00  0.00    -0.357 OA
ATOM      5  N   UNL     1      19.999   6.325  22.688  0.00  0.00    -0.083 NA
ATOM     13  C   UNL     1      19.593   6.385  21.416  0.00  0.00    +0.084 A 
ATOM     15  C   UNL     1      20.252   5.449  20.601  0.00  0.00    +0.073 A 
ATOM     17  C   UNL     1      21.097   4.803  21.463  0.00  0.00    +0.163 A 
BRANCH  17  20
ATOM     20  C   UNL     1      22.075   3.719  21.308  0.00  0.00    +0.236 C 
BRANCH  20   3
ATOM      3  O   UNL     1      23.383   4.177  21.659  0.00  0.00    -0.375 OA
ATOM     24  C   UNL     1      24.035   4.771  20.549  0.00  0.00    +0.194 C 
ENDBRANCH  20   3
ENDBRANCH  17  20
ENDBRANCH  10  13
ENDBRANCH   7  10
TORSDOF 6
ENDMDL
MODEL 2
REMARK VINA RESULT:      -6.2      2.322      9.988
REMARK  Name = 56774078
REMARK  9 active torsions:
REMARK  status: ('A' for Active; 'I' for Inactive)
REMARK    1  A    between atoms: O_3  and  C_20
REMARK    2  A    between atoms: O_3  and  C_24
REMARK    3  A    between atoms: N_4  and  C_8
REMARK    4  A    between atoms: C_6  and  C_11
REMARK    5  A    between atoms: C_6  and  C_12
REMARK    6  A    between atoms: C_7  and  C_10
REMARK    7  A    between atoms: C_10  and  C_13
REMARK    8  A    between atoms: C_14  and  C_16
REMARK    9  A    between atoms: C_17  and  C_20
REMARK                            x       y       z     vdW  Elec       q    Type
REMARK                         _______ _______ _______ _____ _____    ______ ____
ROOT
ATOM      6  C   UNL     1      20.371   6.322  21.002  0.00  0.00    -0.013 C 
ATOM      7  C   UNL     1      18.988   6.330  20.316  0.00  0.00    +0.004 C 
ATOM      8  C   UNL     1      20.702   5.080  20.149  0.00  0.00    +0.079 C 
ATOM      9  C   UNL     1      19.182   4.817  20.080  0.00  0.00    +0.027 C 
ATOM     11  C   UNL     1      21.269   7.505  20.691  0.00  0.00    +0.013 C 
ATOM     12  C   UNL     1      20.304   6.109  22.497  0.00  0.00    +0.013 C 
ENDROOT
BRANCH   8   4
ATOM      2  O   UNL     1      23.564   4.796  20.280  0.00  0.00    -0.270 OA
ATOM      4  N   UNL     1      21.456   4.014  20.837  0.00  0.00    -0.308 N 
ATOM     14  C   UNL     1      22.855   3.948  20.852  0.00  0.00    +0.244 C 
ATOM     25  H   UNL     1      20.929   3.264  21.275  0.00  0.00    +0.149 HD
BRANCH  14  16
ATOM     16  C   UNL     1      23.461   2.851  21.589  0.00  0.00    +0.037 A 
ATOM     18  C   UNL     1      24.159   1.855  20.908  0.00  0.00    +0.013 A 
ATOM     19  C   UNL     1      23.346   2.796  22.978  0.00  0.00    +0.013 A 
ATOM     21  C   UNL     1      24.742   0.802  21.615  0.00  0.00    +0.001 A 
ATOM     22  C   UNL     1      23.928   1.745  23.686  0.00  0.00    +0.001 A 
ATOM     23  C   UNL     1      24.626   0.748  23.004  0.00  0.00    +0.000 A 
ENDBRANCH  14  16
ENDBRANCH   8   4
BRANCH   7  10
ATOM     10  C   UNL     1      17.795   6.690  21.169  0.00  0.00    +0.063 C 
BRANCH  10  13
ATOM      1  O   UNL     1      15.265   6.424  18.609  0.00  0.00    -0.357 OA
ATOM      5  N   UNL     1      16.559   6.241  19.085  0.00  0.00    -0.083 NA
ATOM     13  C   UNL     1      16.540   6.725  20.330  0.00  0.00    +0.084 A 
ATOM     15  C   UNL     1      15.276   7.222  20.690  0.00  0.00    +0.073 A 
ATOM     17  C   UNL     1      14.511   7.008  19.574  0.00  0.00    +0.163 A 
BRANCH  17  20
ATOM     20  C   UNL     1      13.107   7.275  19.237  0.00  0.00    +0.236 C 
BRANCH  20   3
ATOM      3  O   UNL     1      12.243   6.442  20.013  0.00  0.00    -0.375 OA
ATOM     24  C   UNL     1      11.469   7.209  20.920  0.00  0.00    +0.194 C 
ENDBRANCH  20   3
ENDBRANCH  17  20
ENDBRANCH  10  13
ENDBRANCH   7  10
TORSDOF 6
ENDMDL
MODEL 3
REMARK VINA RESULT:      -5.9     26.873     29.958
REMARK  Name = 56774078
REMARK  9 active torsions:
REMARK  status: ('A' for Active; 'I' for Inactive)
REMARK    1  A    between atoms: O_3  and  C_20
REMARK    2  A    between atoms: O_3  and  C_24
REMARK    3  A    between atoms: N_4  and  C_8
REMARK    4  A    between atoms: C_6  and  C_11
REMARK    5  A    between atoms: C_6  and  C_12
REMARK    6  A    between atoms: C_7  and  C_10
REMARK    7  A    between atoms: C_10  and  C_13
REMARK    8  A    between atoms: C_14  and  C_16
REMARK    9  A    between atoms: C_17  and  C_20
REMARK                            x       y       z     vdW  Elec       q    Type
REMARK                         _______ _______ _______ _____ _____    ______ ____
ROOT
ATOM      6  C   UNL     1      -4.990 -11.946  18.545  0.00  0.00    -0.013 C 
ATOM      7  C   UNL     1      -6.102 -11.306  19.404  0.00  0.00    +0.004 C 
ATOM      8  C   UNL     1      -4.822 -10.567  17.873  0.00  0.00    +0.079 C 
ATOM      9  C   UNL     1      -6.289 -10.284  18.262  0.00  0.00    +0.027 C 
ATOM     11  C   UNL     1      -3.748 -12.388  19.297  0.00  0.00    +0.013 C 
ATOM     12  C   UNL     1      -5.479 -13.068  17.658  0.00  0.00    +0.013 C 
ENDROOT
BRANCH   8   4
ATOM      2  O   UNL     1      -2.281 -10.734  16.529  0.00  0.00    -0.270 OA
ATOM      4  N   UNL     1      -4.591 -10.590  16.416  0.00  0.00    -0.308 N 
ATOM     14  C   UNL     1      -3.316 -10.673  15.840  0.00  0.00    +0.244 C 
ATOM     25  H   UNL     1      -5.395 -10.488  15.803  0.00  0.00    +0.149 HD
BRANCH  14  16
ATOM     16  C   UNL     1      -3.243 -10.707  14.388  0.00  0.00    +0.037 A 
ATOM     18  C   UNL     1      -4.413 -10.679  13.630  0.00  0.00    +0.013 A 
ATOM     19  C   UNL     1      -2.003 -10.765  13.753  0.00  0.00    +0.013 A 
ATOM     21  C   UNL     1      -4.344 -10.711  12.237  0.00  0.00    +0.001 A 
ATOM     22  C   UNL     1      -1.932 -10.796  12.361  0.00  0.00    +0.001 A 
ATOM     23  C   UNL     1      -3.102 -10.770  11.603  0.00  0.00    +0.000 A 
ENDBRANCH  14  16
ENDBRANCH   8   4
BRANCH   7  10
ATOM     10  C   UNL     1      -7.318 -12.151  19.702  0.00  0.00    +0.063 C 
BRANCH  10  13
ATOM      1  O   UNL     1     -10.383 -10.248  19.609  0.00  0.00    -0.357 OA
ATOM      5  N   UNL     1      -9.318 -10.835  20.284  0.00  0.00    -0.083 NA
ATOM     13  C   UNL     1      -8.579 -11.409  19.330  0.00  0.00    +0.084 A 
ATOM     15  C   UNL     1      -9.122 -11.221  18.048  0.00  0.00    +0.073 A 
ATOM     17  C   UNL     1     -10.254 -10.485  18.278  0.00  0.00    +0.163 A 
BRANCH  17  20
ATOM     20  C   UNL     1     -11.301  -9.932  17.411  0.00  0.00    +0.236 C 
BRANCH  20   3
ATOM      3  O   UNL     1     -11.447  -8.528  17.642  0.00  0.00    -0.375 OA
ATOM     24  C   UNL     1     -10.360  -7.802  17.092  0.00  0.00    +0.194 C 
ENDBRANCH  20   3
ENDBRANCH  17  20
ENDBRANCH  10  13
ENDBRANCH   7  10
TORSDOF 6
ENDMDL
MODEL 4
REMARK VINA RESULT:      -5.8     24.938     29.784
REMARK  Name = 56774078
REMARK  9 active torsions:
REMARK  status: ('A' for Active; 'I' for Inactive)
REMARK    1  A    between atoms: O_3  and  C_20
REMARK    2  A    between atoms: O_3  and  C_24
REMARK    3  A    between atoms: N_4  and  C_8
REMARK    4  A    between atoms: C_6  and  C_11
REMARK    5  A    between atoms: C_6  and  C_12
REMARK    6  A    between atoms: C_7  and  C_10
REMARK    7  A    between atoms: C_10  and  C_13
REMARK    8  A    between atoms: C_14  and  C_16
REMARK    9  A    between atoms: C_17  and  C_20
REMARK                            x       y       z     vdW  Elec       q    Type
REMARK                         _______ _______ _______ _____ _____    ______ ____
ROOT
ATOM      6  C   UNL     1       1.433   4.147  -5.360  0.00  0.00    -0.013 C 
ATOM      7  C   UNL     1       2.955   3.930  -5.227  0.00  0.00    +0.004 C 
ATOM      8  C   UNL     1       1.271   2.636  -5.096  0.00  0.00    +0.079 C 
ATOM      9  C   UNL     1       2.705   2.465  -5.642  0.00  0.00    +0.027 C 
ATOM     11  C   UNL     1       0.791   5.004  -4.284  0.00  0.00    +0.013 C 
ATOM     12  C   UNL     1       1.008   4.637  -6.727  0.00  0.00    +0.013 C 
ENDROOT
BRANCH   8   4
ATOM      2  O   UNL     1       0.616  -0.167  -5.046  0.00  0.00    -0.270 OA
ATOM      4  N   UNL     1       0.244   1.951  -5.905  0.00  0.00    -0.308 N 
ATOM     14  C   UNL     1      -0.013   0.577  -5.820  0.00  0.00    +0.244 C 
ATOM     25  H   UNL     1      -0.263   2.499  -6.595  0.00  0.00    +0.149 HD
BRANCH  14  16
ATOM     16  C   UNL     1      -1.070   0.045  -6.665  0.00  0.00    +0.037 A 
ATOM     18  C   UNL     1      -1.697   0.867  -7.600  0.00  0.00    +0.013 A 
ATOM     19  C   UNL     1      -1.456  -1.290  -6.542  0.00  0.00    +0.013 A 
ATOM     21  C   UNL     1      -2.710   0.357  -8.411  0.00  0.00    +0.001 A 
ATOM     22  C   UNL     1      -2.468  -1.802  -7.352  0.00  0.00    +0.001 A 
ATOM     23  C   UNL     1      -3.096  -0.978  -8.287  0.00  0.00    +0.000 A 
ENDBRANCH  14  16
ENDBRANCH   8   4
BRANCH   7  10
ATOM     10  C   UNL     1       3.850   4.710  -6.161  0.00  0.00    +0.063 C 
BRANCH  10  13
ATOM      1  O   UNL     1       6.465   6.829  -4.860  0.00  0.00    -0.357 OA
ATOM      5  N   UNL     1       5.965   5.916  -5.781  0.00  0.00    -0.083 NA
ATOM     13  C   UNL     1       4.714   5.672  -5.381  0.00  0.00    +0.084 A 
ATOM     15  C   UNL     1       4.372   6.396  -4.226  0.00  0.00    +0.073 A 
ATOM     17  C   UNL     1       5.507   7.108  -3.939  0.00  0.00    +0.163 A 
BRANCH  17  20
ATOM     20  C   UNL     1       5.869   8.062  -2.885  0.00  0.00    +0.236 C 
BRANCH  20   3
ATOM      3  O   UNL     1       4.696   8.694  -2.363  0.00  0.00    -0.375 OA
ATOM     24  C   UNL     1       4.841   8.984  -0.983  0.00  0.00    +0.194 C 
ENDBRANCH  20   3
ENDBRANCH  17  20
ENDBRANCH  10  13
ENDBRANCH   7  10
TORSDOF 6
ENDMDL
MODEL 5
REMARK VINA RESULT:      -5.8     26.758     29.948
REMARK  Name = 56774078
REMARK  9 active torsions:
REMARK  status: ('A' for Active; 'I' for Inactive)
REMARK    1  A    between atoms: O_3  and  C_20
REMARK    2  A    between atoms: O_3  and  C_24
REMARK    3  A    between atoms: N_4  and  C_8
REMARK    4  A    between atoms: C_6  and  C_11
REMARK    5  A    between atoms: C_6  and  C_12
REMARK    6  A    between atoms: C_7  and  C_10
REMARK    7  A    between atoms: C_10  and  C_13
REMARK    8  A    between atoms: C_14  and  C_16
REMARK    9  A    between atoms: C_17  and  C_20
REMARK                            x       y       z     vdW  Elec       q    Type
REMARK                         _______ _______ _______ _____ _____    ______ ____
ROOT
ATOM      6  C   UNL     1      -6.585 -10.757  17.073  0.00  0.00    -0.013 C 
ATOM      7  C   UNL     1      -5.133 -10.461  17.504  0.00  0.00    +0.004 C 
ATOM      8  C   UNL     1      -7.032 -10.065  18.377  0.00  0.00    +0.079 C 
ATOM      9  C   UNL     1      -5.651 -10.436  18.958  0.00  0.00    +0.027 C 
ATOM     11  C   UNL     1      -7.066 -10.032  15.829  0.00  0.00    +0.013 C 
ATOM     12  C   UNL     1      -6.893 -12.233  16.958  0.00  0.00    +0.013 C 
ENDROOT
BRANCH   8   4
ATOM      2  O   UNL     1      -9.823  -9.404  18.125  0.00  0.00    -0.270 OA
ATOM      4  N   UNL     1      -8.161 -10.702  19.083  0.00  0.00    -0.308 N 
ATOM     14  C   UNL     1      -9.497 -10.318  18.903  0.00  0.00    +0.244 C 
ATOM     25  H   UNL     1      -7.950 -11.418  19.773  0.00  0.00    +0.149 HD
BRANCH  14  16
ATOM     16  C   UNL     1     -10.505 -11.050  19.652  0.00  0.00    +0.037 A 
ATOM     18  C   UNL     1     -10.228 -12.331  20.130  0.00  0.00    +0.013 A 
ATOM     19  C   UNL     1     -11.750 -10.470  19.896  0.00  0.00    +0.013 A 
ATOM     21  C   UNL     1     -11.195 -13.033  20.849  0.00  0.00    +0.001 A 
ATOM     22  C   UNL     1     -12.717 -11.171  20.616  0.00  0.00    +0.001 A 
ATOM     23  C   UNL     1     -12.440 -12.452  21.092  0.00  0.00    +0.000 A 
ENDBRANCH  14  16
ENDBRANCH   8   4
BRANCH   7  10
ATOM     10  C   UNL     1      -4.096 -11.521  17.218  0.00  0.00    +0.063 C 
BRANCH  10  13
ATOM      1  O   UNL     1      -1.449 -10.406  15.034  0.00  0.00    -0.357 OA
ATOM      5  N   UNL     1      -1.962 -10.713  16.289  0.00  0.00    -0.083 NA
ATOM     13  C   UNL     1      -3.219 -11.103  16.062  0.00  0.00    +0.084 A 
ATOM     15  C   UNL     1      -3.553 -11.063  14.698  0.00  0.00    +0.073 A 
ATOM     17  C   UNL     1      -2.406 -10.619  14.094  0.00  0.00    +0.163 A 
BRANCH  17  20
ATOM     20  C   UNL     1      -2.031 -10.342  12.703  0.00  0.00    +0.236 C 
BRANCH  20   3
ATOM      3  O   UNL     1      -2.160 -11.525  11.910  0.00  0.00    -0.375 OA
ATOM     24  C   UNL     1      -3.193 -11.389  10.949  0.00  0.00    +0.194 C 
ENDBRANCH  20   3
ENDBRANCH  17  20
ENDBRANCH  10  13
ENDBRANCH   7  10
TORSDOF 6
ENDMDL
MODEL 6
REMARK VINA RESULT:      -5.7     15.590     19.827
REMARK  Name = 56774078
REMARK  9 active torsions:
REMARK  status: ('A' for Active; 'I' for Inactive)
REMARK    1  A    between atoms: O_3  and  C_20
REMARK    2  A    between atoms: O_3  and  C_24
REMARK    3  A    between atoms: N_4  and  C_8
REMARK    4  A    between atoms: C_6  and  C_11
REMARK    5  A    between atoms: C_6  and  C_12
REMARK    6  A    between atoms: C_7  and  C_10
REMARK    7  A    between atoms: C_10  and  C_13
REMARK    8  A    between atoms: C_14  and  C_16
REMARK    9  A    between atoms: C_17  and  C_20
REMARK                            x       y       z     vdW  Elec       q    Type
REMARK                         _______ _______ _______ _____ _____    ______ ____
ROOT
ATOM      6  C   UNL     1      11.281   4.909   1.878  0.00  0.00    -0.013 C 
ATOM      7  C   UNL     1      12.597   5.314   1.181  0.00  0.00    +0.004 C 
ATOM      8  C   UNL     1      11.502   6.109   2.823  0.00  0.00    +0.079 C 
ATOM      9  C   UNL     1      13.009   5.979   2.512  0.00  0.00    +0.027 C 
ATOM     11  C   UNL     1      10.022   5.044   1.042  0.00  0.00    +0.013 C 
ATOM     12  C   UNL     1      11.330   3.538   2.515  0.00  0.00    +0.013 C 
ENDROOT
BRANCH   8   4
ATOM      2  O   UNL     1       9.012   6.713   4.135  0.00  0.00    -0.270 OA
ATOM      4  N   UNL     1      11.169   5.876   4.241  0.00  0.00    -0.308 N 
ATOM     14  C   UNL     1       9.927   6.201   4.804  0.00  0.00    +0.244 C 
ATOM     25  H   UNL     1      11.897   5.510   4.849  0.00  0.00    +0.149 HD
BRANCH  14  16
ATOM     16  C   UNL     1       9.735   5.894   6.212  0.00  0.00    +0.037 A 
ATOM     18  C   UNL     1      10.058   4.629   6.701  0.00  0.00    +0.013 A 
ATOM     19  C   UNL     1       9.229   6.867   7.074  0.00  0.00    +0.013 A 
ATOM     21  C   UNL     1       9.874   4.335   8.053  0.00  0.00    +0.001 A 
ATOM     22  C   UNL     1       9.045   6.575   8.425  0.00  0.00    +0.001 A 
ATOM     23  C   UNL     1       9.368   5.309   8.915  0.00  0.00    +0.000 A 
ENDBRANCH  14  16
ENDBRANCH   8   4
BRANCH   7  10
ATOM     10  C   UNL     1      13.508   4.201   0.720  0.00  0.00    +0.063 C 
BRANCH  10  13
ATOM      1  O   UNL     1      13.868   3.760  -2.843  0.00  0.00    -0.357 OA
ATOM      5  N   UNL     1      14.375   4.050  -1.581  0.00  0.00    -0.083 NA
ATOM     13  C   UNL     1      13.327   3.950  -0.758  0.00  0.00    +0.084 A 
ATOM     15  C   UNL     1      12.146   3.604  -1.436  0.00  0.00    +0.073 A 
ATOM     17  C   UNL     1      12.540   3.496  -2.743  0.00  0.00    +0.163 A 
BRANCH  17  20
ATOM     20  C   UNL     1      11.842   3.167  -3.992  0.00  0.00    +0.236 C 
BRANCH  20   3
ATOM      3  O   UNL     1      10.470   3.562  -3.911  0.00  0.00    -0.375 OA
ATOM     24  C   UNL     1       9.613   2.433  -3.864  0.00  0.00    +0.194 C 
ENDBRANCH  20   3
ENDBRANCH  17  20
ENDBRANCH  10  13
ENDBRANCH   7  10
TORSDOF 6
ENDMDL
MODEL 7
REMARK VINA RESULT:      -5.7     26.928     29.890
REMARK  Name = 56774078
REMARK  9 active torsions:
REMARK  status: ('A' for Active; 'I' for Inactive)
REMARK    1  A    between atoms: O_3  and  C_20
REMARK    2  A    between atoms: O_3  and  C_24
REMARK    3  A    between atoms: N_4  and  C_8
REMARK    4  A    between atoms: C_6  and  C_11
REMARK    5  A    between atoms: C_6  and  C_12
REMARK    6  A    between atoms: C_7  and  C_10
REMARK    7  A    between atoms: C_10  and  C_13
REMARK    8  A    between atoms: C_14  and  C_16
REMARK    9  A    between atoms: C_17  and  C_20
REMARK                            x       y       z     vdW  Elec       q    Type
REMARK                         _______ _______ _______ _____ _____    ______ ____
ROOT
ATOM      6  C   UNL     1      -5.725 -11.542  16.428  0.00  0.00    -0.013 C 
ATOM      7  C   UNL     1      -5.213 -11.586  17.883  0.00  0.00    +0.004 C 
ATOM      8  C   UNL     1      -4.269 -11.801  15.988  0.00  0.00    +0.079 C 
ATOM      9  C   UNL     1      -3.833 -11.172  17.329  0.00  0.00    +0.027 C 
ATOM     11  C   UNL     1      -6.668 -12.661  16.025  0.00  0.00    +0.013 C 
ATOM     12  C   UNL     1      -6.316 -10.207  16.034  0.00  0.00    +0.013 C 
ENDROOT
BRANCH   8   4
ATOM      2  O   UNL     1      -3.954 -12.809  13.310  0.00  0.00    -0.270 OA
ATOM      4  N   UNL     1      -3.815 -11.045  14.805  0.00  0.00    -0.308 N 
ATOM     14  C   UNL     1      -3.688 -11.614  13.530  0.00  0.00    +0.244 C 
ATOM     25  H   UNL     1      -3.531 -10.078  14.936  0.00  0.00    +0.149 HD
BRANCH  14  16
ATOM     16  C   UNL     1      -3.248 -10.741  12.454  0.00  0.00    +0.037 A 
ATOM     18  C   UNL     1      -1.893 -10.447  12.303  0.00  0.00    +0.013 A 
ATOM     19  C   UNL     1      -4.181 -10.199  11.570  0.00  0.00    +0.013 A 
ATOM     21  C   UNL     1      -1.471  -9.611  11.269  0.00  0.00    +0.001 A 
ATOM     22  C   UNL     1      -3.760  -9.363  10.537  0.00  0.00    +0.001 A 
ATOM     23  C   UNL     1      -2.405  -9.069  10.386  0.00  0.00    +0.000 A 
ENDBRANCH  14  16
ENDBRANCH   8   4
BRANCH   7  10
ATOM     10  C   UNL     1      -5.823 -10.610  18.861  0.00  0.00    +0.063 C 
BRANCH  10  13
ATOM      1  O   UNL     1      -8.610 -12.379  20.319  0.00  0.00    -0.357 OA
ATOM      5  N   UNL     1      -7.252 -12.215  20.066  0.00  0.00    -0.083 NA
ATOM     13  C   UNL     1      -7.171 -11.105  19.328  0.00  0.00    +0.084 A 
ATOM     15  C   UNL     1      -8.430 -10.531  19.086  0.00  0.00    +0.073 A 
ATOM     17  C   UNL     1      -9.301 -11.369  19.730  0.00  0.00    +0.163 A 
BRANCH  17  20
ATOM     20  C   UNL     1     -10.759 -11.388  19.899  0.00  0.00    +0.236 C 
BRANCH  20   3
ATOM      3  O   UNL     1     -11.235 -10.083  20.239  0.00  0.00    -0.375 OA
ATOM     24  C   UNL     1     -12.627  -9.966  19.998  0.00  0.00    +0.194 C 
ENDBRANCH  20   3
ENDBRANCH  17  20
ENDBRANCH  10  13
ENDBRANCH   7  10
TORSDOF 6
ENDMDL
MODEL 8
REMARK VINA RESULT:      -5.4     23.687     27.067
REMARK  Name = 56774078
REMARK  9 active torsions:
REMARK  status: ('A' for Active; 'I' for Inactive)
REMARK    1  A    between atoms: O_3  and  C_20
REMARK    2  A    between atoms: O_3  and  C_24
REMARK    3  A    between atoms: N_4  and  C_8
REMARK    4  A    between atoms: C_6  and  C_11
REMARK    5  A    between atoms: C_6  and  C_12
REMARK    6  A    between atoms: C_7  and  C_10
REMARK    7  A    between atoms: C_10  and  C_13
REMARK    8  A    between atoms: C_14  and  C_16
REMARK    9  A    between atoms: C_17  and  C_20
REMARK                            x       y       z     vdW  Elec       q    Type
REMARK                         _______ _______ _______ _____ _____    ______ ____
ROOT
ATOM      6  C   UNL     1      -1.588   9.188  37.741  0.00  0.00    -0.013 C 
ATOM      7  C   UNL     1      -2.681   9.615  36.738  0.00  0.00    +0.004 C 
ATOM      8  C   UNL     1      -2.262   7.800  37.767  0.00  0.00    +0.079 C 
ATOM      9  C   UNL     1      -3.568   8.511  37.353  0.00  0.00    +0.027 C 
ATOM     11  C   UNL     1      -0.172   9.143  37.196  0.00  0.00    +0.013 C 
ATOM     12  C   UNL     1      -1.615   9.970  39.035  0.00  0.00    +0.013 C 
ENDROOT
BRANCH   8   4
ATOM      2  O   UNL     1      -0.362   5.954  38.895  0.00  0.00    -0.270 OA
ATOM      4  N   UNL     1      -2.336   7.150  39.090  0.00  0.00    -0.308 N 
ATOM     14  C   UNL     1      -1.365   6.259  39.565  0.00  0.00    +0.244 C 
ATOM     25  H   UNL     1      -3.161   7.320  39.659  0.00  0.00    +0.149 HD
BRANCH  14  16
ATOM     16  C   UNL     1      -1.560   5.712  40.898  0.00  0.00    +0.037 A 
ATOM     18  C   UNL     1      -2.850   5.529  41.395  0.00  0.00    +0.013 A 
ATOM     19  C   UNL     1      -0.457   5.366  41.679  0.00  0.00    +0.013 A 
ATOM     21  C   UNL     1      -3.038   5.003  42.673  0.00  0.00    +0.001 A 
ATOM     22  C   UNL     1      -0.644   4.840  42.956  0.00  0.00    +0.001 A 
ATOM     23  C   UNL     1      -1.935   4.658  43.454  0.00  0.00    +0.000 A 
ENDBRANCH  14  16
ENDBRANCH   8   4
BRANCH   7  10
ATOM     10  C   UNL     1      -3.231  11.016  36.869  0.00  0.00    +0.063 C 
BRANCH  10  13
ATOM      1  O   UNL     1      -2.897  13.054  33.909  0.00  0.00    -0.357 OA
ATOM      5  N   UNL     1      -3.646  12.304  34.810  0.00  0.00    -0.083 NA
ATOM     13  C   UNL     1      -2.765  11.874  35.717  0.00  0.00    +0.084 A 
ATOM     15  C   UNL     1      -1.459  12.315  35.444  0.00  0.00    +0.073 A 
ATOM     17  C   UNL     1      -1.596  13.052  34.298  0.00  0.00    +0.163 A 
BRANCH  17  20
ATOM     20  C   UNL     1      -0.660  13.802  33.453  0.00  0.00    +0.236 C 
BRANCH  20   3
ATOM      3  O   UNL     1       0.633  13.191  33.482  0.00  0.00    -0.375 OA
ATOM     24  C   UNL     1       1.226  13.182  32.194  0.00  0.00    +0.194 C 
ENDBRANCH  20   3
ENDBRANCH  17  20
ENDBRANCH  10  13
ENDBRANCH   7  10
TORSDOF 6
ENDMDL
MODEL 9
REMARK VINA RESULT:      -5.3     27.641     30.167
REMARK  Name = 56774078
REMARK  9 active torsions:
REMARK  status: ('A' for Active; 'I' for Inactive)
REMARK    1  A    between atoms: O_3  and  C_20
REMARK    2  A    between atoms: O_3  and  C_24
REMARK    3  A    between atoms: N_4  and  C_8
REMARK    4  A    between atoms: C_6  and  C_11
REMARK    5  A    between atoms: C_6  and  C_12
REMARK    6  A    between atoms: C_7  and  C_10
REMARK    7  A    between atoms: C_10  and  C_13
REMARK    8  A    between atoms: C_14  and  C_16
REMARK    9  A    between atoms: C_17  and  C_20
REMARK                            x       y       z     vdW  Elec       q    Type
REMARK                         _______ _______ _______ _____ _____    ______ ____
ROOT
ATOM      6  C   UNL     1      -6.977 -10.642  16.675  0.00  0.00    -0.013 C 
ATOM      7  C   UNL     1      -5.575 -10.642  17.320  0.00  0.00    +0.004 C 
ATOM      8  C   UNL     1      -7.392  -9.626  17.760  0.00  0.00    +0.079 C 
ATOM      9  C   UNL     1      -6.264 -10.214  18.633  0.00  0.00    +0.027 C 
ATOM     11  C   UNL     1      -7.059 -10.069  15.272  0.00  0.00    +0.013 C 
ATOM     12  C   UNL     1      -7.665 -11.988  16.720  0.00  0.00    +0.013 C 
ENDROOT
BRANCH   8   4
ATOM      2  O   UNL     1      -9.821  -8.325  16.922  0.00  0.00    -0.270 OA
ATOM      4  N   UNL     1      -8.741  -9.814  18.329  0.00  0.00    -0.308 N 
ATOM     14  C   UNL     1      -9.876  -9.139  17.861  0.00  0.00    +0.244 C 
ATOM     25  H   UNL     1      -8.837 -10.426  19.135  0.00  0.00    +0.149 HD
BRANCH  14  16
ATOM     16  C   UNL     1     -11.143  -9.441  18.507  0.00  0.00    +0.037 A 
ATOM     18  C   UNL     1     -12.340  -9.253  17.817  0.00  0.00    +0.013 A 
ATOM     19  C   UNL     1     -11.161  -9.922  19.816  0.00  0.00    +0.013 A 
ATOM     21  C   UNL     1     -13.556  -9.544  18.436  0.00  0.00    +0.001 A 
ATOM     22  C   UNL     1     -12.375 -10.213  20.436  0.00  0.00    +0.001 A 
ATOM     23  C   UNL     1     -13.573 -10.025  19.746  0.00  0.00    +0.000 A 
ENDBRANCH  14  16
ENDBRANCH   8   4
BRANCH   7  10
ATOM     10  C   UNL     1      -4.845 -11.962  17.388  0.00  0.00    +0.063 C 
BRANCH  10  13
ATOM      1  O   UNL     1      -3.419 -13.245  14.332  0.00  0.00    -0.357 OA
ATOM      5  N   UNL     1      -4.258 -13.346  15.436  0.00  0.00    -0.083 NA
ATOM     13  C   UNL     1      -4.079 -12.207  16.110  0.00  0.00    +0.084 A 
ATOM     15  C   UNL     1      -3.149 -11.358  15.487  0.00  0.00    +0.073 A 
ATOM     17  C   UNL     1      -2.764 -12.057  14.373  0.00  0.00    +0.163 A 
BRANCH  17  20
ATOM     20  C   UNL     1      -1.830 -11.785  13.274  0.00  0.00    +0.236 C 
BRANCH  20   3
ATOM      3  O   UNL     1      -2.543 -11.630  12.044  0.00  0.00    -0.375 OA
ATOM     24  C   UNL     1      -2.467 -10.296  11.570  0.00  0.00    +0.194 C 
ENDBRANCH  20   3
ENDBRANCH  17  20
ENDBRANCH  10  13
ENDBRANCH   7  10
TORSDOF 6
ENDMDL
MODEL 10
REMARK VINA RESULT:      -5.3     32.526     34.060
REMARK  Name = 56774078
REMARK  9 active torsions:
REMARK  status: ('A' for Active; 'I' for Inactive)
REMARK    1  A    between atoms: O_3  and  C_20
REMARK    2  A    between atoms: O_3  and  C_24
REMARK    3  A    between atoms: N_4  and  C_8
REMARK    4  A    between atoms: C_6  and  C_11
REMARK    5  A    between atoms: C_6  and  C_12
REMARK    6  A    between atoms: C_7  and  C_10
REMARK    7  A    between atoms: C_10  and  C_13
REMARK    8  A    between atoms: C_14  and  C_16
REMARK    9  A    between atoms: C_17  and  C_20
REMARK                            x       y       z     vdW  Elec       q    Type
REMARK                         _______ _______ _______ _____ _____    ______ ____
ROOT
ATOM      6  C   UNL     1     -15.284   6.710  32.303  0.00  0.00    -0.013 C 
ATOM      7  C   UNL     1     -15.105   5.262  31.801  0.00  0.00    +0.004 C 
ATOM      8  C   UNL     1     -13.758   6.737  32.533  0.00  0.00    +0.079 C 
ATOM      9  C   UNL     1     -13.828   5.201  32.666  0.00  0.00    +0.027 C 
ATOM     11  C   UNL     1     -15.739   7.718  31.263  0.00  0.00    +0.013 C 
ATOM     12  C   UNL     1     -16.150   6.821  33.537  0.00  0.00    +0.013 C 
ENDROOT
BRANCH   8   4
ATOM      2  O   UNL     1     -12.085   9.074  32.704  0.00  0.00    -0.270 OA
ATOM      4  N   UNL     1     -13.310   7.418  33.763  0.00  0.00    -0.308 N 
ATOM     14  C   UNL     1     -12.492   8.556  33.759  0.00  0.00    +0.244 C 
ATOM     25  H   UNL     1     -13.566   7.007  34.657  0.00  0.00    +0.149 HD
BRANCH  14  16
ATOM     16  C   UNL     1     -12.147   9.131  35.049  0.00  0.00    +0.037 A 
ATOM     18  C   UNL     1     -12.399   8.418  36.221  0.00  0.00    +0.013 A 
ATOM     19  C   UNL     1     -11.561  10.395  35.115  0.00  0.00    +0.013 A 
ATOM     21  C   UNL     1     -12.067   8.970  37.459  0.00  0.00    +0.001 A 
ATOM     22  C   UNL     1     -11.228  10.947  36.351  0.00  0.00    +0.001 A 
ATOM     23  C   UNL     1     -11.482  10.235  37.523  0.00  0.00    +0.000 A 
ENDBRANCH  14  16
ENDBRANCH   8   4
BRANCH   7  10
ATOM     10  C   UNL     1     -16.173   4.262  32.177  0.00  0.00    +0.063 C 
BRANCH  10  13
ATOM      1  O   UNL     1     -14.838   0.966  32.788  0.00  0.00    -0.357 OA
ATOM      5  N   UNL     1     -15.287   2.210  33.215  0.00  0.00    -0.083 NA
ATOM     13  C   UNL     1     -15.629   2.855  32.096  0.00  0.00    +0.084 A 
ATOM     15  C   UNL     1     -15.420   2.077  30.946  0.00  0.00    +0.073 A 
ATOM     17  C   UNL     1     -14.921   0.898  31.435  0.00  0.00    +0.163 A 
BRANCH  17  20
ATOM     20  C   UNL     1     -14.483  -0.357  30.813  0.00  0.00    +0.236 C 
BRANCH  20   3
ATOM      3  O   UNL     1     -13.675  -0.086  29.665  0.00  0.00    -0.375 OA
ATOM     24  C   UNL     1     -13.054  -1.267  29.185  0.00  0.00    +0.194 C 
ENDBRANCH  20   3
ENDBRANCH  17  20
ENDBRANCH  10  13
ENDBRANCH   7  10
TORSDOF 6
ENDMDL
