MODEL 1
REMARK VINA RESULT:      -6.3      0.000      0.000
REMARK  Name = 38028444
REMARK  12 active torsions:
REMARK  status: ('A' for Active; 'I' for Inactive)
REMARK    1  A    between atoms: N_3  and  C_14
REMARK    2  A    between atoms: N_4  and  C_21
REMARK    3  A    between atoms: N_5  and  C_23
REMARK    4  A    between atoms: C_7  and  C_11
REMARK    5  A    between atoms: C_8  and  C_14
REMARK    6  A    between atoms: C_10  and  C_15
REMARK    7  A    between atoms: C_11  and  C_16
REMARK    8  A    between atoms: C_11  and  C_17
REMARK    9  A    between atoms: C_12  and  C_18
REMARK   10  A    between atoms: C_15  and  C_19
REMARK   11  A    between atoms: C_21  and  C_22
REMARK   12  A    between atoms: C_23  and  C_24
REMARK                            x       y       z     vdW  Elec       q    Type
REMARK                         _______ _______ _______ _____ _____    ______ ____
ROOT
ATOM      7  C   UNL     1      -5.783 -10.533  15.286  0.00  0.00    +0.000 C 
ATOM      8  C   UNL     1      -6.621 -10.563  16.588  0.00  0.00    +0.032 C 
ATOM      9  C   UNL     1      -4.825 -11.734  15.237  0.00  0.00    +0.012 C 
ATOM     10  C   UNL     1      -3.860 -11.759  16.439  0.00  0.00    +0.023 C 
ATOM     12  C   UNL     1      -4.586 -11.524  17.747  0.00  0.00    -0.073 C 
ATOM     13  C   UNL     1      -5.824 -11.002  17.794  0.00  0.00    -0.022 C 
ATOM     18  C   UNL     1      -3.873 -11.948  19.002  0.00  0.00    +0.039 C 
ENDROOT
BRANCH   7  11
ATOM     11  C   UNL     1      -6.670 -10.528  14.038  0.00  0.00    -0.013 C 
ATOM     16  C   UNL     1      -5.985  -9.777  12.901  0.00  0.00    +0.007 C 
ATOM     17  C   UNL     1      -7.008 -11.955  13.618  0.00  0.00    +0.007 C 
ENDBRANCH   7  11
BRANCH   8  14
ATOM     14  C   UNL     1      -7.258  -9.197  16.866  0.00  0.00    +0.113 C 
BRANCH  14   3
ATOM      2  O   UNL     1     -10.106  -9.562  16.579  0.00  0.00    -0.253 OA
ATOM      3  N   UNL     1      -8.224  -9.290  17.915  0.00  0.00    -0.299 N 
ATOM      5  N   UNL     1     -10.307  -9.524  18.890  0.00  0.00    -0.300 N 
ATOM     20  C   UNL     1      -9.596  -9.468  17.695  0.00  0.00    +0.300 C 
ATOM     29  H   UNL     1      -7.896  -9.293  18.876  0.00  0.00    +0.150 HD
ATOM     31  H   UNL     1      -9.802  -9.423  19.765  0.00  0.00    +0.150 HD
BRANCH   5  23
ATOM     23  C   UNL     1     -11.740  -9.702  18.941  0.00  0.00    +0.102 C 
ATOM     24  C   UNL     1     -12.211 -10.003  20.350  0.00  0.00    +0.024 C 
ENDBRANCH   5  23
ENDBRANCH  14   3
ENDBRANCH   8  14
BRANCH  10  15
ATOM     15  C   UNL     1      -2.722 -10.750  16.253  0.00  0.00    +0.103 C 
BRANCH  15  19
ATOM      1  O   UNL     1      -1.150 -11.975  14.881  0.00  0.00    -0.276 OA
ATOM      4  N   UNL     1      -2.165 -10.063  14.032  0.00  0.00    -0.311 N 
ATOM     19  C   UNL     1      -1.917 -11.023  15.003  0.00  0.00    +0.214 C 
ATOM     30  H   UNL     1      -2.822  -9.314  14.225  0.00  0.00    +0.149 HD
BRANCH   4  21
ATOM     21  C   UNL     1      -1.531 -10.074  12.734  0.00  0.00    +0.141 C 
BRANCH  21  22
ATOM      6  N   UNL     1      -3.736  -9.874   9.667  0.00  0.00    -0.263 NA
ATOM     22  C   UNL     1      -2.484 -10.478  11.646  0.00  0.00    -0.012 A 
ATOM     25  C   UNL     1      -2.997 -11.768  11.586  0.00  0.00    +0.008 A 
ATOM     26  C   UNL     1      -2.881  -9.576  10.671  0.00  0.00    +0.115 A 
ATOM     27  C   UNL     1      -3.881 -12.113  10.569  0.00  0.00    +0.020 A 
ATOM     28  C   UNL     1      -4.215 -11.139   9.643  0.00  0.00    +0.111 A 
ENDBRANCH  21  22
ENDBRANCH   4  21
ENDBRANCH  15  19
ENDBRANCH  10  15
TORSDOF 8
ENDMDL
MODEL 2
REMARK VINA RESULT:      -6.1     27.896     30.783
REMARK  Name = 38028444
REMARK  12 active torsions:
REMARK  status: ('A' for Active; 'I' for Inactive)
REMARK    1  A    between atoms: N_3  and  C_14
REMARK    2  A    between atoms: N_4  and  C_21
REMARK    3  A    between atoms: N_5  and  C_23
REMARK    4  A    between atoms: C_7  and  C_11
REMARK    5  A    between atoms: C_8  and  C_14
REMARK    6  A    between atoms: C_10  and  C_15
REMARK    7  A    between atoms: C_11  and  C_16
REMARK    8  A    between atoms: C_11  and  C_17
REMARK    9  A    between atoms: C_12  and  C_18
REMARK   10  A    between atoms: C_15  and  C_19
REMARK   11  A    between atoms: C_21  and  C_22
REMARK   12  A    between atoms: C_23  and  C_24
REMARK                            x       y       z     vdW  Elec       q    Type
REMARK                         _______ _______ _______ _____ _____    ______ ____
ROOT
ATOM      7  C   UNL     1      20.083   6.067  21.741  0.00  0.00    +0.000 C 
ATOM      8  C   UNL     1      20.394   7.341  22.565  0.00  0.00    +0.032 C 
ATOM      9  C   UNL     1      19.410   6.440  20.411  0.00  0.00    +0.012 C 
ATOM     10  C   UNL     1      18.096   7.218  20.621  0.00  0.00    +0.023 C 
ATOM     12  C   UNL     1      18.259   8.333  21.633  0.00  0.00    -0.073 C 
ATOM     13  C   UNL     1      19.299   8.379  22.484  0.00  0.00    -0.022 C 
ATOM     18  C   UNL     1      17.221   9.422  21.613  0.00  0.00    +0.039 C 
ENDROOT
BRANCH   7  11
ATOM     11  C   UNL     1      21.345   5.243  21.470  0.00  0.00    -0.013 C 
ATOM     16  C   UNL     1      20.978   3.886  20.880  0.00  0.00    +0.007 C 
ATOM     17  C   UNL     1      22.286   6.001  20.539  0.00  0.00    +0.007 C 
ENDBRANCH   7  11
BRANCH   8  14
ATOM     14  C   UNL     1      20.663   6.997  24.034  0.00  0.00    +0.113 C 
BRANCH  14   3
ATOM      2  O   UNL     1      20.049   6.900  26.852  0.00  0.00    -0.253 OA
ATOM      3  N   UNL     1      20.339   8.100  24.883  0.00  0.00    -0.299 N 
ATOM      5  N   UNL     1      19.769   9.203  26.833  0.00  0.00    -0.300 N 
ATOM     20  C   UNL     1      20.051   7.972  26.248  0.00  0.00    +0.300 C 
ATOM     29  H   UNL     1      20.381   9.038  24.495  0.00  0.00    +0.150 HD
ATOM     31  H   UNL     1      19.781  10.035  26.251  0.00  0.00    +0.150 HD
BRANCH   5  23
ATOM     23  C   UNL     1      19.440   9.348  28.233  0.00  0.00    +0.102 C 
ATOM     24  C   UNL     1      18.361  10.391  28.443  0.00  0.00    +0.024 C 
ENDBRANCH   5  23
ENDBRANCH  14   3
ENDBRANCH   8  14
BRANCH  10  15
ATOM     15  C   UNL     1      16.954   6.277  21.019  0.00  0.00    +0.103 C 
BRANCH  15  19
ATOM      1  O   UNL     1      15.724   6.811  19.006  0.00  0.00    -0.276 OA
ATOM      4  N   UNL     1      14.565   6.353  20.968  0.00  0.00    -0.311 N 
ATOM     19  C   UNL     1      15.708   6.515  20.197  0.00  0.00    +0.214 C 
ATOM     30  H   UNL     1      14.654   6.101  21.948  0.00  0.00    +0.149 HD
BRANCH   4  21
ATOM     21  C   UNL     1      13.231   6.521  20.443  0.00  0.00    +0.141 C 
BRANCH  21  22
ATOM      6  N   UNL     1      10.387   8.088  22.383  0.00  0.00    -0.263 NA
ATOM     22  C   UNL     1      12.437   7.522  21.232  0.00  0.00    -0.012 A 
ATOM     25  C   UNL     1      12.964   8.770  21.543  0.00  0.00    +0.008 A 
ATOM     26  C   UNL     1      11.155   7.232  21.672  0.00  0.00    +0.115 A 
ATOM     27  C   UNL     1      12.205   9.679  22.272  0.00  0.00    +0.020 A 
ATOM     28  C   UNL     1      10.934   9.292  22.665  0.00  0.00    +0.111 A 
ENDBRANCH  21  22
ENDBRANCH   4  21
ENDBRANCH  15  19
ENDBRANCH  10  15
TORSDOF 8
ENDMDL
MODEL 3
REMARK VINA RESULT:      -6.1      3.194      7.908
REMARK  Name = 38028444
REMARK  12 active torsions:
REMARK  status: ('A' for Active; 'I' for Inactive)
REMARK    1  A    between atoms: N_3  and  C_14
REMARK    2  A    between atoms: N_4  and  C_21
REMARK    3  A    between atoms: N_5  and  C_23
REMARK    4  A    between atoms: C_7  and  C_11
REMARK    5  A    between atoms: C_8  and  C_14
REMARK    6  A    between atoms: C_10  and  C_15
REMARK    7  A    between atoms: C_11  and  C_16
REMARK    8  A    between atoms: C_11  and  C_17
REMARK    9  A    between atoms: C_12  and  C_18
REMARK   10  A    between atoms: C_15  and  C_19
REMARK   11  A    between atoms: C_21  and  C_22
REMARK   12  A    between atoms: C_23  and  C_24
REMARK                            x       y       z     vdW  Elec       q    Type
REMARK                         _______ _______ _______ _____ _____    ______ ____
ROOT
ATOM      7  C   UNL     1      -5.185 -10.666  10.853  0.00  0.00    +0.000 C 
ATOM      8  C   UNL     1      -4.667  -9.762   9.707  0.00  0.00    +0.032 C 
ATOM      9  C   UNL     1      -4.634 -10.186  12.205  0.00  0.00    +0.012 C 
ATOM     10  C   UNL     1      -3.094 -10.189  12.240  0.00  0.00    +0.023 C 
ATOM     12  C   UNL     1      -2.502  -9.548  11.002  0.00  0.00    -0.073 C 
ATOM     13  C   UNL     1      -3.223  -9.353   9.884  0.00  0.00    -0.022 C 
ATOM     18  C   UNL     1      -1.071  -9.093  11.093  0.00  0.00    +0.039 C 
ENDROOT
BRANCH   7  11
ATOM     11  C   UNL     1      -6.716 -10.702  10.901  0.00  0.00    -0.013 C 
ATOM     16  C   UNL     1      -7.192 -11.486  12.119  0.00  0.00    +0.007 C 
ATOM     17  C   UNL     1      -7.282  -9.285  10.915  0.00  0.00    +0.007 C 
ENDBRANCH   7  11
BRANCH   8  14
ATOM     14  C   UNL     1      -4.841 -10.443   8.345  0.00  0.00    +0.113 C 
BRANCH  14   3
ATOM      2  O   UNL     1      -7.542 -10.082   7.397  0.00  0.00    -0.253 OA
ATOM      3  N   UNL     1      -5.291  -9.508   7.362  0.00  0.00    -0.299 N 
ATOM      5  N   UNL     1      -6.784  -8.405   5.985  0.00  0.00    -0.300 N 
ATOM     20  C   UNL     1      -6.625  -9.393   6.952  0.00  0.00    +0.300 C 
ATOM     29  H   UNL     1      -4.622  -8.845   6.983  0.00  0.00    +0.150 HD
ATOM     31  H   UNL     1      -5.965  -7.895   5.668  0.00  0.00    +0.150 HD
BRANCH   5  23
ATOM     23  C   UNL     1      -8.064  -8.084   5.395  0.00  0.00    +0.102 C 
ATOM     24  C   UNL     1      -8.186  -8.652   3.995  0.00  0.00    +0.024 C 
ENDBRANCH   5  23
ENDBRANCH  14   3
ENDBRANCH   8  14
BRANCH  10  15
ATOM     15  C   UNL     1      -2.549 -11.608  12.438  0.00  0.00    +0.103 C 
BRANCH  15  19
ATOM      1  O   UNL     1      -2.524 -13.162  14.292  0.00  0.00    -0.276 OA
ATOM      4  N   UNL     1      -2.423 -10.878  14.712  0.00  0.00    -0.311 N 
ATOM     19  C   UNL     1      -2.499 -12.000  13.897  0.00  0.00    +0.214 C 
ATOM     30  H   UNL     1      -2.403  -9.954  14.291  0.00  0.00    +0.149 HD
BRANCH   4  21
ATOM     21  C   UNL     1      -2.365 -10.953  16.152  0.00  0.00    +0.141 C 
BRANCH  21  22
ATOM      6  N   UNL     1      -5.974  -9.942  16.663  0.00  0.00    -0.263 NA
ATOM     22  C   UNL     1      -3.723 -10.819  16.779  0.00  0.00    -0.012 A 
ATOM     25  C   UNL     1      -4.007 -11.405  18.006  0.00  0.00    +0.008 A 
ATOM     26  C   UNL     1      -4.732 -10.104  16.153  0.00  0.00    +0.115 A 
ATOM     27  C   UNL     1      -5.272 -11.261  18.564  0.00  0.00    +0.020 A 
ATOM     28  C   UNL     1      -6.212 -10.527  17.858  0.00  0.00    +0.111 A 
ENDBRANCH  21  22
ENDBRANCH   4  21
ENDBRANCH  15  19
ENDBRANCH  10  15
TORSDOF 8
ENDMDL
MODEL 4
REMARK VINA RESULT:      -5.9     28.136     30.946
REMARK  Name = 38028444
REMARK  12 active torsions:
REMARK  status: ('A' for Active; 'I' for Inactive)
REMARK    1  A    between atoms: N_3  and  C_14
REMARK    2  A    between atoms: N_4  and  C_21
REMARK    3  A    between atoms: N_5  and  C_23
REMARK    4  A    between atoms: C_7  and  C_11
REMARK    5  A    between atoms: C_8  and  C_14
REMARK    6  A    between atoms: C_10  and  C_15
REMARK    7  A    between atoms: C_11  and  C_16
REMARK    8  A    between atoms: C_11  and  C_17
REMARK    9  A    between atoms: C_12  and  C_18
REMARK   10  A    between atoms: C_15  and  C_19
REMARK   11  A    between atoms: C_21  and  C_22
REMARK   12  A    between atoms: C_23  and  C_24
REMARK                            x       y       z     vdW  Elec       q    Type
REMARK                         _______ _______ _______ _____ _____    ______ ____
ROOT
ATOM      7  C   UNL     1      20.159   6.141  21.933  0.00  0.00    +0.000 C 
ATOM      8  C   UNL     1      20.492   7.423  22.737  0.00  0.00    +0.032 C 
ATOM      9  C   UNL     1      19.547   6.505  20.571  0.00  0.00    +0.012 C 
ATOM     10  C   UNL     1      18.259   7.339  20.716  0.00  0.00    +0.023 C 
ATOM     12  C   UNL     1      18.432   8.473  21.706  0.00  0.00    -0.073 C 
ATOM     13  C   UNL     1      19.443   8.500  22.592  0.00  0.00    -0.022 C 
ATOM     18  C   UNL     1      17.439   9.600  21.624  0.00  0.00    +0.039 C 
ENDROOT
BRANCH   7  11
ATOM     11  C   UNL     1      21.395   5.261  21.726  0.00  0.00    -0.013 C 
ATOM     16  C   UNL     1      21.044   4.038  20.886  0.00  0.00    +0.007 C 
ATOM     17  C   UNL     1      22.516   6.063  21.073  0.00  0.00    +0.007 C 
ENDBRANCH   7  11
BRANCH   8  14
ATOM     14  C   UNL     1      20.697   7.106  24.222  0.00  0.00    +0.113 C 
BRANCH  14   3
ATOM      2  O   UNL     1      19.991   7.086  27.020  0.00  0.00    -0.253 OA
ATOM      3  N   UNL     1      20.363   8.233  25.033  0.00  0.00    -0.299 N 
ATOM      5  N   UNL     1      19.748   9.391  26.938  0.00  0.00    -0.300 N 
ATOM     20  C   UNL     1      20.029   8.142  26.391  0.00  0.00    +0.300 C 
ATOM     29  H   UNL     1      20.432   9.161  24.626  0.00  0.00    +0.150 HD
ATOM     31  H   UNL     1      19.791  10.209  26.337  0.00  0.00    +0.150 HD
BRANCH   5  23
ATOM     23  C   UNL     1      19.376   9.575  28.322  0.00  0.00    +0.102 C 
ATOM     24  C   UNL     1      18.110  10.397  28.452  0.00  0.00    +0.024 C 
ENDBRANCH   5  23
ENDBRANCH  14   3
ENDBRANCH   8  14
BRANCH  10  15
ATOM     15  C   UNL     1      17.067   6.454  21.097  0.00  0.00    +0.103 C 
BRANCH  15  19
ATOM      1  O   UNL     1      16.299   5.803  18.897  0.00  0.00    -0.276 OA
ATOM      4  N   UNL     1      14.852   6.923  20.331  0.00  0.00    -0.311 N 
ATOM     19  C   UNL     1      16.061   6.341  19.975  0.00  0.00    +0.214 C 
ATOM     30  H   UNL     1      14.749   7.341  21.250  0.00  0.00    +0.149 HD
BRANCH   4  21
ATOM     21  C   UNL     1      13.708   6.962  19.451  0.00  0.00    +0.141 C 
BRANCH  21  22
ATOM      6  N   UNL     1      14.087   8.824  16.180  0.00  0.00    -0.263 NA
ATOM     22  C   UNL     1      13.793   8.093  18.466  0.00  0.00    -0.012 A 
ATOM     25  C   UNL     1      13.673   9.414  18.881  0.00  0.00    +0.008 A 
ATOM     26  C   UNL     1      13.997   7.853  17.117  0.00  0.00    +0.115 A 
ATOM     27  C   UNL     1      13.761  10.441  17.947  0.00  0.00    +0.020 A 
ATOM     28  C   UNL     1      13.965  10.096  16.621  0.00  0.00    +0.111 A 
ENDBRANCH  21  22
ENDBRANCH   4  21
ENDBRANCH  15  19
ENDBRANCH  10  15
TORSDOF 8
ENDMDL
MODEL 5
REMARK VINA RESULT:      -5.8      4.334      7.822
REMARK  Name = 38028444
REMARK  12 active torsions:
REMARK  status: ('A' for Active; 'I' for Inactive)
REMARK    1  A    between atoms: N_3  and  C_14
REMARK    2  A    between atoms: N_4  and  C_21
REMARK    3  A    between atoms: N_5  and  C_23
REMARK    4  A    between atoms: C_7  and  C_11
REMARK    5  A    between atoms: C_8  and  C_14
REMARK    6  A    between atoms: C_10  and  C_15
REMARK    7  A    between atoms: C_11  and  C_16
REMARK    8  A    between atoms: C_11  and  C_17
REMARK    9  A    between atoms: C_12  and  C_18
REMARK   10  A    between atoms: C_15  and  C_19
REMARK   11  A    between atoms: C_21  and  C_22
REMARK   12  A    between atoms: C_23  and  C_24
REMARK                            x       y       z     vdW  Elec       q    Type
REMARK                         _______ _______ _______ _____ _____    ______ ____
ROOT
ATOM      7  C   UNL     1      -5.350 -10.185   7.456  0.00  0.00    +0.000 C 
ATOM      8  C   UNL     1      -6.733  -9.598   7.831  0.00  0.00    +0.032 C 
ATOM      9  C   UNL     1      -4.783 -11.010   8.622  0.00  0.00    +0.012 C 
ATOM     10  C   UNL     1      -4.626 -10.172   9.905  0.00  0.00    +0.023 C 
ATOM     12  C   UNL     1      -5.865  -9.351  10.196  0.00  0.00    -0.073 C 
ATOM     13  C   UNL     1      -6.802  -9.116   9.261  0.00  0.00    -0.022 C 
ATOM     18  C   UNL     1      -6.025  -8.843  11.603  0.00  0.00    +0.039 C 
ENDROOT
BRANCH   7  11
ATOM     11  C   UNL     1      -5.422 -11.052   6.195  0.00  0.00    -0.013 C 
ATOM     16  C   UNL     1      -4.151 -11.880   6.044  0.00  0.00    +0.007 C 
ATOM     17  C   UNL     1      -6.653 -11.953   6.239  0.00  0.00    +0.007 C 
ENDBRANCH   7  11
BRANCH   8  14
ATOM     14  C   UNL     1      -7.122  -8.454   6.888  0.00  0.00    +0.113 C 
BRANCH  14   3
ATOM      2  O   UNL     1      -9.829  -7.476   6.686  0.00  0.00    -0.253 OA
ATOM      3  N   UNL     1      -7.702  -7.370   7.615  0.00  0.00    -0.299 N 
ATOM      5  N   UNL     1      -9.332  -5.875   8.289  0.00  0.00    -0.300 N 
ATOM     20  C   UNL     1      -9.030  -6.952   7.460  0.00  0.00    +0.300 C 
ATOM     29  H   UNL     1      -7.144  -6.914   8.331  0.00  0.00    +0.150 HD
ATOM     31  H   UNL     1      -8.603  -5.499   8.887  0.00  0.00    +0.150 HD
BRANCH   5  23
ATOM     23  C   UNL     1     -10.637  -5.255   8.323  0.00  0.00    +0.102 C 
ATOM     24  C   UNL     1     -10.633  -4.005   9.180  0.00  0.00    +0.024 C 
ENDBRANCH   5  23
ENDBRANCH  14   3
ENDBRANCH   8  14
BRANCH  10  15
ATOM     15  C   UNL     1      -3.380  -9.282   9.834  0.00  0.00    +0.103 C 
BRANCH  15  19
ATOM      1  O   UNL     1      -1.284  -9.071  11.024  0.00  0.00    -0.276 OA
ATOM      4  N   UNL     1      -2.732 -10.811  11.554  0.00  0.00    -0.311 N 
ATOM     19  C   UNL     1      -2.337  -9.680  10.853  0.00  0.00    +0.214 C 
ATOM     30  H   UNL     1      -3.627 -11.243  11.344  0.00  0.00    +0.149 HD
BRANCH   4  21
ATOM     21  C   UNL     1      -1.929 -11.416  12.590  0.00  0.00    +0.141 C 
BRANCH  21  22
ATOM      6  N   UNL     1      -2.038 -10.784  16.318  0.00  0.00    -0.263 NA
ATOM     22  C   UNL     1      -2.465 -11.124  13.962  0.00  0.00    -0.012 A 
ATOM     25  C   UNL     1      -3.825 -10.930  14.173  0.00  0.00    +0.008 A 
ATOM     26  C   UNL     1      -1.621 -11.041  15.058  0.00  0.00    +0.115 A 
ATOM     27  C   UNL     1      -4.294 -10.663  15.455  0.00  0.00    +0.020 A 
ATOM     28  C   UNL     1      -3.368 -10.601  16.483  0.00  0.00    +0.111 A 
ENDBRANCH  21  22
ENDBRANCH   4  21
ENDBRANCH  15  19
ENDBRANCH  10  15
TORSDOF 8
ENDMDL
MODEL 6
REMARK VINA RESULT:      -5.7     24.945     27.048
REMARK  Name = 38028444
REMARK  12 active torsions:
REMARK  status: ('A' for Active; 'I' for Inactive)
REMARK    1  A    between atoms: N_3  and  C_14
REMARK    2  A    between atoms: N_4  and  C_21
REMARK    3  A    between atoms: N_5  and  C_23
REMARK    4  A    between atoms: C_7  and  C_11
REMARK    5  A    between atoms: C_8  and  C_14
REMARK    6  A    between atoms: C_10  and  C_15
REMARK    7  A    between atoms: C_11  and  C_16
REMARK    8  A    between atoms: C_11  and  C_17
REMARK    9  A    between atoms: C_12  and  C_18
REMARK   10  A    between atoms: C_15  and  C_19
REMARK   11  A    between atoms: C_21  and  C_22
REMARK   12  A    between atoms: C_23  and  C_24
REMARK                            x       y       z     vdW  Elec       q    Type
REMARK                         _______ _______ _______ _____ _____    ______ ____
ROOT
ATOM      7  C   UNL     1       9.420   7.244   4.532  0.00  0.00    +0.000 C 
ATOM      8  C   UNL     1       9.437   5.902   5.306  0.00  0.00    +0.032 C 
ATOM      9  C   UNL     1       9.219   6.994   3.029  0.00  0.00    +0.012 C 
ATOM     10  C   UNL     1      10.325   6.102   2.434  0.00  0.00    +0.023 C 
ATOM     12  C   UNL     1      10.587   4.883   3.294  0.00  0.00    -0.073 C 
ATOM     13  C   UNL     1      10.172   4.806   4.570  0.00  0.00    -0.022 C 
ATOM     18  C   UNL     1      11.300   3.732   2.637  0.00  0.00    +0.039 C 
ENDROOT
BRANCH   7  11
ATOM     11  C   UNL     1       8.330   8.186   5.052  0.00  0.00    -0.013 C 
ATOM     16  C   UNL     1       8.950   9.338   5.835  0.00  0.00    +0.007 C 
ATOM     17  C   UNL     1       7.485   8.711   3.895  0.00  0.00    +0.007 C 
ENDBRANCH   7  11
BRANCH   8  14
ATOM     14  C   UNL     1      10.046   6.077   6.701  0.00  0.00    +0.113 C 
BRANCH  14   3
ATOM      2  O   UNL     1      12.072   8.130   6.647  0.00  0.00    -0.253 OA
ATOM      3  N   UNL     1      11.462   5.888   6.666  0.00  0.00    -0.299 N 
ATOM      5  N   UNL     1      13.697   6.475   6.608  0.00  0.00    -0.300 N 
ATOM     20  C   UNL     1      12.386   6.940   6.640  0.00  0.00    +0.300 C 
ATOM     29  H   UNL     1      11.826   4.942   6.727  0.00  0.00    +0.150 HD
ATOM     31  H   UNL     1      13.860   5.473   6.591  0.00  0.00    +0.150 HD
BRANCH   5  23
ATOM     23  C   UNL     1      14.841   7.357   6.577  0.00  0.00    +0.102 C 
ATOM     24  C   UNL     1      15.418   7.469   5.180  0.00  0.00    +0.024 C 
ENDBRANCH   5  23
ENDBRANCH  14   3
ENDBRANCH   8  14
BRANCH  10  15
ATOM     15  C   UNL     1      11.613   6.900   2.203  0.00  0.00    +0.103 C 
BRANCH  15  19
ATOM      1  O   UNL     1      12.364   8.164   0.282  0.00  0.00    -0.276 OA
ATOM      4  N   UNL     1      11.525   6.017  -0.017  0.00  0.00    -0.311 N 
ATOM     19  C   UNL     1      11.886   7.127   0.734  0.00  0.00    +0.214 C 
ATOM     30  H   UNL     1      11.141   5.201   0.449  0.00  0.00    +0.149 HD
BRANCH   4  21
ATOM     21  C   UNL     1      11.674   5.954  -1.452  0.00  0.00    +0.141 C 
BRANCH  21  22
ATOM      6  N   UNL     1       9.739   3.163  -3.117  0.00  0.00    -0.263 NA
ATOM     22  C   UNL     1      11.331   4.597  -1.995  0.00  0.00    -0.012 A 
ATOM     25  C   UNL     1      12.225   3.538  -1.894  0.00  0.00    +0.008 A 
ATOM     26  C   UNL     1      10.112   4.360  -2.609  0.00  0.00    +0.115 A 
ATOM     27  C   UNL     1      11.879   2.291  -2.403  0.00  0.00    +0.020 A 
ATOM     28  C   UNL     1      10.635   2.157  -2.999  0.00  0.00    +0.111 A 
ENDBRANCH  21  22
ENDBRANCH   4  21
ENDBRANCH  15  19
ENDBRANCH  10  15
TORSDOF 8
ENDMDL
MODEL 7
REMARK VINA RESULT:      -5.6     23.821     26.095
REMARK  Name = 38028444
REMARK  12 active torsions:
REMARK  status: ('A' for Active; 'I' for Inactive)
REMARK    1  A    between atoms: N_3  and  C_14
REMARK    2  A    between atoms: N_4  and  C_21
REMARK    3  A    between atoms: N_5  and  C_23
REMARK    4  A    between atoms: C_7  and  C_11
REMARK    5  A    between atoms: C_8  and  C_14
REMARK    6  A    between atoms: C_10  and  C_15
REMARK    7  A    between atoms: C_11  and  C_16
REMARK    8  A    between atoms: C_11  and  C_17
REMARK    9  A    between atoms: C_12  and  C_18
REMARK   10  A    between atoms: C_15  and  C_19
REMARK   11  A    between atoms: C_21  and  C_22
REMARK   12  A    between atoms: C_23  and  C_24
REMARK                            x       y       z     vdW  Elec       q    Type
REMARK                         _______ _______ _______ _____ _____    ______ ____
ROOT
ATOM      7  C   UNL     1       8.972   8.913   5.628  0.00  0.00    +0.000 C 
ATOM      8  C   UNL     1       8.818   9.191   7.144  0.00  0.00    +0.032 C 
ATOM      9  C   UNL     1       8.404   7.530   5.275  0.00  0.00    +0.012 C 
ATOM     10  C   UNL     1       9.104   6.398   6.052  0.00  0.00    +0.023 C 
ATOM     12  C   UNL     1       9.230   6.722   7.526  0.00  0.00    -0.073 C 
ATOM     13  C   UNL     1       9.086   7.973   7.998  0.00  0.00    -0.022 C 
ATOM     18  C   UNL     1       9.481   5.565   8.455  0.00  0.00    +0.039 C 
ENDROOT
BRANCH   7  11
ATOM     11  C   UNL     1       8.283   9.987   4.780  0.00  0.00    -0.013 C 
ATOM     16  C   UNL     1       9.298  10.691   3.885  0.00  0.00    +0.007 C 
ATOM     17  C   UNL     1       7.163   9.371   3.948  0.00  0.00    +0.007 C 
ENDBRANCH   7  11
BRANCH   8  14
ATOM     14  C   UNL     1       9.729  10.338   7.591  0.00  0.00    +0.113 C 
BRANCH  14   3
ATOM      2  O   UNL     1       8.456  12.545   8.946  0.00  0.00    -0.253 OA
ATOM      3  N   UNL     1       9.634  10.543   9.002  0.00  0.00    -0.299 N 
ATOM      5  N   UNL     1       9.052  11.596  10.977  0.00  0.00    -0.300 N 
ATOM     20  C   UNL     1       8.997  11.645   9.587  0.00  0.00    +0.300 C 
ATOM     29  H   UNL     1       9.991   9.821   9.621  0.00  0.00    +0.150 HD
ATOM     31  H   UNL     1       9.534  10.819  11.419  0.00  0.00    +0.150 HD
BRANCH   5  23
ATOM     23  C   UNL     1       8.469  12.614  11.820  0.00  0.00    +0.102 C 
ATOM     24  C   UNL     1       8.968  12.503  13.247  0.00  0.00    +0.024 C 
ENDBRANCH   5  23
ENDBRANCH  14   3
ENDBRANCH   8  14
BRANCH  10  15
ATOM     15  C   UNL     1      10.472   6.073   5.442  0.00  0.00    +0.103 C 
BRANCH  15  19
ATOM      1  O   UNL     1      10.033   3.708   5.180  0.00  0.00    -0.276 OA
ATOM      4  N   UNL     1      11.011   4.891   3.435  0.00  0.00    -0.311 N 
ATOM     19  C   UNL     1      10.466   4.753   4.704  0.00  0.00    +0.214 C 
ATOM     30  H   UNL     1      11.340   5.801   3.127  0.00  0.00    +0.149 HD
BRANCH   4  21
ATOM     21  C   UNL     1      11.135   3.791   2.507  0.00  0.00    +0.141 C 
BRANCH  21  22
ATOM      6  N   UNL     1      13.015   5.095  -0.505  0.00  0.00    -0.263 NA
ATOM     22  C   UNL     1      12.239   4.013   1.514  0.00  0.00    -0.012 A 
ATOM     25  C   UNL     1      13.469   3.381   1.657  0.00  0.00    +0.008 A 
ATOM     26  C   UNL     1      12.064   4.853   0.426  0.00  0.00    +0.115 A 
ATOM     27  C   UNL     1      14.472   3.603   0.720  0.00  0.00    +0.020 A 
ATOM     28  C   UNL     1      14.197   4.461  -0.333  0.00  0.00    +0.111 A 
ENDBRANCH  21  22
ENDBRANCH   4  21
ENDBRANCH  15  19
ENDBRANCH  10  15
TORSDOF 8
ENDMDL
MODEL 8
REMARK VINA RESULT:      -5.5     23.709     26.939
REMARK  Name = 38028444
REMARK  12 active torsions:
REMARK  status: ('A' for Active; 'I' for Inactive)
REMARK    1  A    between atoms: N_3  and  C_14
REMARK    2  A    between atoms: N_4  and  C_21
REMARK    3  A    between atoms: N_5  and  C_23
REMARK    4  A    between atoms: C_7  and  C_11
REMARK    5  A    between atoms: C_8  and  C_14
REMARK    6  A    between atoms: C_10  and  C_15
REMARK    7  A    between atoms: C_11  and  C_16
REMARK    8  A    between atoms: C_11  and  C_17
REMARK    9  A    between atoms: C_12  and  C_18
REMARK   10  A    between atoms: C_15  and  C_19
REMARK   11  A    between atoms: C_21  and  C_22
REMARK   12  A    between atoms: C_23  and  C_24
REMARK                            x       y       z     vdW  Elec       q    Type
REMARK                         _______ _______ _______ _____ _____    ______ ____
ROOT
ATOM      7  C   UNL     1       9.082   8.272   5.828  0.00  0.00    +0.000 C 
ATOM      8  C   UNL     1       8.796   8.331   7.349  0.00  0.00    +0.032 C 
ATOM      9  C   UNL     1       8.653   6.912   5.254  0.00  0.00    +0.012 C 
ATOM     10  C   UNL     1       9.383   5.737   5.933  0.00  0.00    +0.023 C 
ATOM     12  C   UNL     1       9.375   5.868   7.442  0.00  0.00    -0.073 C 
ATOM     13  C   UNL     1       9.097   7.031   8.058  0.00  0.00    -0.022 C 
ATOM     18  C   UNL     1       9.649   4.617   8.232  0.00  0.00    +0.039 C 
ENDROOT
BRANCH   7  11
ATOM     11  C   UNL     1       8.373   9.400   5.071  0.00  0.00    -0.013 C 
ATOM     16  C   UNL     1       9.394  10.341   4.442  0.00  0.00    +0.007 C 
ATOM     17  C   UNL     1       7.441   8.825   4.010  0.00  0.00    +0.007 C 
ENDBRANCH   7  11
BRANCH   8  14
ATOM     14  C   UNL     1       9.578   9.468   8.014  0.00  0.00    +0.113 C 
BRANCH  14   3
ATOM      2  O   UNL     1      11.465  11.443   7.082  0.00  0.00    -0.253 OA
ATOM      3  N   UNL     1      10.984   9.295   7.828  0.00  0.00    -0.299 N 
ATOM      5  N   UNL     1      13.156   9.868   7.279  0.00  0.00    -0.300 N 
ATOM     20  C   UNL     1      11.838  10.306   7.369  0.00  0.00    +0.300 C 
ATOM     29  H   UNL     1      11.404   8.412   8.102  0.00  0.00    +0.150 HD
ATOM     31  H   UNL     1      13.369   8.906   7.525  0.00  0.00    +0.150 HD
BRANCH   5  23
ATOM     23  C   UNL     1      14.236  10.717   6.832  0.00  0.00    +0.102 C 
ATOM     24  C   UNL     1      14.506  10.537   5.352  0.00  0.00    +0.024 C 
ENDBRANCH   5  23
ENDBRANCH  14   3
ENDBRANCH   8  14
BRANCH  10  15
ATOM     15  C   UNL     1      10.813   5.593   5.401  0.00  0.00    +0.103 C 
BRANCH  15  19
ATOM      1  O   UNL     1      10.183   4.391   3.399  0.00  0.00    -0.276 OA
ATOM      4  N   UNL     1      11.702   6.144   3.252  0.00  0.00    -0.311 N 
ATOM     19  C   UNL     1      10.841   5.286   3.921  0.00  0.00    +0.214 C 
ATOM     30  H   UNL     1      12.202   6.859   3.772  0.00  0.00    +0.149 HD
BRANCH   4  21
ATOM     21  C   UNL     1      11.928   6.080   1.827  0.00  0.00    +0.141 C 
BRANCH  21  22
ATOM      6  N   UNL     1      14.346   3.192   1.481  0.00  0.00    -0.263 NA
ATOM     22  C   UNL     1      13.168   5.304   1.488  0.00  0.00    -0.012 A 
ATOM     25  C   UNL     1      14.261   5.924   0.895  0.00  0.00    +0.008 A 
ATOM     26  C   UNL     1      13.260   3.948   1.758  0.00  0.00    +0.115 A 
ATOM     27  C   UNL     1      15.398   5.181   0.595  0.00  0.00    +0.020 A 
ATOM     28  C   UNL     1      15.390   3.831   0.905  0.00  0.00    +0.111 A 
ENDBRANCH  21  22
ENDBRANCH   4  21
ENDBRANCH  15  19
ENDBRANCH  10  15
TORSDOF 8
ENDMDL
MODEL 9
REMARK VINA RESULT:      -5.5      1.835      2.493
REMARK  Name = 38028444
REMARK  12 active torsions:
REMARK  status: ('A' for Active; 'I' for Inactive)
REMARK    1  A    between atoms: N_3  and  C_14
REMARK    2  A    between atoms: N_4  and  C_21
REMARK    3  A    between atoms: N_5  and  C_23
REMARK    4  A    between atoms: C_7  and  C_11
REMARK    5  A    between atoms: C_8  and  C_14
REMARK    6  A    between atoms: C_10  and  C_15
REMARK    7  A    between atoms: C_11  and  C_16
REMARK    8  A    between atoms: C_11  and  C_17
REMARK    9  A    between atoms: C_12  and  C_18
REMARK   10  A    between atoms: C_15  and  C_19
REMARK   11  A    between atoms: C_21  and  C_22
REMARK   12  A    between atoms: C_23  and  C_24
REMARK                            x       y       z     vdW  Elec       q    Type
REMARK                         _______ _______ _______ _____ _____    ______ ____
ROOT
ATOM      7  C   UNL     1      -7.391 -12.085  17.038  0.00  0.00    +0.000 C 
ATOM      8  C   UNL     1      -7.479 -12.379  18.556  0.00  0.00    +0.032 C 
ATOM      9  C   UNL     1      -6.108 -12.690  16.447  0.00  0.00    +0.012 C 
ATOM     10  C   UNL     1      -4.839 -12.138  17.126  0.00  0.00    +0.023 C 
ATOM     12  C   UNL     1      -4.959 -12.147  18.635  0.00  0.00    -0.073 C 
ATOM     13  C   UNL     1      -6.145 -12.269  19.257  0.00  0.00    -0.022 C 
ATOM     18  C   UNL     1      -3.677 -12.059  19.417  0.00  0.00    +0.039 C 
ENDROOT
BRANCH   7  11
ATOM     11  C   UNL     1      -8.611 -12.621  16.283  0.00  0.00    -0.013 C 
ATOM     16  C   UNL     1      -9.048 -11.632  15.207  0.00  0.00    +0.007 C 
ATOM     17  C   UNL     1      -8.302 -13.984  15.672  0.00  0.00    +0.007 C 
ENDBRANCH   7  11
BRANCH   8  14
ATOM     14  C   UNL     1      -8.493 -11.456  19.240  0.00  0.00    +0.113 C 
BRANCH  14   3
ATOM      2  O   UNL     1     -10.836 -10.018  18.363  0.00  0.00    -0.253 OA
ATOM      3  N   UNL     1      -8.530 -10.179  18.600  0.00  0.00    -0.299 N 
ATOM      5  N   UNL     1      -9.460  -8.311  17.604  0.00  0.00    -0.300 N 
ATOM     20  C   UNL     1      -9.713  -9.543  18.202  0.00  0.00    +0.300 C 
ATOM     29  H   UNL     1      -7.658  -9.670  18.483  0.00  0.00    +0.150 HD
ATOM     31  H   UNL     1      -8.497  -8.006  17.501  0.00  0.00    +0.150 HD
BRANCH   5  23
ATOM     23  C   UNL     1     -10.510  -7.453  17.104  0.00  0.00    +0.102 C 
ATOM     24  C   UNL     1     -10.171  -6.903  15.734  0.00  0.00    +0.024 C 
ENDBRANCH   5  23
ENDBRANCH  14   3
ENDBRANCH   8  14
BRANCH  10  15
ATOM     15  C   UNL     1      -4.502 -10.735  16.610  0.00  0.00    +0.103 C 
BRANCH  15  19
ATOM      1  O   UNL     1      -2.117 -10.518  16.268  0.00  0.00    -0.276 OA
ATOM      4  N   UNL     1      -3.498 -10.961  14.452  0.00  0.00    -0.311 N 
ATOM     19  C   UNL     1      -3.230 -10.719  15.792  0.00  0.00    +0.214 C 
ATOM     30  H   UNL     1      -4.455 -11.122  14.153  0.00  0.00    +0.149 HD
BRANCH   4  21
ATOM     21  C   UNL     1      -2.470 -11.003  13.438  0.00  0.00    +0.141 C 
BRANCH  21  22
ATOM      6  N   UNL     1      -4.295 -11.819  10.228  0.00  0.00    -0.263 NA
ATOM     22  C   UNL     1      -3.036 -10.858  12.055  0.00  0.00    -0.012 A 
ATOM     25  C   UNL     1      -2.848  -9.693  11.322  0.00  0.00    +0.008 A 
ATOM     26  C   UNL     1      -3.761 -11.884  11.468  0.00  0.00    +0.115 A 
ATOM     27  C   UNL     1      -3.381  -9.588  10.042  0.00  0.00    +0.020 A 
ATOM     28  C   UNL     1      -4.091 -10.670   9.546  0.00  0.00    +0.111 A 
ENDBRANCH  21  22
ENDBRANCH   4  21
ENDBRANCH  15  19
ENDBRANCH  10  15
TORSDOF 8
ENDMDL
MODEL 10
REMARK VINA RESULT:      -5.5     23.544     26.480
REMARK  Name = 38028444
REMARK  12 active torsions:
REMARK  status: ('A' for Active; 'I' for Inactive)
REMARK    1  A    between atoms: N_3  and  C_14
REMARK    2  A    between atoms: N_4  and  C_21
REMARK    3  A    between atoms: N_5  and  C_23
REMARK    4  A    between atoms: C_7  and  C_11
REMARK    5  A    between atoms: C_8  and  C_14
REMARK    6  A    between atoms: C_10  and  C_15
REMARK    7  A    between atoms: C_11  and  C_16
REMARK    8  A    between atoms: C_11  and  C_17
REMARK    9  A    between atoms: C_12  and  C_18
REMARK   10  A    between atoms: C_15  and  C_19
REMARK   11  A    between atoms: C_21  and  C_22
REMARK   12  A    between atoms: C_23  and  C_24
REMARK                            x       y       z     vdW  Elec       q    Type
REMARK                         _______ _______ _______ _____ _____    ______ ____
ROOT
ATOM      7  C   UNL     1       9.753   6.255   5.974  0.00  0.00    +0.000 C 
ATOM      8  C   UNL     1      10.055   7.751   6.239  0.00  0.00    +0.032 C 
ATOM      9  C   UNL     1      10.931   5.590   5.245  0.00  0.00    +0.012 C 
ATOM     10  C   UNL     1      11.241   6.271   3.898  0.00  0.00    +0.023 C 
ATOM     12  C   UNL     1      11.290   7.779   4.028  0.00  0.00    -0.073 C 
ATOM     13  C   UNL     1      10.767   8.422   5.088  0.00  0.00    -0.022 C 
ATOM     18  C   UNL     1      11.996   8.531   2.933  0.00  0.00    +0.039 C 
ENDROOT
BRANCH   7  11
ATOM     11  C   UNL     1       9.452   5.497   7.270  0.00  0.00    -0.013 C 
ATOM     16  C   UNL     1       9.670   4.001   7.075  0.00  0.00    +0.007 C 
ATOM     17  C   UNL     1      10.318   6.026   8.409  0.00  0.00    +0.007 C 
ENDBRANCH   7  11
BRANCH   8  14
ATOM     14  C   UNL     1       8.774   8.524   6.567  0.00  0.00    +0.113 C 
BRANCH  14   3
ATOM      2  O   UNL     1       7.873  10.774   5.001  0.00  0.00    -0.253 OA
ATOM      3  N   UNL     1       7.866   8.497   5.464  0.00  0.00    -0.299 N 
ATOM      5  N   UNL     1       6.584   9.326   3.728  0.00  0.00    -0.300 N 
ATOM     20  C   UNL     1       7.475   9.637   4.751  0.00  0.00    +0.300 C 
ATOM     29  H   UNL     1       7.533   7.596   5.133  0.00  0.00    +0.150 HD
ATOM     31  H   UNL     1       6.301   8.359   3.604  0.00  0.00    +0.150 HD
BRANCH   5  23
ATOM     23  C   UNL     1       6.028  10.323   2.842  0.00  0.00    +0.102 C 
ATOM     24  C   UNL     1       4.764  10.930   3.416  0.00  0.00    +0.024 C 
ENDBRANCH   5  23
ENDBRANCH  14   3
ENDBRANCH   8  14
BRANCH  10  15
ATOM     15  C   UNL     1      10.238   5.845   2.820  0.00  0.00    +0.103 C 
BRANCH  15  19
ATOM      1  O   UNL     1      10.002   4.016   1.254  0.00  0.00    -0.276 OA
ATOM      4  N   UNL     1      11.989   4.262   2.436  0.00  0.00    -0.311 N 
ATOM     19  C   UNL     1      10.696   4.614   2.072  0.00  0.00    +0.214 C 
ATOM     30  H   UNL     1      12.486   4.823   3.120  0.00  0.00    +0.149 HD
BRANCH   4  21
ATOM     21  C   UNL     1      12.681   3.124   1.880  0.00  0.00    +0.141 C 
BRANCH  21  22
ATOM      6  N   UNL     1      14.135   4.021  -1.494  0.00  0.00    -0.263 NA
ATOM     22  C   UNL     1      13.673   3.527   0.827  0.00  0.00    -0.012 A 
ATOM     25  C   UNL     1      15.002   3.772   1.152  0.00  0.00    +0.008 A 
ATOM     26  C   UNL     1      13.293   3.664  -0.499  0.00  0.00    +0.115 A 
ATOM     27  C   UNL     1      15.900   4.140   0.155  0.00  0.00    +0.020 A 
ATOM     28  C   UNL     1      15.420   4.250  -1.140  0.00  0.00    +0.111 A 
ENDBRANCH  21  22
ENDBRANCH   4  21
ENDBRANCH  15  19
ENDBRANCH  10  15
TORSDOF 8
ENDMDL
