MODEL 1
REMARK VINA RESULT:      -7.7      0.000      0.000
REMARK  Name = 11865554
REMARK  8 active torsions:
REMARK  status: ('A' for Active; 'I' for Inactive)
REMARK    1  A    between atoms: O_3  and  C_13
REMARK    2  A    between atoms: O_3  and  C_17
REMARK    3  A    between atoms: N_6  and  C_12
REMARK    4  A    between atoms: N_7  and  C_19
REMARK    5  A    between atoms: C_16  and  C_18
REMARK    6  A    between atoms: C_22  and  C_23
REMARK    7  A    between atoms: C_22  and  C_28
REMARK    8  A    between atoms: C_22  and  C_29
REMARK                            x       y       z     vdW  Elec       q    Type
REMARK                         _______ _______ _______ _____ _____    ______ ____
ROOT
ATOM      1  O   UNL     1     -17.009   4.543  25.624  0.00  0.00    -0.368 OA
ATOM      2  O   UNL     1     -16.881   1.780  24.302  0.00  0.00    -0.368 OA
ATOM     10  C   UNL     1     -16.129   2.354  25.392  0.00  0.00    +0.173 C 
ATOM     11  C   UNL     1     -15.910   3.814  25.053  0.00  0.00    +0.192 C 
ATOM     12  C   UNL     1     -16.977   2.394  26.642  0.00  0.00    +0.130 C 
ATOM     13  C   UNL     1     -15.966   3.811  23.544  0.00  0.00    +0.235 C 
ATOM     14  C   UNL     1     -17.797   3.655  26.433  0.00  0.00    +0.185 C 
ATOM     15  C   UNL     1     -17.019   2.763  23.265  0.00  0.00    +0.207 C 
ENDROOT
BRANCH  12   6
ATOM      4  O   UNL     1     -16.681   0.402  28.688  0.00  0.00    -0.270 OA
ATOM      6  N   UNL     1     -16.158   2.490  27.825  0.00  0.00    -0.304 N 
ATOM     16  C   UNL     1     -16.079   1.469  28.762  0.00  0.00    +0.247 C 
ATOM     31  H   UNL     1     -15.709   3.381  28.007  0.00  0.00    +0.149 HD
BRANCH  16  18
ATOM      8  N   UNL     1     -13.510   3.023  30.984  0.00  0.00    -0.243 NA
ATOM      9  N   UNL     1     -14.527   1.172  32.145  0.00  0.00    -0.243 NA
ATOM     18  C   UNL     1     -15.213   1.733  29.940  0.00  0.00    +0.073 A 
ATOM     20  C   UNL     1     -14.312   2.755  29.933  0.00  0.00    +0.127 A 
ATOM     21  C   UNL     1     -15.298   0.960  31.058  0.00  0.00    +0.127 A 
ATOM     30  C   UNL     1     -13.669   2.203  32.042  0.00  0.00    +0.221 A 
ENDBRANCH  16  18
ENDBRANCH  12   6
BRANCH  13   3
ATOM      3  O   UNL     1     -16.304   5.063  22.990  0.00  0.00    -0.442 OA
BRANCH   3  17
ATOM      5  O   UNL     1     -15.781   5.126  20.764  0.00  0.00    -0.226 OA
ATOM      7  N   UNL     1     -14.569   6.354  22.346  0.00  0.00    -0.251 N 
ATOM     17  C   UNL     1     -15.557   5.490  21.912  0.00  0.00    +0.405 C 
ATOM     32  H   UNL     1     -14.542   6.537  23.346  0.00  0.00    +0.158 HD
BRANCH   7  19
ATOM     19  C   UNL     1     -13.591   7.018  21.572  0.00  0.00    +0.036 A 
ATOM     23  C   UNL     1     -11.672   8.320  20.054  0.00  0.00    -0.045 A 
ATOM     24  C   UNL     1     -13.785   8.345  21.225  0.00  0.00    +0.024 A 
ATOM     25  C   UNL     1     -12.456   6.329  21.176  0.00  0.00    +0.024 A 
ATOM     26  C   UNL     1     -12.820   9.001  20.461  0.00  0.00    +0.006 A 
ATOM     27  C   UNL     1     -11.490   6.984  20.412  0.00  0.00    +0.006 A 
BRANCH  23  22
ATOM     22  C   UNL     1     -10.638   9.021  19.238  0.00  0.00    +0.013 C 
ATOM     28  C   UNL     1     -10.557   8.478  17.800  0.00  0.00    +0.012 C 
ATOM     29  C   UNL     1     -10.847  10.547  19.210  0.00  0.00    +0.012 C 
ENDBRANCH  23  22
ENDBRANCH   7  19
ENDBRANCH   3  17
ENDBRANCH  13   3
TORSDOF 6
ENDMDL
MODEL 2
REMARK VINA RESULT:      -7.5     27.021     30.059
REMARK  Name = 11865554
REMARK  8 active torsions:
REMARK  status: ('A' for Active; 'I' for Inactive)
REMARK    1  A    between atoms: O_3  and  C_13
REMARK    2  A    between atoms: O_3  and  C_17
REMARK    3  A    between atoms: N_6  and  C_12
REMARK    4  A    between atoms: N_7  and  C_19
REMARK    5  A    between atoms: C_16  and  C_18
REMARK    6  A    between atoms: C_22  and  C_23
REMARK    7  A    between atoms: C_22  and  C_28
REMARK    8  A    between atoms: C_22  and  C_29
REMARK                            x       y       z     vdW  Elec       q    Type
REMARK                         _______ _______ _______ _____ _____    ______ ____
ROOT
ATOM      1  O   UNL     1      12.344  10.087  20.860  0.00  0.00    -0.368 OA
ATOM      2  O   UNL     1      10.443   8.093  22.205  0.00  0.00    -0.368 OA
ATOM     10  C   UNL     1      11.528   8.885  22.733  0.00  0.00    +0.173 C 
ATOM     11  C   UNL     1      12.602   8.926  21.666  0.00  0.00    +0.192 C 
ATOM     12  C   UNL     1      11.098  10.327  22.870  0.00  0.00    +0.130 C 
ATOM     13  C   UNL     1      12.351   7.648  20.901  0.00  0.00    +0.235 C 
ATOM     14  C   UNL     1      11.289  10.855  21.459  0.00  0.00    +0.185 C 
ATOM     15  C   UNL     1      10.843   7.542  20.941  0.00  0.00    +0.207 C 
ENDROOT
BRANCH  12   6
ATOM      4  O   UNL     1      10.263  12.380  24.695  0.00  0.00    -0.270 OA
ATOM      6  N   UNL     1      11.931  11.033  23.812  0.00  0.00    -0.304 N 
ATOM     16  C   UNL     1      11.434  12.015  24.658  0.00  0.00    +0.247 C 
ATOM     31  H   UNL     1      12.930  10.858  23.770  0.00  0.00    +0.149 HD
BRANCH  16  18
ATOM      8  N   UNL     1      14.558  12.653  26.603  0.00  0.00    -0.243 NA
ATOM      9  N   UNL     1      13.032  14.484  26.959  0.00  0.00    -0.243 NA
ATOM     18  C   UNL     1      12.426  12.668  25.551  0.00  0.00    +0.073 A 
ATOM     20  C   UNL     1      13.634  12.088  25.798  0.00  0.00    +0.127 A 
ATOM     21  C   UNL     1      12.154  13.863  26.143  0.00  0.00    +0.127 A 
ATOM     30  C   UNL     1      14.196  13.833  27.142  0.00  0.00    +0.221 A 
ENDBRANCH  16  18
ENDBRANCH  12   6
BRANCH  13   3
ATOM      3  O   UNL     1      12.845   7.675  19.581  0.00  0.00    -0.442 OA
BRANCH   3  17
ATOM      5  O   UNL     1      14.699   8.732  18.757  0.00  0.00    -0.226 OA
ATOM      7  N   UNL     1      14.870   6.845  20.132  0.00  0.00    -0.251 N 
ATOM     17  C   UNL     1      14.207   7.833  19.428  0.00  0.00    +0.405 C 
ATOM     32  H   UNL     1      14.283   6.182  20.633  0.00  0.00    +0.158 HD
BRANCH   7  19
ATOM     19  C   UNL     1      16.263   6.641  20.243  0.00  0.00    +0.036 A 
ATOM     23  C   UNL     1      18.997   6.240  20.462  0.00  0.00    -0.045 A 
ATOM     24  C   UNL     1      16.950   7.204  21.307  0.00  0.00    +0.024 A 
ATOM     25  C   UNL     1      16.917   5.881  19.286  0.00  0.00    +0.024 A 
ATOM     26  C   UNL     1      18.326   7.003  21.417  0.00  0.00    +0.006 A 
ATOM     27  C   UNL     1      18.293   5.678  19.396  0.00  0.00    +0.006 A 
BRANCH  23  22
ATOM     22  C   UNL     1      20.469   6.024  20.579  0.00  0.00    +0.013 C 
ATOM     28  C   UNL     1      21.046   6.605  21.883  0.00  0.00    +0.012 C 
ATOM     29  C   UNL     1      20.856   4.538  20.452  0.00  0.00    +0.012 C 
ENDBRANCH  23  22
ENDBRANCH   7  19
ENDBRANCH   3  17
ENDBRANCH  13   3
TORSDOF 6
ENDMDL
MODEL 3
REMARK VINA RESULT:      -7.3     29.514     32.723
REMARK  Name = 11865554
REMARK  8 active torsions:
REMARK  status: ('A' for Active; 'I' for Inactive)
REMARK    1  A    between atoms: O_3  and  C_13
REMARK    2  A    between atoms: O_3  and  C_17
REMARK    3  A    between atoms: N_6  and  C_12
REMARK    4  A    between atoms: N_7  and  C_19
REMARK    5  A    between atoms: C_16  and  C_18
REMARK    6  A    between atoms: C_22  and  C_23
REMARK    7  A    between atoms: C_22  and  C_28
REMARK    8  A    between atoms: C_22  and  C_29
REMARK                            x       y       z     vdW  Elec       q    Type
REMARK                         _______ _______ _______ _____ _____    ______ ____
ROOT
ATOM      1  O   UNL     1      15.970   9.274  19.966  0.00  0.00    -0.368 OA
ATOM      2  O   UNL     1      14.519   6.575  20.082  0.00  0.00    -0.368 OA
ATOM     10  C   UNL     1      14.389   7.766  20.887  0.00  0.00    +0.173 C 
ATOM     11  C   UNL     1      15.781   8.343  21.045  0.00  0.00    +0.192 C 
ATOM     12  C   UNL     1      13.639   8.831  20.121  0.00  0.00    +0.130 C 
ATOM     13  C   UNL     1      16.659   7.123  20.892  0.00  0.00    +0.235 C 
ATOM     14  C   UNL     1      14.732   9.435  19.256  0.00  0.00    +0.185 C 
ATOM     15  C   UNL     1      15.912   6.321  19.850  0.00  0.00    +0.207 C 
ENDROOT
BRANCH  12   6
ATOM      4  O   UNL     1      10.911   8.972  21.005  0.00  0.00    -0.270 OA
ATOM      6  N   UNL     1      13.073   9.813  21.012  0.00  0.00    -0.304 N 
ATOM     16  C   UNL     1      11.735   9.800  21.384  0.00  0.00    +0.247 C 
ATOM     31  H   UNL     1      13.667  10.587  21.288  0.00  0.00    +0.149 HD
BRANCH  16  18
ATOM      8  N   UNL     1      10.550  11.614  24.425  0.00  0.00    -0.243 NA
ATOM      9  N   UNL     1      10.850  13.203  22.638  0.00  0.00    -0.243 NA
ATOM     18  C   UNL     1      11.300  10.896  22.287  0.00  0.00    +0.073 A 
ATOM     20  C   UNL     1      10.950  10.643  23.578  0.00  0.00    +0.127 A 
ATOM     21  C   UNL     1      11.240  12.183  21.846  0.00  0.00    +0.127 A 
ATOM     30  C   UNL     1      10.524  12.853  23.896  0.00  0.00    +0.221 A 
ENDBRANCH  16  18
ENDBRANCH  12   6
BRANCH  13   3
ATOM      3  O   UNL     1      17.975   7.425  20.485  0.00  0.00    -0.442 OA
BRANCH   3  17
ATOM      5  O   UNL     1      19.126   6.847  22.375  0.00  0.00    -0.226 OA
ATOM      7  N   UNL     1      19.798   6.115  20.256  0.00  0.00    -0.251 N 
ATOM     17  C   UNL     1      18.997   6.788  21.159  0.00  0.00    +0.405 C 
ATOM     32  H   UNL     1      19.527   6.185  19.278  0.00  0.00    +0.158 HD
BRANCH   7  19
ATOM     19  C   UNL     1      20.947   5.338  20.522  0.00  0.00    +0.036 A 
ATOM     23  C   UNL     1      23.203   3.814  21.045  0.00  0.00    -0.045 A 
ATOM     24  C   UNL     1      22.198   5.933  20.463  0.00  0.00    +0.024 A 
ATOM     25  C   UNL     1      20.803   3.997  20.838  0.00  0.00    +0.024 A 
ATOM     26  C   UNL     1      23.333   5.166  20.726  0.00  0.00    +0.006 A 
ATOM     27  C   UNL     1      21.937   3.229  21.102  0.00  0.00    +0.006 A 
BRANCH  23  22
ATOM     22  C   UNL     1      24.417   2.994  21.327  0.00  0.00    +0.013 C 
ATOM     28  C   UNL     1      25.014   3.285  22.716  0.00  0.00    +0.012 C 
ATOM     29  C   UNL     1      24.154   1.484  21.176  0.00  0.00    +0.012 C 
ENDBRANCH  23  22
ENDBRANCH   7  19
ENDBRANCH   3  17
ENDBRANCH  13   3
TORSDOF 6
ENDMDL
MODEL 4
REMARK VINA RESULT:      -7.3     27.700     30.964
REMARK  Name = 11865554
REMARK  8 active torsions:
REMARK  status: ('A' for Active; 'I' for Inactive)
REMARK    1  A    between atoms: O_3  and  C_13
REMARK    2  A    between atoms: O_3  and  C_17
REMARK    3  A    between atoms: N_6  and  C_12
REMARK    4  A    between atoms: N_7  and  C_19
REMARK    5  A    between atoms: C_16  and  C_18
REMARK    6  A    between atoms: C_22  and  C_23
REMARK    7  A    between atoms: C_22  and  C_28
REMARK    8  A    between atoms: C_22  and  C_29
REMARK                            x       y       z     vdW  Elec       q    Type
REMARK                         _______ _______ _______ _____ _____    ______ ____
ROOT
ATOM      1  O   UNL     1      14.107   9.457  19.927  0.00  0.00    -0.368 OA
ATOM      2  O   UNL     1      11.705   7.927  18.792  0.00  0.00    -0.368 OA
ATOM     10  C   UNL     1      11.967   8.455  20.109  0.00  0.00    +0.173 C 
ATOM     11  C   UNL     1      13.446   8.262  20.374  0.00  0.00    +0.192 C 
ATOM     12  C   UNL     1      11.790   9.955  20.112  0.00  0.00    +0.130 C 
ATOM     13  C   UNL     1      13.781   7.077  19.499  0.00  0.00    +0.235 C 
ATOM     14  C   UNL     1      13.122  10.437  19.564  0.00  0.00    +0.185 C 
ATOM     15  C   UNL     1      12.901   7.310  18.293  0.00  0.00    +0.207 C 
ENDROOT
BRANCH  12   6
ATOM      4  O   UNL     1      11.460  12.700  20.887  0.00  0.00    -0.270 OA
ATOM      6  N   UNL     1      11.562  10.452  21.447  0.00  0.00    -0.304 N 
ATOM     16  C   UNL     1      11.413  11.804  21.725  0.00  0.00    +0.247 C 
ATOM     31  H   UNL     1      11.610   9.781  22.206  0.00  0.00    +0.149 HD
BRANCH  16  18
ATOM      8  N   UNL     1      10.953  13.812  24.839  0.00  0.00    -0.243 NA
ATOM      9  N   UNL     1      10.911  11.471  25.409  0.00  0.00    -0.243 NA
ATOM     18  C   UNL     1      11.211  12.156  23.154  0.00  0.00    +0.073 A 
ATOM     20  C   UNL     1      11.136  13.457  23.551  0.00  0.00    +0.127 A 
ATOM     21  C   UNL     1      11.096  11.187  24.103  0.00  0.00    +0.127 A 
ATOM     30  C   UNL     1      10.850  12.783  25.703  0.00  0.00    +0.221 A 
ENDBRANCH  16  18
ENDBRANCH  12   6
BRANCH  13   3
ATOM      3  O   UNL     1      15.146   7.002  19.152  0.00  0.00    -0.442 OA
BRANCH   3  17
ATOM      5  O   UNL     1      15.617   6.056  21.181  0.00  0.00    -0.226 OA
ATOM      7  N   UNL     1      17.308   6.593  19.653  0.00  0.00    -0.251 N 
ATOM     17  C   UNL     1      16.006   6.501  20.108  0.00  0.00    +0.405 C 
ATOM     32  H   UNL     1      17.432   6.995  18.727  0.00  0.00    +0.158 HD
BRANCH   7  19
ATOM     19  C   UNL     1      18.491   6.195  20.314  0.00  0.00    +0.036 A 
ATOM     23  C   UNL     1      20.813   5.414  21.612  0.00  0.00    -0.045 A 
ATOM     24  C   UNL     1      18.882   6.859  21.466  0.00  0.00    +0.024 A 
ATOM     25  C   UNL     1      19.238   5.148  19.799  0.00  0.00    +0.024 A 
ATOM     26  C   UNL     1      20.051   6.467  22.119  0.00  0.00    +0.006 A 
ATOM     27  C   UNL     1      20.406   4.754  20.452  0.00  0.00    +0.006 A 
BRANCH  23  22
ATOM     22  C   UNL     1      22.062   4.994  22.311  0.00  0.00    +0.013 C 
ATOM     28  C   UNL     1      22.224   5.670  23.685  0.00  0.00    +0.012 C 
ATOM     29  C   UNL     1      22.163   3.464  22.465  0.00  0.00    +0.012 C 
ENDBRANCH  23  22
ENDBRANCH   7  19
ENDBRANCH   3  17
ENDBRANCH  13   3
TORSDOF 6
ENDMDL
MODEL 5
REMARK VINA RESULT:      -6.9     20.443     21.752
REMARK  Name = 11865554
REMARK  8 active torsions:
REMARK  status: ('A' for Active; 'I' for Inactive)
REMARK    1  A    between atoms: O_3  and  C_13
REMARK    2  A    between atoms: O_3  and  C_17
REMARK    3  A    between atoms: N_6  and  C_12
REMARK    4  A    between atoms: N_7  and  C_19
REMARK    5  A    between atoms: C_16  and  C_18
REMARK    6  A    between atoms: C_22  and  C_23
REMARK    7  A    between atoms: C_22  and  C_28
REMARK    8  A    between atoms: C_22  and  C_29
REMARK                            x       y       z     vdW  Elec       q    Type
REMARK                         _______ _______ _______ _____ _____    ______ ____
ROOT
ATOM      1  O   UNL     1      -3.811 -12.062  14.606  0.00  0.00    -0.368 OA
ATOM      2  O   UNL     1      -1.890 -10.815  16.643  0.00  0.00    -0.368 OA
ATOM     10  C   UNL     1      -3.229 -10.453  16.246  0.00  0.00    +0.173 C 
ATOM     11  C   UNL     1      -3.332 -10.716  14.758  0.00  0.00    +0.192 C 
ATOM     12  C   UNL     1      -4.227 -11.411  16.854  0.00  0.00    +0.130 C 
ATOM     13  C   UNL     1      -1.899 -10.577  14.303  0.00  0.00    +0.235 C 
ATOM     14  C   UNL     1      -4.171 -12.586  15.894  0.00  0.00    +0.185 C 
ATOM     15  C   UNL     1      -1.135 -11.156  15.471  0.00  0.00    +0.207 C 
ENDROOT
BRANCH  12   6
ATOM      4  O   UNL     1      -5.934 -11.207  19.154  0.00  0.00    -0.270 OA
ATOM      6  N   UNL     1      -5.547 -10.832  16.898  0.00  0.00    -0.304 N 
ATOM     16  C   UNL     1      -6.300 -10.779  18.063  0.00  0.00    +0.247 C 
ATOM     31  H   UNL     1      -5.958 -10.548  16.015  0.00  0.00    +0.149 HD
BRANCH  16  18
ATOM      8  N   UNL     1      -9.943 -10.131  18.570  0.00  0.00    -0.243 NA
ATOM      9  N   UNL     1      -9.089  -8.556  16.958  0.00  0.00    -0.243 NA
ATOM     18  C   UNL     1      -7.652 -10.176  17.937  0.00  0.00    +0.073 A 
ATOM     20  C   UNL     1      -8.702 -10.654  18.659  0.00  0.00    +0.127 A 
ATOM     21  C   UNL     1      -7.875  -9.128  17.097  0.00  0.00    +0.127 A 
ATOM     30  C   UNL     1     -10.063  -9.099  17.713  0.00  0.00    +0.221 A 
ENDBRANCH  16  18
ENDBRANCH  12   6
BRANCH  13   3
ATOM      3  O   UNL     1      -1.623 -11.258  13.099  0.00  0.00    -0.442 OA
BRANCH   3  17
ATOM      5  O   UNL     1      -1.344  -9.662  11.485  0.00  0.00    -0.226 OA
ATOM      7  N   UNL     1      -3.084 -11.225  11.380  0.00  0.00    -0.251 N 
ATOM     17  C   UNL     1      -1.969 -10.618  11.926  0.00  0.00    +0.405 C 
ATOM     32  H   UNL     1      -3.465 -12.013  11.898  0.00  0.00    +0.158 HD
BRANCH   7  19
ATOM     19  C   UNL     1      -3.763 -10.886  10.189  0.00  0.00    +0.036 A 
ATOM     23  C   UNL     1      -5.094 -10.221   7.850  0.00  0.00    -0.045 A 
ATOM     24  C   UNL     1      -4.038  -9.555   9.918  0.00  0.00    +0.024 A 
ATOM     25  C   UNL     1      -4.140 -11.891   9.312  0.00  0.00    +0.024 A 
ATOM     26  C   UNL     1      -4.708  -9.220   8.742  0.00  0.00    +0.006 A 
ATOM     27  C   UNL     1      -4.810 -11.557   8.135  0.00  0.00    +0.006 A 
BRANCH  23  22
ATOM     22  C   UNL     1      -5.811  -9.863   6.591  0.00  0.00    +0.013 C 
ATOM     28  C   UNL     1      -5.706 -10.964   5.521  0.00  0.00    +0.012 C 
ATOM     29  C   UNL     1      -7.290  -9.511   6.837  0.00  0.00    +0.012 C 
ENDBRANCH  23  22
ENDBRANCH   7  19
ENDBRANCH   3  17
ENDBRANCH  13   3
TORSDOF 6
ENDMDL
MODEL 6
REMARK VINA RESULT:      -6.8     18.380     19.821
REMARK  Name = 11865554
REMARK  8 active torsions:
REMARK  status: ('A' for Active; 'I' for Inactive)
REMARK    1  A    between atoms: O_3  and  C_13
REMARK    2  A    between atoms: O_3  and  C_17
REMARK    3  A    between atoms: N_6  and  C_12
REMARK    4  A    between atoms: N_7  and  C_19
REMARK    5  A    between atoms: C_16  and  C_18
REMARK    6  A    between atoms: C_22  and  C_23
REMARK    7  A    between atoms: C_22  and  C_28
REMARK    8  A    between atoms: C_22  and  C_29
REMARK                            x       y       z     vdW  Elec       q    Type
REMARK                         _______ _______ _______ _____ _____    ______ ____
ROOT
ATOM      1  O   UNL     1      -6.894 -11.553  17.077  0.00  0.00    -0.368 OA
ATOM      2  O   UNL     1      -6.511 -11.042  20.076  0.00  0.00    -0.368 OA
ATOM     10  C   UNL     1      -7.041 -10.209  19.024  0.00  0.00    +0.173 C 
ATOM     11  C   UNL     1      -6.223 -10.495  17.781  0.00  0.00    +0.192 C 
ATOM     12  C   UNL     1      -8.434 -10.663  18.654  0.00  0.00    +0.130 C 
ATOM     13  C   UNL     1      -4.905 -10.955  18.358  0.00  0.00    +0.235 C 
ATOM     14  C   UNL     1      -8.155 -11.819  17.711  0.00  0.00    +0.185 C 
ATOM     15  C   UNL     1      -5.343 -11.719  19.587  0.00  0.00    +0.207 C 
ENDROOT
BRANCH  12   6
ATOM      4  O   UNL     1     -11.289 -10.426  18.462  0.00  0.00    -0.270 OA
ATOM      6  N   UNL     1      -9.168  -9.612  17.994  0.00  0.00    -0.304 N 
ATOM     16  C   UNL     1     -10.556  -9.583  17.954  0.00  0.00    +0.247 C 
ATOM     31  H   UNL     1      -8.631  -8.933  17.465  0.00  0.00    +0.149 HD
BRANCH  16  18
ATOM      8  N   UNL     1     -13.009  -7.518  16.040  0.00  0.00    -0.243 NA
ATOM      9  N   UNL     1     -10.983  -6.246  16.333  0.00  0.00    -0.243 NA
ATOM     18  C   UNL     1     -11.161  -8.447  17.211  0.00  0.00    +0.073 A 
ATOM     20  C   UNL     1     -12.428  -8.529  16.719  0.00  0.00    +0.127 A 
ATOM     21  C   UNL     1     -10.464  -7.296  17.003  0.00  0.00    +0.127 A 
ATOM     30  C   UNL     1     -12.240  -6.422  15.886  0.00  0.00    +0.221 A 
ENDBRANCH  16  18
ENDBRANCH  12   6
BRANCH  13   3
ATOM      3  O   UNL     1      -4.155 -11.759  17.475  0.00  0.00    -0.442 OA
BRANCH   3  17
ATOM      5  O   UNL     1      -2.798 -10.309  16.338  0.00  0.00    -0.226 OA
ATOM      7  N   UNL     1      -4.365 -11.651  15.231  0.00  0.00    -0.251 N 
ATOM     17  C   UNL     1      -3.686 -11.153  16.327  0.00  0.00    +0.405 C 
ATOM     32  H   UNL     1      -5.074 -12.353  15.424  0.00  0.00    +0.158 HD
BRANCH   7  19
ATOM     19  C   UNL     1      -4.197 -11.304  13.872  0.00  0.00    +0.036 A 
ATOM     23  C   UNL     1      -3.867 -10.624  11.205  0.00  0.00    -0.045 A 
ATOM     24  C   UNL     1      -3.187 -11.905  13.137  0.00  0.00    +0.024 A 
ATOM     25  C   UNL     1      -5.044 -10.369  13.299  0.00  0.00    +0.024 A 
ATOM     26  C   UNL     1      -3.021 -11.563  11.795  0.00  0.00    +0.006 A 
ATOM     27  C   UNL     1      -4.879 -10.027  11.957  0.00  0.00    +0.006 A 
BRANCH  23  22
ATOM     22  C   UNL     1      -3.690 -10.258   9.769  0.00  0.00    +0.013 C 
ATOM     28  C   UNL     1      -4.454 -11.202   8.823  0.00  0.00    +0.012 C 
ATOM     29  C   UNL     1      -4.083  -8.797   9.482  0.00  0.00    +0.012 C 
ENDBRANCH  23  22
ENDBRANCH   7  19
ENDBRANCH   3  17
ENDBRANCH  13   3
TORSDOF 6
ENDMDL
MODEL 7
REMARK VINA RESULT:      -6.7     30.395     33.963
REMARK  Name = 11865554
REMARK  8 active torsions:
REMARK  status: ('A' for Active; 'I' for Inactive)
REMARK    1  A    between atoms: O_3  and  C_13
REMARK    2  A    between atoms: O_3  and  C_17
REMARK    3  A    between atoms: N_6  and  C_12
REMARK    4  A    between atoms: N_7  and  C_19
REMARK    5  A    between atoms: C_16  and  C_18
REMARK    6  A    between atoms: C_22  and  C_23
REMARK    7  A    between atoms: C_22  and  C_28
REMARK    8  A    between atoms: C_22  and  C_29
REMARK                            x       y       z     vdW  Elec       q    Type
REMARK                         _______ _______ _______ _____ _____    ______ ____
ROOT
ATOM      1  O   UNL     1      15.825   7.246  21.444  0.00  0.00    -0.368 OA
ATOM      2  O   UNL     1      17.091  10.030  21.224  0.00  0.00    -0.368 OA
ATOM     10  C   UNL     1      16.302   9.262  20.292  0.00  0.00    +0.173 C 
ATOM     11  C   UNL     1      16.708   7.812  20.461  0.00  0.00    +0.192 C 
ATOM     12  C   UNL     1      14.848   9.282  20.702  0.00  0.00    +0.130 C 
ATOM     13  C   UNL     1      18.121   7.928  20.980  0.00  0.00    +0.235 C 
ATOM     14  C   UNL     1      14.798   8.198  21.764  0.00  0.00    +0.185 C 
ATOM     15  C   UNL     1      18.041   9.158  21.856  0.00  0.00    +0.207 C 
ENDROOT
BRANCH  12   6
ATOM      4  O   UNL     1      13.381  11.148  19.086  0.00  0.00    -0.270 OA
ATOM      6  N   UNL     1      13.986   8.967  19.589  0.00  0.00    -0.304 N 
ATOM     16  C   UNL     1      13.316   9.943  18.865  0.00  0.00    +0.247 C 
ATOM     31  H   UNL     1      13.803   7.986  19.408  0.00  0.00    +0.149 HD
BRANCH  16  18
ATOM      8  N   UNL     1      10.465   8.345  17.058  0.00  0.00    -0.243 NA
ATOM      9  N   UNL     1      12.024   9.213  15.439  0.00  0.00    -0.243 NA
ATOM     18  C   UNL     1      12.445   9.453  17.765  0.00  0.00    +0.073 A 
ATOM     20  C   UNL     1      11.279   8.803  18.032  0.00  0.00    +0.127 A 
ATOM     21  C   UNL     1      12.790   9.644  16.462  0.00  0.00    +0.127 A 
ATOM     30  C   UNL     1      10.892   8.582  15.803  0.00  0.00    +0.221 A 
ENDBRANCH  16  18
ENDBRANCH  12   6
BRANCH  13   3
ATOM      3  O   UNL     1      18.552   6.794  21.698  0.00  0.00    -0.442 OA
BRANCH   3  17
ATOM      5  O   UNL     1      19.034   5.356  19.986  0.00  0.00    -0.226 OA
ATOM      7  N   UNL     1      20.558   5.760  21.717  0.00  0.00    -0.251 N 
ATOM     17  C   UNL     1      19.368   5.904  21.029  0.00  0.00    +0.405 C 
ATOM     32  H   UNL     1      20.650   6.304  22.571  0.00  0.00    +0.158 HD
BRANCH   7  19
ATOM     19  C   UNL     1      21.665   4.950  21.380  0.00  0.00    +0.036 A 
ATOM     23  C   UNL     1      23.838   3.361  20.720  0.00  0.00    -0.045 A 
ATOM     24  C   UNL     1      22.688   5.483  20.613  0.00  0.00    +0.024 A 
ATOM     25  C   UNL     1      21.707   3.638  21.824  0.00  0.00    +0.024 A 
ATOM     26  C   UNL     1      23.782   4.683  20.280  0.00  0.00    +0.006 A 
ATOM     27  C   UNL     1      22.800   2.838  21.493  0.00  0.00    +0.006 A 
BRANCH  23  22
ATOM     22  C   UNL     1      25.007   2.505  20.365  0.00  0.00    +0.013 C 
ATOM     28  C   UNL     1      26.257   3.333  20.014  0.00  0.00    +0.012 C 
ATOM     29  C   UNL     1      25.347   1.487  21.470  0.00  0.00    +0.012 C 
ENDBRANCH  23  22
ENDBRANCH   7  19
ENDBRANCH   3  17
ENDBRANCH  13   3
TORSDOF 6
ENDMDL
MODEL 8
REMARK VINA RESULT:      -6.7     16.448     19.010
REMARK  Name = 11865554
REMARK  8 active torsions:
REMARK  status: ('A' for Active; 'I' for Inactive)
REMARK    1  A    between atoms: O_3  and  C_13
REMARK    2  A    between atoms: O_3  and  C_17
REMARK    3  A    between atoms: N_6  and  C_12
REMARK    4  A    between atoms: N_7  and  C_19
REMARK    5  A    between atoms: C_16  and  C_18
REMARK    6  A    between atoms: C_22  and  C_23
REMARK    7  A    between atoms: C_22  and  C_28
REMARK    8  A    between atoms: C_22  and  C_29
REMARK                            x       y       z     vdW  Elec       q    Type
REMARK                         _______ _______ _______ _____ _____    ______ ____
ROOT
ATOM      1  O   UNL     1     -11.721  -8.164  14.446  0.00  0.00    -0.368 OA
ATOM      2  O   UNL     1     -11.358  -5.971  16.558  0.00  0.00    -0.368 OA
ATOM     10  C   UNL     1     -11.208  -5.951  15.123  0.00  0.00    +0.173 C 
ATOM     11  C   UNL     1     -10.616  -7.287  14.724  0.00  0.00    +0.192 C 
ATOM     12  C   UNL     1     -12.565  -5.941  14.459  0.00  0.00    +0.130 C 
ATOM     13  C   UNL     1      -9.875  -7.702  15.972  0.00  0.00    +0.235 C 
ATOM     14  C   UNL     1     -12.944  -7.411  14.481  0.00  0.00    +0.185 C 
ATOM     15  C   UNL     1     -10.777  -7.181  17.068  0.00  0.00    +0.207 C 
ENDROOT
BRANCH  12   6
ATOM      4  O   UNL     1     -13.746  -3.527  13.450  0.00  0.00    -0.270 OA
ATOM      6  N   UNL     1     -12.482  -5.441  13.109  0.00  0.00    -0.304 N 
ATOM     16  C   UNL     1     -13.090  -4.257  12.713  0.00  0.00    +0.247 C 
ATOM     31  H   UNL     1     -12.041  -6.039  12.418  0.00  0.00    +0.149 HD
BRANCH  16  18
ATOM      8  N   UNL     1     -11.524  -3.481   9.413  0.00  0.00    -0.243 NA
ATOM      9  N   UNL     1     -13.917  -3.301   9.201  0.00  0.00    -0.243 NA
ATOM     18  C   UNL     1     -12.935  -3.893  11.281  0.00  0.00    +0.073 A 
ATOM     20  C   UNL     1     -11.701  -3.809  10.710  0.00  0.00    +0.127 A 
ATOM     21  C   UNL     1     -14.022  -3.634  10.504  0.00  0.00    +0.127 A 
ATOM     30  C   UNL     1     -12.659  -3.244   8.727  0.00  0.00    +0.221 A 
ENDBRANCH  16  18
ENDBRANCH  12   6
BRANCH  13   3
ATOM      3  O   UNL     1      -9.671  -9.093  16.070  0.00  0.00    -0.442 OA
BRANCH   3  17
ATOM      5  O   UNL     1      -8.217  -9.775  17.699  0.00  0.00    -0.226 OA
ATOM      7  N   UNL     1      -7.553  -9.579  15.463  0.00  0.00    -0.251 N 
ATOM     17  C   UNL     1      -8.437  -9.513  16.523  0.00  0.00    +0.405 C 
ATOM     32  H   UNL     1      -7.925  -9.321  14.552  0.00  0.00    +0.158 HD
BRANCH   7  19
ATOM     19  C   UNL     1      -6.193  -9.962  15.486  0.00  0.00    +0.036 A 
ATOM     23  C   UNL     1      -3.526 -10.713  15.532  0.00  0.00    -0.045 A 
ATOM     24  C   UNL     1      -5.520 -10.005  16.697  0.00  0.00    +0.024 A 
ATOM     25  C   UNL     1      -5.559 -10.288  14.298  0.00  0.00    +0.024 A 
ATOM     26  C   UNL     1      -4.177 -10.382  16.720  0.00  0.00    +0.006 A 
ATOM     27  C   UNL     1      -4.217 -10.667  14.321  0.00  0.00    +0.006 A 
BRANCH  23  22
ATOM     22  C   UNL     1      -2.090 -11.118  15.556  0.00  0.00    +0.013 C 
ATOM     28  C   UNL     1      -1.738 -12.106  14.430  0.00  0.00    +0.012 C 
ATOM     29  C   UNL     1      -1.137  -9.908  15.508  0.00  0.00    +0.012 C 
ENDBRANCH  23  22
ENDBRANCH   7  19
ENDBRANCH   3  17
ENDBRANCH  13   3
TORSDOF 6
ENDMDL
MODEL 9
REMARK VINA RESULT:      -6.3     16.736     18.662
REMARK  Name = 11865554
REMARK  8 active torsions:
REMARK  status: ('A' for Active; 'I' for Inactive)
REMARK    1  A    between atoms: O_3  and  C_13
REMARK    2  A    between atoms: O_3  and  C_17
REMARK    3  A    between atoms: N_6  and  C_12
REMARK    4  A    between atoms: N_7  and  C_19
REMARK    5  A    between atoms: C_16  and  C_18
REMARK    6  A    between atoms: C_22  and  C_23
REMARK    7  A    between atoms: C_22  and  C_28
REMARK    8  A    between atoms: C_22  and  C_29
REMARK                            x       y       z     vdW  Elec       q    Type
REMARK                         _______ _______ _______ _____ _____    ______ ____
ROOT
ATOM      1  O   UNL     1     -10.123 -11.195  17.576  0.00  0.00    -0.368 OA
ATOM      2  O   UNL     1     -12.018 -10.851  19.961  0.00  0.00    -0.368 OA
ATOM     10  C   UNL     1     -11.565  -9.919  18.958  0.00  0.00    +0.173 C 
ATOM     11  C   UNL     1     -10.118 -10.258  18.665  0.00  0.00    +0.192 C 
ATOM     12  C   UNL     1     -12.271 -10.180  17.649  0.00  0.00    +0.130 C 
ATOM     13  C   UNL     1      -9.666 -10.901  19.955  0.00  0.00    +0.235 C 
ATOM     14  C   UNL     1     -11.460 -11.325  17.069  0.00  0.00    +0.185 C 
ATOM     15  C   UNL     1     -10.905 -11.650  20.390  0.00  0.00    +0.207 C 
ENDROOT
BRANCH  12   6
ATOM      4  O   UNL     1     -14.498  -8.547  16.863  0.00  0.00    -0.270 OA
ATOM      6  N   UNL     1     -12.229  -9.021  16.792  0.00  0.00    -0.304 N 
ATOM     16  C   UNL     1     -13.365  -8.291  16.467  0.00  0.00    +0.247 C 
ATOM     31  H   UNL     1     -11.344  -8.806  16.345  0.00  0.00    +0.149 HD
BRANCH  16  18
ATOM      8  N   UNL     1     -14.048  -5.562  14.011  0.00  0.00    -0.243 NA
ATOM      9  N   UNL     1     -11.702  -5.543  14.565  0.00  0.00    -0.243 NA
ATOM     18  C   UNL     1     -13.159  -7.140  15.551  0.00  0.00    +0.073 A 
ATOM     20  C   UNL     1     -14.199  -6.607  14.852  0.00  0.00    +0.127 A 
ATOM     21  C   UNL     1     -11.925  -6.588  15.388  0.00  0.00    +0.127 A 
ATOM     30  C   UNL     1     -12.791  -5.086  13.918  0.00  0.00    +0.221 A 
ENDBRANCH  16  18
ENDBRANCH  12   6
BRANCH  13   3
ATOM      3  O   UNL     1      -8.557 -11.758  19.798  0.00  0.00    -0.442 OA
BRANCH   3  17
ATOM      5  O   UNL     1      -6.771 -10.353  20.060  0.00  0.00    -0.226 OA
ATOM      7  N   UNL     1      -7.024 -11.676  18.145  0.00  0.00    -0.251 N 
ATOM     17  C   UNL     1      -7.375 -11.178  19.385  0.00  0.00    +0.405 C 
ATOM     32  H   UNL     1      -7.658 -12.360  17.741  0.00  0.00    +0.158 HD
BRANCH   7  19
ATOM     19  C   UNL     1      -5.891 -11.351  17.366  0.00  0.00    +0.036 A 
ATOM     23  C   UNL     1      -3.668 -10.714  15.837  0.00  0.00    -0.045 A 
ATOM     24  C   UNL     1      -6.062 -10.688  16.161  0.00  0.00    +0.024 A 
ATOM     25  C   UNL     1      -4.630 -11.702  17.821  0.00  0.00    +0.024 A 
ATOM     26  C   UNL     1      -4.944 -10.367  15.391  0.00  0.00    +0.006 A 
ATOM     27  C   UNL     1      -3.511 -11.381  17.052  0.00  0.00    +0.006 A 
BRANCH  23  22
ATOM     22  C   UNL     1      -2.472 -10.371  15.014  0.00  0.00    +0.013 C 
ATOM     28  C   UNL     1      -1.165 -10.426  15.826  0.00  0.00    +0.012 C 
ATOM     29  C   UNL     1      -2.347 -11.257  13.760  0.00  0.00    +0.012 C 
ENDBRANCH  23  22
ENDBRANCH   7  19
ENDBRANCH   3  17
ENDBRANCH  13   3
TORSDOF 6
ENDMDL
MODEL 10
REMARK VINA RESULT:      -6.3     18.409     19.843
REMARK  Name = 11865554
REMARK  8 active torsions:
REMARK  status: ('A' for Active; 'I' for Inactive)
REMARK    1  A    between atoms: O_3  and  C_13
REMARK    2  A    between atoms: O_3  and  C_17
REMARK    3  A    between atoms: N_6  and  C_12
REMARK    4  A    between atoms: N_7  and  C_19
REMARK    5  A    between atoms: C_16  and  C_18
REMARK    6  A    between atoms: C_22  and  C_23
REMARK    7  A    between atoms: C_22  and  C_28
REMARK    8  A    between atoms: C_22  and  C_29
REMARK                            x       y       z     vdW  Elec       q    Type
REMARK                         _______ _______ _______ _____ _____    ______ ____
ROOT
ATOM      1  O   UNL     1      -7.605 -12.559  17.936  0.00  0.00    -0.368 OA
ATOM      2  O   UNL     1      -6.779 -10.545  20.094  0.00  0.00    -0.368 OA
ATOM     10  C   UNL     1      -7.526 -10.382  18.870  0.00  0.00    +0.173 C 
ATOM     11  C   UNL     1      -6.900 -11.309  17.848  0.00  0.00    +0.192 C 
ATOM     12  C   UNL     1      -8.927 -10.921  19.040  0.00  0.00    +0.130 C 
ATOM     13  C   UNL     1      -5.480 -11.432  18.346  0.00  0.00    +0.235 C 
ATOM     14  C   UNL     1      -8.728 -12.410  18.818  0.00  0.00    +0.185 C 
ATOM     15  C   UNL     1      -5.663 -11.412  19.846  0.00  0.00    +0.207 C 
ENDROOT
BRANCH  12   6
ATOM      4  O   UNL     1     -11.417  -9.591  19.562  0.00  0.00    -0.270 OA
ATOM      6  N   UNL     1      -9.825 -10.360  18.061  0.00  0.00    -0.304 N 
ATOM     16  C   UNL     1     -11.013  -9.733  18.411  0.00  0.00    +0.247 C 
ATOM     31  H   UNL     1      -9.608 -10.526  17.084  0.00  0.00    +0.149 HD
BRANCH  16  18
ATOM      8  N   UNL     1     -12.431  -7.472  15.799  0.00  0.00    -0.243 NA
ATOM      9  N   UNL     1     -13.533  -9.610  15.660  0.00  0.00    -0.243 NA
ATOM     18  C   UNL     1     -11.841  -9.232  17.284  0.00  0.00    +0.073 A 
ATOM     20  C   UNL     1     -11.696  -7.959  16.820  0.00  0.00    +0.127 A 
ATOM     21  C   UNL     1     -12.765 -10.032  16.685  0.00  0.00    +0.127 A 
ATOM     30  C   UNL     1     -13.317  -8.339  15.273  0.00  0.00    +0.221 A 
ENDBRANCH  16  18
ENDBRANCH  12   6
BRANCH  13   3
ATOM      3  O   UNL     1      -4.829 -12.604  17.907  0.00  0.00    -0.442 OA
BRANCH   3  17
ATOM      5  O   UNL     1      -4.511 -13.689  15.919  0.00  0.00    -0.226 OA
ATOM      7  N   UNL     1      -4.076 -11.401  16.153  0.00  0.00    -0.251 N 
ATOM     17  C   UNL     1      -4.469 -12.657  16.576  0.00  0.00    +0.405 C 
ATOM     32  H   UNL     1      -4.109 -10.662  16.851  0.00  0.00    +0.158 HD
BRANCH   7  19
ATOM     19  C   UNL     1      -3.633 -11.015  14.868  0.00  0.00    +0.036 A 
ATOM     23  C   UNL     1      -2.764 -10.256  12.348  0.00  0.00    -0.045 A 
ATOM     24  C   UNL     1      -4.557 -10.874  13.845  0.00  0.00    +0.024 A 
ATOM     25  C   UNL     1      -2.283 -10.784  14.656  0.00  0.00    +0.024 A 
ATOM     26  C   UNL     1      -4.119 -10.492  12.576  0.00  0.00    +0.006 A 
ATOM     27  C   UNL     1      -1.845 -10.401  13.388  0.00  0.00    +0.006 A 
BRANCH  23  22
ATOM     22  C   UNL     1      -2.296  -9.847  10.992  0.00  0.00    +0.013 C 
ATOM     28  C   UNL     1      -3.388  -9.120  10.187  0.00  0.00    +0.012 C 
ATOM     29  C   UNL     1      -1.022  -8.983  11.045  0.00  0.00    +0.012 C 
ENDBRANCH  23  22
ENDBRANCH   7  19
ENDBRANCH   3  17
ENDBRANCH  13   3
TORSDOF 6
ENDMDL
