MODEL 1
REMARK VINA RESULT:      -7.0      0.000      0.000
REMARK  Name = 75536593
REMARK  7 active torsions:
REMARK  status: ('A' for Active; 'I' for Inactive)
REMARK    1  A    between atoms: O_3  and  C_11
REMARK    2  A    between atoms: N_6  and  C_9
REMARK    3  A    between atoms: N_6  and  C_10
REMARK    4  A    between atoms: N_8  and  C_18
REMARK    5  A    between atoms: C_12  and  C_18
REMARK    6  A    between atoms: C_19  and  C_20
REMARK    7  A    between atoms: C_21  and  C_22
REMARK                            x       y       z     vdW  Elec       q    Type
REMARK                         _______ _______ _______ _____ _____    ______ ____
ROOT
ATOM      2  O   UNL     1      10.624   8.681  20.069  0.00  0.00    -0.371 OA
ATOM      9  C   UNL     1      12.411   7.287  19.357  0.00  0.00    +0.111 C 
ATOM     11  C   UNL     1      12.217   7.118  20.852  0.00  0.00    +0.164 C 
ATOM     12  C   UNL     1      10.787   7.617  21.021  0.00  0.00    +0.165 C 
ATOM     15  C   UNL     1      11.691   8.602  19.107  0.00  0.00    +0.181 C 
ENDROOT
BRANCH  11   3
ATOM      3  O   UNL     1      12.358   5.775  21.273  0.00  0.00    -0.388 OA
ATOM     27  H   UNL     1      11.689   5.595  21.955  0.00  0.00    +0.210 HD
ENDBRANCH  11   3
BRANCH   9   6
ATOM      6  N   UNL     1      13.806   7.319  18.950  0.00  0.00    -0.306 NA
ATOM     26  H   UNL     1      13.962   8.077  18.286  0.00  0.00    +0.123 HD
BRANCH   6  10
ATOM      4  O   UNL     1      19.134   9.378  21.228  0.00  0.00    -0.276 OA
ATOM      7  N   UNL     1      17.310   7.939  21.231  0.00  0.00    -0.302 N 
ATOM     10  C   UNL     1      14.680   7.485  20.110  0.00  0.00    +0.057 C 
ATOM     13  C   UNL     1      15.337   8.870  20.080  0.00  0.00    +0.037 C 
ATOM     14  C   UNL     1      15.748   6.384  20.125  0.00  0.00    +0.037 C 
ATOM     16  C   UNL     1      16.329   9.028  21.232  0.00  0.00    +0.109 C 
ATOM     17  C   UNL     1      16.732   6.591  21.277  0.00  0.00    +0.109 C 
ATOM     19  C   UNL     1      18.672   8.235  21.230  0.00  0.00    +0.212 C 
ATOM     20  C   UNL     1      19.618   7.059  21.226  0.00  0.00    +0.109 C 
ENDBRANCH   6  10
ENDBRANCH   9   6
BRANCH  12  18
ATOM     18  C   UNL     1      10.492   8.129  22.419  0.00  0.00    +0.138 C 
BRANCH  18   8
ATOM      5  O   UNL     1      12.574  10.072  22.787  0.00  0.00    -0.270 OA
ATOM      8  N   UNL     1      10.340   9.556  22.430  0.00  0.00    -0.308 N 
ATOM     21  C   UNL     1      11.411  10.426  22.615  0.00  0.00    +0.251 C 
ATOM     28  H   UNL     1       9.401   9.920  22.308  0.00  0.00    +0.149 HD
BRANCH  21  22
ATOM      1  S   UNL     1      10.625  12.616  24.100  0.00  0.00    -0.092 S 
ATOM     22  C   UNL     1      11.083  11.875  22.626  0.00  0.00    +0.074 A 
ATOM     23  C   UNL     1      11.090  12.770  21.578  0.00  0.00    +0.021 A 
ATOM     24  C   UNL     1      10.714  14.080  21.993  0.00  0.00    +0.008 A 
ATOM     25  C   UNL     1      10.436  14.138  23.340  0.00  0.00    +0.046 A 
ENDBRANCH  21  22
ENDBRANCH  18   8
ENDBRANCH  12  18
TORSDOF 6
ENDMDL
MODEL 2
REMARK VINA RESULT:      -6.9      2.827      7.465
REMARK  Name = 75536593
REMARK  7 active torsions:
REMARK  status: ('A' for Active; 'I' for Inactive)
REMARK    1  A    between atoms: O_3  and  C_11
REMARK    2  A    between atoms: N_6  and  C_9
REMARK    3  A    between atoms: N_6  and  C_10
REMARK    4  A    between atoms: N_8  and  C_18
REMARK    5  A    between atoms: C_12  and  C_18
REMARK    6  A    between atoms: C_19  and  C_20
REMARK    7  A    between atoms: C_21  and  C_22
REMARK                            x       y       z     vdW  Elec       q    Type
REMARK                         _______ _______ _______ _____ _____    ______ ____
ROOT
ATOM      2  O   UNL     1      11.674   7.658  19.884  0.00  0.00    -0.371 OA
ATOM      9  C   UNL     1      11.714   9.127  21.750  0.00  0.00    +0.111 C 
ATOM     11  C   UNL     1      13.045   8.403  21.661  0.00  0.00    +0.164 C 
ATOM     12  C   UNL     1      13.042   7.961  20.203  0.00  0.00    +0.165 C 
ATOM     15  C   UNL     1      10.829   8.235  20.895  0.00  0.00    +0.181 C 
ENDROOT
BRANCH  11   3
ATOM      3  O   UNL     1      14.145   9.243  21.954  0.00  0.00    -0.388 OA
ATOM     27  H   UNL     1      14.666   8.828  22.662  0.00  0.00    +0.210 HD
ENDBRANCH  11   3
BRANCH   9   6
ATOM      6  N   UNL     1      11.222   9.277  23.109  0.00  0.00    -0.306 NA
ATOM     26  H   UNL     1      11.958   9.049  23.777  0.00  0.00    +0.123 HD
BRANCH   6  10
ATOM      4  O   UNL     1      12.411  15.310  23.057  0.00  0.00    -0.276 OA
ATOM      7  N   UNL     1      11.282  13.439  23.845  0.00  0.00    -0.302 N 
ATOM     10  C   UNL     1      10.746  10.640  23.340  0.00  0.00    +0.057 C 
ATOM     13  C   UNL     1      11.258  11.571  22.235  0.00  0.00    +0.037 C 
ATOM     14  C   UNL     1      11.209  11.133  24.716  0.00  0.00    +0.037 C 
ATOM     16  C   UNL     1      10.850  13.018  22.509  0.00  0.00    +0.109 C 
ATOM     17  C   UNL     1      10.803  12.590  24.942  0.00  0.00    +0.109 C 
ATOM     19  C   UNL     1      12.051  14.592  23.993  0.00  0.00    +0.212 C 
ATOM     20  C   UNL     1      12.458  14.957  25.399  0.00  0.00    +0.109 C 
ENDBRANCH   6  10
ENDBRANCH   9   6
BRANCH  12  18
ATOM     18  C   UNL     1      13.912   6.744  19.943  0.00  0.00    +0.138 C 
BRANCH  18   8
ATOM      5  O   UNL     1      16.310   5.791  18.686  0.00  0.00    -0.270 OA
ATOM      8  N   UNL     1      15.258   6.961  20.390  0.00  0.00    -0.308 N 
ATOM     21  C   UNL     1      16.366   6.460  19.714  0.00  0.00    +0.251 C 
ATOM     28  H   UNL     1      15.379   7.495  21.244  0.00  0.00    +0.149 HD
BRANCH  21  22
ATOM      1  S   UNL     1      17.914   8.218  21.175  0.00  0.00    -0.092 S 
ATOM     22  C   UNL     1      17.691   6.751  20.320  0.00  0.00    +0.074 A 
ATOM     23  C   UNL     1      18.836   5.984  20.302  0.00  0.00    +0.021 A 
ATOM     24  C   UNL     1      19.909   6.611  20.999  0.00  0.00    +0.008 A 
ATOM     25  C   UNL     1      19.544   7.831  21.525  0.00  0.00    +0.046 A 
ENDBRANCH  21  22
ENDBRANCH  18   8
ENDBRANCH  12  18
TORSDOF 6
ENDMDL
MODEL 3
REMARK VINA RESULT:      -6.8      4.803      9.734
REMARK  Name = 75536593
REMARK  7 active torsions:
REMARK  status: ('A' for Active; 'I' for Inactive)
REMARK    1  A    between atoms: O_3  and  C_11
REMARK    2  A    between atoms: N_6  and  C_9
REMARK    3  A    between atoms: N_6  and  C_10
REMARK    4  A    between atoms: N_8  and  C_18
REMARK    5  A    between atoms: C_12  and  C_18
REMARK    6  A    between atoms: C_19  and  C_20
REMARK    7  A    between atoms: C_21  and  C_22
REMARK                            x       y       z     vdW  Elec       q    Type
REMARK                         _______ _______ _______ _____ _____    ______ ____
ROOT
ATOM      2  O   UNL     1      18.622   6.013  19.687  0.00  0.00    -0.371 OA
ATOM      9  C   UNL     1      16.410   6.828  19.980  0.00  0.00    +0.111 C 
ATOM     11  C   UNL     1      17.166   6.968  21.288  0.00  0.00    +0.164 C 
ATOM     12  C   UNL     1      18.608   6.923  20.799  0.00  0.00    +0.165 C 
ATOM     15  C   UNL     1      17.268   5.812  19.244  0.00  0.00    +0.181 C 
ENDROOT
BRANCH  11   3
ATOM      3  O   UNL     1      16.876   8.178  21.960  0.00  0.00    -0.388 OA
ATOM     27  H   UNL     1      17.494   8.271  22.705  0.00  0.00    +0.210 HD
ENDBRANCH  11   3
BRANCH   9   6
ATOM      6  N   UNL     1      15.034   6.391  20.146  0.00  0.00    -0.306 NA
ATOM     26  H   UNL     1      14.870   6.101  21.110  0.00  0.00    +0.123 HD
BRANCH   6  10
ATOM      4  O   UNL     1      10.299   8.250  16.690  0.00  0.00    -0.276 OA
ATOM      7  N   UNL     1      12.236   8.639  17.913  0.00  0.00    -0.302 N 
ATOM     10  C   UNL     1      14.104   7.459  19.784  0.00  0.00    +0.057 C 
ATOM     13  C   UNL     1      12.695   6.887  19.586  0.00  0.00    +0.037 C 
ATOM     14  C   UNL     1      14.582   8.161  18.506  0.00  0.00    +0.037 C 
ATOM     16  C   UNL     1      11.727   7.971  19.113  0.00  0.00    +0.109 C 
ATOM     17  C   UNL     1      13.576   9.220  18.054  0.00  0.00    +0.109 C 
ATOM     19  C   UNL     1      11.438   8.716  16.772  0.00  0.00    +0.212 C 
ATOM     20  C   UNL     1      12.035   9.416  15.577  0.00  0.00    +0.109 C 
ENDBRANCH   6  10
ENDBRANCH   9   6
BRANCH  12  18
ATOM     18  C   UNL     1      19.587   6.451  21.860  0.00  0.00    +0.138 C 
BRANCH  18   8
ATOM      5  O   UNL     1      21.553   4.860  23.219  0.00  0.00    -0.270 OA
ATOM      8  N   UNL     1      20.726   5.810  21.270  0.00  0.00    -0.308 N 
ATOM     21  C   UNL     1      21.631   5.053  22.009  0.00  0.00    +0.251 C 
ATOM     28  H   UNL     1      20.862   5.939  20.273  0.00  0.00    +0.149 HD
BRANCH  21  22
ATOM      1  S   UNL     1      23.056   2.788  21.332  0.00  0.00    -0.092 S 
ATOM     22  C   UNL     1      22.773   4.475  21.254  0.00  0.00    +0.074 A 
ATOM     23  C   UNL     1      23.693   5.117  20.454  0.00  0.00    +0.021 A 
ATOM     24  C   UNL     1      24.643   4.212  19.900  0.00  0.00    +0.008 A 
ATOM     25  C   UNL     1      24.413   2.912  20.295  0.00  0.00    +0.046 A 
ENDBRANCH  21  22
ENDBRANCH  18   8
ENDBRANCH  12  18
TORSDOF 6
ENDMDL
MODEL 4
REMARK VINA RESULT:      -6.7      5.009     10.497
REMARK  Name = 75536593
REMARK  7 active torsions:
REMARK  status: ('A' for Active; 'I' for Inactive)
REMARK    1  A    between atoms: O_3  and  C_11
REMARK    2  A    between atoms: N_6  and  C_9
REMARK    3  A    between atoms: N_6  and  C_10
REMARK    4  A    between atoms: N_8  and  C_18
REMARK    5  A    between atoms: C_12  and  C_18
REMARK    6  A    between atoms: C_19  and  C_20
REMARK    7  A    between atoms: C_21  and  C_22
REMARK                            x       y       z     vdW  Elec       q    Type
REMARK                         _______ _______ _______ _____ _____    ______ ____
ROOT
ATOM      2  O   UNL     1      19.848   6.561  21.950  0.00  0.00    -0.371 OA
ATOM      9  C   UNL     1      17.751   6.628  20.836  0.00  0.00    +0.111 C 
ATOM     11  C   UNL     1      18.803   6.096  19.880  0.00  0.00    +0.164 C 
ATOM     12  C   UNL     1      19.877   5.631  20.854  0.00  0.00    +0.165 C 
ATOM     15  C   UNL     1      18.616   7.300  21.890  0.00  0.00    +0.181 C 
ENDROOT
BRANCH  11   3
ATOM      3  O   UNL     1      18.324   5.034  19.078  0.00  0.00    -0.388 OA
ATOM     27  H   UNL     1      18.489   5.256  18.145  0.00  0.00    +0.210 HD
ENDBRANCH  11   3
BRANCH   9   6
ATOM      6  N   UNL     1      16.805   7.539  20.214  0.00  0.00    -0.306 NA
ATOM     26  H   UNL     1      17.001   7.624  19.217  0.00  0.00    +0.123 HD
BRANCH   6  10
ATOM      4  O   UNL     1      10.797   8.439  19.263  0.00  0.00    -0.276 OA
ATOM      7  N   UNL     1      12.588   7.608  20.488  0.00  0.00    -0.302 N 
ATOM     10  C   UNL     1      15.433   7.078  20.416  0.00  0.00    +0.057 C 
ATOM     13  C   UNL     1      14.619   7.271  19.131  0.00  0.00    +0.037 C 
ATOM     14  C   UNL     1      14.788   7.841  21.580  0.00  0.00    +0.037 C 
ATOM     16  C   UNL     1      13.157   6.884  19.348  0.00  0.00    +0.109 C 
ATOM     17  C   UNL     1      13.321   7.443  21.749  0.00  0.00    +0.109 C 
ATOM     19  C   UNL     1      11.415   8.344  20.326  0.00  0.00    +0.212 C 
ATOM     20  C   UNL     1      10.895   9.064  21.546  0.00  0.00    +0.109 C 
ENDBRANCH   6  10
ENDBRANCH   9   6
BRANCH  12  18
ATOM     18  C   UNL     1      21.267   5.599  20.244  0.00  0.00    +0.138 C 
BRANCH  18   8
ATOM      5  O   UNL     1      23.032   5.162  22.466  0.00  0.00    -0.270 OA
ATOM      8  N   UNL     1      21.950   4.380  20.568  0.00  0.00    -0.308 N 
ATOM     21  C   UNL     1      22.790   4.258  21.670  0.00  0.00    +0.251 C 
ATOM     28  H   UNL     1      21.809   3.593  19.944  0.00  0.00    +0.149 HD
BRANCH  21  22
ATOM      1  S   UNL     1      23.632   2.310  23.436  0.00  0.00    -0.092 S 
ATOM     22  C   UNL     1      23.444   2.936  21.854  0.00  0.00    +0.074 A 
ATOM     23  C   UNL     1      23.953   2.084  20.897  0.00  0.00    +0.021 A 
ATOM     24  C   UNL     1      24.503   0.903  21.473  0.00  0.00    +0.008 A 
ATOM     25  C   UNL     1      24.394   0.896  22.846  0.00  0.00    +0.046 A 
ENDBRANCH  21  22
ENDBRANCH  18   8
ENDBRANCH  12  18
TORSDOF 6
ENDMDL
MODEL 5
REMARK VINA RESULT:      -6.5      4.211      8.033
REMARK  Name = 75536593
REMARK  7 active torsions:
REMARK  status: ('A' for Active; 'I' for Inactive)
REMARK    1  A    between atoms: O_3  and  C_11
REMARK    2  A    between atoms: N_6  and  C_9
REMARK    3  A    between atoms: N_6  and  C_10
REMARK    4  A    between atoms: N_8  and  C_18
REMARK    5  A    between atoms: C_12  and  C_18
REMARK    6  A    between atoms: C_19  and  C_20
REMARK    7  A    between atoms: C_21  and  C_22
REMARK                            x       y       z     vdW  Elec       q    Type
REMARK                         _______ _______ _______ _____ _____    ______ ____
ROOT
ATOM      2  O   UNL     1      18.640   5.900  19.600  0.00  0.00    -0.371 OA
ATOM      9  C   UNL     1      16.433   6.725  19.900  0.00  0.00    +0.111 C 
ATOM     11  C   UNL     1      17.182   6.824  21.216  0.00  0.00    +0.164 C 
ATOM     12  C   UNL     1      18.626   6.780  20.736  0.00  0.00    +0.165 C 
ATOM     15  C   UNL     1      17.287   5.723  19.142  0.00  0.00    +0.181 C 
ENDROOT
BRANCH  11   3
ATOM      3  O   UNL     1      16.897   8.018  21.919  0.00  0.00    -0.388 OA
ATOM     27  H   UNL     1      15.944   8.199  21.842  0.00  0.00    +0.210 HD
ENDBRANCH  11   3
BRANCH   9   6
ATOM      6  N   UNL     1      15.052   6.296  20.046  0.00  0.00    -0.306 NA
ATOM     26  H   UNL     1      14.884   5.964  20.995  0.00  0.00    +0.123 HD
BRANCH   6  10
ATOM      4  O   UNL     1      10.220   8.296  16.810  0.00  0.00    -0.276 OA
ATOM      7  N   UNL     1      12.217   8.629  17.952  0.00  0.00    -0.302 N 
ATOM     10  C   UNL     1      14.133   7.389  19.732  0.00  0.00    +0.057 C 
ATOM     13  C   UNL     1      12.704   6.852  19.591  0.00  0.00    +0.037 C 
ATOM     14  C   UNL     1      14.573   8.090  18.441  0.00  0.00    +0.037 C 
ATOM     16  C   UNL     1      11.744   7.962  19.168  0.00  0.00    +0.109 C 
ATOM     17  C   UNL     1      13.575   9.177  18.040  0.00  0.00    +0.109 C 
ATOM     19  C   UNL     1      11.373   8.734  16.847  0.00  0.00    +0.212 C 
ATOM     20  C   UNL     1      11.934   9.431  15.633  0.00  0.00    +0.109 C 
ENDBRANCH   6  10
ENDBRANCH   9   6
BRANCH  12  18
ATOM     18  C   UNL     1      19.594   6.272  21.790  0.00  0.00    +0.138 C 
BRANCH  18   8
ATOM      5  O   UNL     1      21.289   6.010  24.092  0.00  0.00    -0.270 OA
ATOM      8  N   UNL     1      19.685   7.183  22.895  0.00  0.00    -0.308 N 
ATOM     21  C   UNL     1      20.539   6.975  23.973  0.00  0.00    +0.251 C 
ATOM     28  H   UNL     1      19.081   7.998  22.871  0.00  0.00    +0.149 HD
BRANCH  21  22
ATOM      1  S   UNL     1      20.279   7.494  26.672  0.00  0.00    -0.092 S 
ATOM     22  C   UNL     1      20.497   7.999  25.050  0.00  0.00    +0.074 A 
ATOM     23  C   UNL     1      20.612   9.368  24.946  0.00  0.00    +0.021 A 
ATOM     24  C   UNL     1      20.519  10.009  26.214  0.00  0.00    +0.008 A 
ATOM     25  C   UNL     1      20.338   9.108  27.240  0.00  0.00    +0.046 A 
ENDBRANCH  21  22
ENDBRANCH  18   8
ENDBRANCH  12  18
TORSDOF 6
ENDMDL
MODEL 6
REMARK VINA RESULT:      -6.4     26.527     29.624
REMARK  Name = 75536593
REMARK  7 active torsions:
REMARK  status: ('A' for Active; 'I' for Inactive)
REMARK    1  A    between atoms: O_3  and  C_11
REMARK    2  A    between atoms: N_6  and  C_9
REMARK    3  A    between atoms: N_6  and  C_10
REMARK    4  A    between atoms: N_8  and  C_18
REMARK    5  A    between atoms: C_12  and  C_18
REMARK    6  A    between atoms: C_19  and  C_20
REMARK    7  A    between atoms: C_21  and  C_22
REMARK                            x       y       z     vdW  Elec       q    Type
REMARK                         _______ _______ _______ _____ _____    ______ ____
ROOT
ATOM      2  O   UNL     1     -17.156   4.551  25.164  0.00  0.00    -0.371 OA
ATOM      9  C   UNL     1     -16.024   4.211  23.104  0.00  0.00    +0.111 C 
ATOM     11  C   UNL     1     -16.457   2.866  23.658  0.00  0.00    +0.164 C 
ATOM     12  C   UNL     1     -17.565   3.287  24.616  0.00  0.00    +0.165 C 
ATOM     15  C   UNL     1     -16.103   5.087  24.343  0.00  0.00    +0.181 C 
ENDROOT
BRANCH  11   3
ATOM      3  O   UNL     1     -16.933   1.989  22.656  0.00  0.00    -0.388 OA
ATOM     27  H   UNL     1     -16.169   1.544  22.251  0.00  0.00    +0.210 HD
ENDBRANCH  11   3
BRANCH   9   6
ATOM      6  N   UNL     1     -14.699   4.195  22.505  0.00  0.00    -0.306 NA
ATOM     26  H   UNL     1     -14.681   3.560  21.708  0.00  0.00    +0.123 HD
BRANCH   6  10
ATOM      4  O   UNL     1     -13.492   8.078  17.893  0.00  0.00    -0.276 OA
ATOM      7  N   UNL     1     -13.234   7.328  20.077  0.00  0.00    -0.302 N 
ATOM     10  C   UNL     1     -14.305   5.537  22.082  0.00  0.00    +0.057 C 
ATOM     13  C   UNL     1     -15.135   5.971  20.868  0.00  0.00    +0.037 C 
ATOM     14  C   UNL     1     -12.809   5.565  21.749  0.00  0.00    +0.037 C 
ATOM     16  C   UNL     1     -14.673   7.333  20.351  0.00  0.00    +0.109 C 
ATOM     17  C   UNL     1     -12.392   6.936  21.214  0.00  0.00    +0.109 C 
ATOM     19  C   UNL     1     -12.766   7.718  18.822  0.00  0.00    +0.212 C 
ATOM     20  C   UNL     1     -11.272   7.682  18.618  0.00  0.00    +0.109 C 
ENDBRANCH   6  10
ENDBRANCH   9   6
BRANCH  12  18
ATOM     18  C   UNL     1     -17.797   2.292  25.738  0.00  0.00    +0.138 C 
BRANCH  18   8
ATOM      5  O   UNL     1     -17.408   0.554  27.991  0.00  0.00    -0.270 OA
ATOM      8  N   UNL     1     -16.823   2.445  26.780  0.00  0.00    -0.308 N 
ATOM     21  C   UNL     1     -16.705   1.549  27.838  0.00  0.00    +0.251 C 
ATOM     28  H   UNL     1     -16.215   3.255  26.727  0.00  0.00    +0.149 HD
BRANCH  21  22
ATOM      1  S   UNL     1     -14.917   0.579  29.705  0.00  0.00    -0.092 S 
ATOM     22  C   UNL     1     -15.662   1.862  28.850  0.00  0.00    +0.074 A 
ATOM     23  C   UNL     1     -15.171   3.091  29.232  0.00  0.00    +0.021 A 
ATOM     24  C   UNL     1     -14.170   2.977  30.240  0.00  0.00    +0.008 A 
ATOM     25  C   UNL     1     -13.934   1.665  30.589  0.00  0.00    +0.046 A 
ENDBRANCH  21  22
ENDBRANCH  18   8
ENDBRANCH  12  18
TORSDOF 6
ENDMDL
MODEL 7
REMARK VINA RESULT:      -6.4     26.379     28.660
REMARK  Name = 75536593
REMARK  7 active torsions:
REMARK  status: ('A' for Active; 'I' for Inactive)
REMARK    1  A    between atoms: O_3  and  C_11
REMARK    2  A    between atoms: N_6  and  C_9
REMARK    3  A    between atoms: N_6  and  C_10
REMARK    4  A    between atoms: N_8  and  C_18
REMARK    5  A    between atoms: C_12  and  C_18
REMARK    6  A    between atoms: C_19  and  C_20
REMARK    7  A    between atoms: C_21  and  C_22
REMARK                            x       y       z     vdW  Elec       q    Type
REMARK                         _______ _______ _______ _____ _____    ______ ____
ROOT
ATOM      2  O   UNL     1      -1.432 -11.611  15.157  0.00  0.00    -0.371 OA
ATOM      9  C   UNL     1      -3.639 -11.003  15.791  0.00  0.00    +0.111 C 
ATOM     11  C   UNL     1      -3.695 -11.788  14.494  0.00  0.00    +0.164 C 
ATOM     12  C   UNL     1      -2.357 -12.516  14.534  0.00  0.00    +0.165 C 
ATOM     15  C   UNL     1      -2.180 -10.578  15.822  0.00  0.00    +0.181 C 
ENDROOT
BRANCH  11   3
ATOM      3  O   UNL     1      -4.784 -12.690  14.449  0.00  0.00    -0.388 OA
ATOM     27  H   UNL     1      -5.234 -12.670  15.310  0.00  0.00    +0.210 HD
ENDBRANCH  11   3
BRANCH   9   6
ATOM      6  N   UNL     1      -4.557  -9.877  15.831  0.00  0.00    -0.306 NA
ATOM     26  H   UNL     1      -5.208  -9.925  15.048  0.00  0.00    +0.123 HD
BRANCH   6  10
ATOM      4  O   UNL     1      -7.853 -12.959  20.009  0.00  0.00    -0.276 OA
ATOM      7  N   UNL     1      -7.257 -11.020  18.877  0.00  0.00    -0.302 N 
ATOM     10  C   UNL     1      -5.297  -9.856  17.092  0.00  0.00    +0.057 C 
ATOM     13  C   UNL     1      -4.994 -11.123  17.901  0.00  0.00    +0.037 C 
ATOM     14  C   UNL     1      -6.801  -9.741  16.817  0.00  0.00    +0.037 C 
ATOM     16  C   UNL     1      -5.830 -11.167  19.179  0.00  0.00    +0.109 C 
ATOM     17  C   UNL     1      -7.603  -9.812  18.118  0.00  0.00    +0.109 C 
ATOM     19  C   UNL     1      -8.165 -11.970  19.341  0.00  0.00    +0.212 C 
ATOM     20  C   UNL     1      -9.614 -11.749  18.985  0.00  0.00    +0.109 C 
ENDBRANCH   6  10
ENDBRANCH   9   6
BRANCH  12  18
ATOM     18  C   UNL     1      -1.847 -12.906  13.158  0.00  0.00    +0.138 C 
BRANCH  18   8
ATOM      5  O   UNL     1      -1.386 -10.285  12.083  0.00  0.00    -0.270 OA
ATOM      8  N   UNL     1      -2.599 -12.262  12.121  0.00  0.00    -0.308 N 
ATOM     21  C   UNL     1      -2.303 -10.983  11.659  0.00  0.00    +0.251 C 
ATOM     28  H   UNL     1      -3.384 -12.776  11.734  0.00  0.00    +0.149 HD
BRANCH  21  22
ATOM      1  S   UNL     1      -4.276 -11.507   9.801  0.00  0.00    -0.092 S 
ATOM     22  C   UNL     1      -3.194 -10.446  10.598  0.00  0.00    +0.074 A 
ATOM     23  C   UNL     1      -3.294  -9.155  10.126  0.00  0.00    +0.021 A 
ATOM     24  C   UNL     1      -4.272  -9.038   9.096  0.00  0.00    +0.008 A 
ATOM     25  C   UNL     1      -4.883 -10.241   8.821  0.00  0.00    +0.046 A 
ENDBRANCH  21  22
ENDBRANCH  18   8
ENDBRANCH  12  18
TORSDOF 6
ENDMDL
MODEL 8
REMARK VINA RESULT:      -6.4     28.201     29.789
REMARK  Name = 75536593
REMARK  7 active torsions:
REMARK  status: ('A' for Active; 'I' for Inactive)
REMARK    1  A    between atoms: O_3  and  C_11
REMARK    2  A    between atoms: N_6  and  C_9
REMARK    3  A    between atoms: N_6  and  C_10
REMARK    4  A    between atoms: N_8  and  C_18
REMARK    5  A    between atoms: C_12  and  C_18
REMARK    6  A    between atoms: C_19  and  C_20
REMARK    7  A    between atoms: C_21  and  C_22
REMARK                            x       y       z     vdW  Elec       q    Type
REMARK                         _______ _______ _______ _____ _____    ______ ____
ROOT
ATOM      2  O   UNL     1     -12.092  -7.951  14.115  0.00  0.00    -0.371 OA
ATOM      9  C   UNL     1     -10.275  -8.235  15.619  0.00  0.00    +0.111 C 
ATOM     11  C   UNL     1     -10.751  -6.795  15.682  0.00  0.00    +0.164 C 
ATOM     12  C   UNL     1     -12.160  -6.927  15.119  0.00  0.00    +0.165 C 
ATOM     15  C   UNL     1     -10.871  -8.690  14.296  0.00  0.00    +0.181 C 
ENDROOT
BRANCH  11   3
ATOM      3  O   UNL     1     -10.757  -6.279  17.000  0.00  0.00    -0.388 OA
ATOM     27  H   UNL     1     -10.201  -6.852  17.555  0.00  0.00    +0.210 HD
ENDBRANCH  11   3
BRANCH   9   6
ATOM      6  N   UNL     1      -8.829  -8.373  15.667  0.00  0.00    -0.306 NA
ATOM     26  H   UNL     1      -8.417  -7.590  16.173  0.00  0.00    +0.123 HD
BRANCH   6  10
ATOM      4  O   UNL     1      -6.292 -11.244  20.476  0.00  0.00    -0.276 OA
ATOM      7  N   UNL     1      -6.862 -11.099  18.228  0.00  0.00    -0.302 N 
ATOM     10  C   UNL     1      -8.450  -9.633  16.303  0.00  0.00    +0.057 C 
ATOM     13  C   UNL     1      -8.756  -9.578  17.804  0.00  0.00    +0.037 C 
ATOM     14  C   UNL     1      -6.961  -9.914  16.068  0.00  0.00    +0.037 C 
ATOM     16  C   UNL     1      -8.280 -10.849  18.505  0.00  0.00    +0.109 C 
ATOM     17  C   UNL     1      -6.519 -11.179  16.804  0.00  0.00    +0.109 C 
ATOM     19  C   UNL     1      -5.972 -11.280  19.286  0.00  0.00    +0.212 C 
ATOM     20  C   UNL     1      -4.530 -11.530  18.918  0.00  0.00    +0.109 C 
ENDBRANCH   6  10
ENDBRANCH   9   6
BRANCH  12  18
ATOM     18  C   UNL     1     -12.683  -5.640  14.506  0.00  0.00    +0.138 C 
BRANCH  18   8
ATOM      5  O   UNL     1     -12.623  -3.255  12.908  0.00  0.00    -0.270 OA
ATOM      8  N   UNL     1     -12.339  -5.548  13.116  0.00  0.00    -0.308 N 
ATOM     21  C   UNL     1     -12.336  -4.344  12.419  0.00  0.00    +0.251 C 
ATOM     28  H   UNL     1     -12.105  -6.414  12.641  0.00  0.00    +0.149 HD
BRANCH  21  22
ATOM      1  S   UNL     1     -12.067  -5.932  10.177  0.00  0.00    -0.092 S 
ATOM     22  C   UNL     1     -11.982  -4.421  10.978  0.00  0.00    +0.074 A 
ATOM     23  C   UNL     1     -11.571  -3.412  10.134  0.00  0.00    +0.021 A 
ATOM     24  C   UNL     1     -11.324  -3.887   8.814  0.00  0.00    +0.008 A 
ATOM     25  C   UNL     1     -11.556  -5.240   8.698  0.00  0.00    +0.046 A 
ENDBRANCH  21  22
ENDBRANCH  18   8
ENDBRANCH  12  18
TORSDOF 6
ENDMDL
MODEL 9
REMARK VINA RESULT:      -6.3      1.944      3.058
REMARK  Name = 75536593
REMARK  7 active torsions:
REMARK  status: ('A' for Active; 'I' for Inactive)
REMARK    1  A    between atoms: O_3  and  C_11
REMARK    2  A    between atoms: N_6  and  C_9
REMARK    3  A    between atoms: N_6  and  C_10
REMARK    4  A    between atoms: N_8  and  C_18
REMARK    5  A    between atoms: C_12  and  C_18
REMARK    6  A    between atoms: C_19  and  C_20
REMARK    7  A    between atoms: C_21  and  C_22
REMARK                            x       y       z     vdW  Elec       q    Type
REMARK                         _______ _______ _______ _____ _____    ______ ____
ROOT
ATOM      2  O   UNL     1      14.246   7.316  18.215  0.00  0.00    -0.371 OA
ATOM      9  C   UNL     1      14.913   6.397  20.302  0.00  0.00    +0.111 C 
ATOM     11  C   UNL     1      13.539   7.024  20.453  0.00  0.00    +0.164 C 
ATOM     12  C   UNL     1      13.072   7.061  19.004  0.00  0.00    +0.165 C 
ATOM     15  C   UNL     1      15.407   7.058  19.026  0.00  0.00    +0.181 C 
ENDROOT
BRANCH  11   3
ATOM      3  O   UNL     1      12.674   6.256  21.266  0.00  0.00    -0.388 OA
ATOM     27  H   UNL     1      12.582   5.374  20.866  0.00  0.00    +0.210 HD
ENDBRANCH  11   3
BRANCH   9   6
ATOM      6  N   UNL     1      15.789   6.632  21.437  0.00  0.00    -0.306 NA
ATOM     26  H   UNL     1      16.055   5.746  21.867  0.00  0.00    +0.123 HD
BRANCH   6  10
ATOM      4  O   UNL     1      21.491   8.504  22.778  0.00  0.00    -0.276 OA
ATOM      7  N   UNL     1      19.450   8.729  21.691  0.00  0.00    -0.302 N 
ATOM     10  C   UNL     1      16.985   7.364  21.026  0.00  0.00    +0.057 C 
ATOM     13  C   UNL     1      18.244   6.593  21.440  0.00  0.00    +0.037 C 
ATOM     14  C   UNL     1      16.984   8.765  21.651  0.00  0.00    +0.037 C 
ATOM     16  C   UNL     1      19.505   7.387  21.104  0.00  0.00    +0.109 C 
ATOM     17  C   UNL     1      18.272   9.517  21.312  0.00  0.00    +0.109 C 
ATOM     19  C   UNL     1      20.492   9.173  22.503  0.00  0.00    +0.212 C 
ATOM     20  C   UNL     1      20.360  10.564  23.071  0.00  0.00    +0.109 C 
ENDBRANCH   6  10
ENDBRANCH   9   6
BRANCH  12  18
ATOM     18  C   UNL     1      12.032   8.134  18.736  0.00  0.00    +0.138 C 
BRANCH  18   8
ATOM      5  O   UNL     1      12.843  10.777  19.511  0.00  0.00    -0.270 OA
ATOM      8  N   UNL     1      11.671   8.822  19.943  0.00  0.00    -0.308 N 
ATOM     21  C   UNL     1      12.112  10.108  20.237  0.00  0.00    +0.251 C 
ATOM     28  H   UNL     1      11.079   8.322  20.598  0.00  0.00    +0.149 HD
BRANCH  21  22
ATOM      1  S   UNL     1      11.669  12.370  21.756  0.00  0.00    -0.092 S 
ATOM     22  C   UNL     1      11.670  10.671  21.539  0.00  0.00    +0.074 A 
ATOM     23  C   UNL     1      11.236  10.006  22.665  0.00  0.00    +0.021 A 
ATOM     24  C   UNL     1      10.899  10.904  23.719  0.00  0.00    +0.008 A 
ATOM     25  C   UNL     1      11.087  12.220  23.359  0.00  0.00    +0.046 A 
ENDBRANCH  21  22
ENDBRANCH  18   8
ENDBRANCH  12  18
TORSDOF 6
ENDMDL
MODEL 10
REMARK VINA RESULT:      -6.2      3.544      7.751
REMARK  Name = 75536593
REMARK  7 active torsions:
REMARK  status: ('A' for Active; 'I' for Inactive)
REMARK    1  A    between atoms: O_3  and  C_11
REMARK    2  A    between atoms: N_6  and  C_9
REMARK    3  A    between atoms: N_6  and  C_10
REMARK    4  A    between atoms: N_8  and  C_18
REMARK    5  A    between atoms: C_12  and  C_18
REMARK    6  A    between atoms: C_19  and  C_20
REMARK    7  A    between atoms: C_21  and  C_22
REMARK                            x       y       z     vdW  Elec       q    Type
REMARK                         _______ _______ _______ _____ _____    ______ ____
ROOT
ATOM      2  O   UNL     1      18.015   6.167  19.358  0.00  0.00    -0.371 OA
ATOM      9  C   UNL     1      15.895   6.836  20.196  0.00  0.00    +0.111 C 
ATOM     11  C   UNL     1      16.919   6.926  21.312  0.00  0.00    +0.164 C 
ATOM     12  C   UNL     1      18.216   6.995  20.515  0.00  0.00    +0.165 C 
ATOM     15  C   UNL     1      16.605   5.923  19.209  0.00  0.00    +0.181 C 
ENDROOT
BRANCH  11   3
ATOM      3  O   UNL     1      16.740   8.068  22.126  0.00  0.00    -0.388 OA
ATOM     27  H   UNL     1      15.959   7.925  22.687  0.00  0.00    +0.210 HD
ENDBRANCH  11   3
BRANCH   9   6
ATOM      6  N   UNL     1      14.609   6.313  20.626  0.00  0.00    -0.306 NA
ATOM     26  H   UNL     1      14.613   6.151  21.632  0.00  0.00    +0.123 HD
BRANCH   6  10
ATOM      4  O   UNL     1      12.521  12.095  20.464  0.00  0.00    -0.276 OA
ATOM      7  N   UNL     1      12.213   9.795  20.577  0.00  0.00    -0.302 N 
ATOM     10  C   UNL     1      13.531   7.235  20.274  0.00  0.00    +0.057 C 
ATOM     13  C   UNL     1      14.112   8.515  19.661  0.00  0.00    +0.037 C 
ATOM     14  C   UNL     1      12.695   7.566  21.517  0.00  0.00    +0.037 C 
ATOM     16  C   UNL     1      13.008   9.532  19.374  0.00  0.00    +0.109 C 
ATOM     17  C   UNL     1      11.619   8.603  21.194  0.00  0.00    +0.109 C 
ATOM     19  C   UNL     1      12.041  11.105  21.021  0.00  0.00    +0.212 C 
ATOM     20  C   UNL     1      11.212  11.292  22.267  0.00  0.00    +0.109 C 
ENDBRANCH   6  10
ENDBRANCH   9   6
BRANCH  12  18
ATOM     18  C   UNL     1      19.424   6.505  21.293  0.00  0.00    +0.138 C 
BRANCH  18   8
ATOM      5  O   UNL     1      21.137   5.789  23.483  0.00  0.00    -0.270 OA
ATOM      8  N   UNL     1      19.559   7.204  22.539  0.00  0.00    -0.308 N 
ATOM     21  C   UNL     1      20.418   6.783  23.549  0.00  0.00    +0.251 C 
ATOM     28  H   UNL     1      18.983   8.029  22.670  0.00  0.00    +0.149 HD
BRANCH  21  22
ATOM      1  S   UNL     1      20.694   9.288  24.675  0.00  0.00    -0.092 S 
ATOM     22  C   UNL     1      20.423   7.601  24.790  0.00  0.00    +0.074 A 
ATOM     23  C   UNL     1      20.234   7.195  26.093  0.00  0.00    +0.021 A 
ATOM     24  C   UNL     1      20.312   8.284  27.008  0.00  0.00    +0.008 A 
ATOM     25  C   UNL     1      20.558   9.480  26.371  0.00  0.00    +0.046 A 
ENDBRANCH  21  22
ENDBRANCH  18   8
ENDBRANCH  12  18
TORSDOF 6
ENDMDL
