MODEL 1
REMARK VINA RESULT:      -7.6      0.000      0.000
REMARK  Name = 28962821
REMARK  8 active torsions:
REMARK  status: ('A' for Active; 'I' for Inactive)
REMARK    1  A    between atoms: O_2  and  C_10
REMARK    2  A    between atoms: N_5  and  C_14
REMARK    3  A    between atoms: C_7  and  C_17
REMARK    4  A    between atoms: C_9  and  C_19
REMARK    5  A    between atoms: C_12  and  C_18
REMARK    6  A    between atoms: C_18  and  C_20
REMARK    7  A    between atoms: C_18  and  C_21
REMARK    8  A    between atoms: C_22  and  C_27
REMARK                            x       y       z     vdW  Elec       q    Type
REMARK                         _______ _______ _______ _____ _____    ______ ____
ROOT
ATOM      7  C   UNL     1      -4.804 -11.318  17.379  0.00  0.00    -0.027 C 
ATOM      8  C   UNL     1      -5.800 -10.592  16.414  0.00  0.00    +0.028 C 
ATOM      9  C   UNL     1      -7.267 -10.656  16.973  0.00  0.00    +0.012 C 
ATOM     10  C   UNL     1      -5.620 -11.080  14.948  0.00  0.00    +0.122 C 
ATOM     11  C   UNL     1      -3.358 -11.138  16.860  0.00  0.00    +0.007 C 
ATOM     12  C   UNL     1      -4.153 -10.995  14.469  0.00  0.00    +0.029 C 
ATOM     13  C   UNL     1      -4.887 -10.661  18.777  0.00  0.00    +0.009 C 
ATOM     14  C   UNL     1      -7.324 -10.062  18.408  0.00  0.00    +0.076 C 
ATOM     15  C   UNL     1      -3.169 -11.651  15.439  0.00  0.00    +0.007 C 
ATOM     16  C   UNL     1      -6.293 -10.670  19.359  0.00  0.00    +0.023 C 
ATOM     17  C   UNL     1      -5.102 -12.833  17.510  0.00  0.00    +0.011 C 
ATOM     19  C   UNL     1      -8.296  -9.935  16.085  0.00  0.00    +0.010 C 
ENDROOT
BRANCH  14   5
ATOM      4  O   UNL     1      -8.488 -12.489  19.409  0.00  0.00    -0.270 OA
ATOM      5  N   UNL     1      -8.637 -10.211  18.998  0.00  0.00    -0.308 N 
ATOM     22  C   UNL     1      -9.111 -11.431  19.453  0.00  0.00    +0.244 C 
ATOM     33  H   UNL     1      -9.249  -9.404  18.961  0.00  0.00    +0.149 HD
BRANCH  22  27
ATOM      1  F   UNL     1     -13.190  -9.072  20.653  0.00  0.00    -0.205 F 
ATOM     27  C   UNL     1     -10.488 -11.421  20.008  0.00  0.00    +0.039 A 
ATOM     28  C   UNL     1     -11.207 -10.227  20.072  0.00  0.00    +0.051 A 
ATOM     29  C   UNL     1     -11.064 -12.606  20.466  0.00  0.00    +0.013 A 
ATOM     30  C   UNL     1     -12.501 -10.219  20.593  0.00  0.00    +0.124 A 
ATOM     31  C   UNL     1     -12.357 -12.598  20.987  0.00  0.00    +0.004 A 
ATOM     32  C   UNL     1     -13.076 -11.403  21.050  0.00  0.00    +0.038 A 
ENDBRANCH  22  27
ENDBRANCH  14   5
BRANCH  10   2
ATOM      2  O   UNL     1      -6.385 -10.249  14.072  0.00  0.00    -0.391 OA
ATOM     34  H   UNL     1      -6.692 -10.795  13.329  0.00  0.00    +0.210 HD
ENDBRANCH  10   2
BRANCH  12  18
ATOM     18  C   UNL     1      -3.975 -11.601  13.071  0.00  0.00    +0.078 C 
ATOM     20  C   UNL     1      -3.306 -12.962  13.145  0.00  0.00    +0.017 C 
BRANCH  18  21
ATOM      3  O   UNL     1      -1.955 -10.469  12.512  0.00  0.00    -0.275 OA
ATOM      6  N   UNL     1      -3.802 -10.045  11.191  0.00  0.00    -0.301 N 
ATOM     21  C   UNL     1      -3.141 -10.659  12.240  0.00  0.00    +0.219 C 
ATOM     23  C   UNL     1      -3.139  -9.104  10.300  0.00  0.00    +0.108 C 
ATOM     24  C   UNL     1      -5.200 -10.228  10.813  0.00  0.00    +0.108 C 
ATOM     25  C   UNL     1      -4.105  -8.938   9.136  0.00  0.00    +0.020 C 
ATOM     26  C   UNL     1      -5.465  -9.128   9.796  0.00  0.00    +0.020 C 
ENDBRANCH  18  21
ENDBRANCH  12  18
TORSDOF 5
ENDMDL
MODEL 2
REMARK VINA RESULT:      -7.2     29.999     32.911
REMARK  Name = 28962821
REMARK  8 active torsions:
REMARK  status: ('A' for Active; 'I' for Inactive)
REMARK    1  A    between atoms: O_2  and  C_10
REMARK    2  A    between atoms: N_5  and  C_14
REMARK    3  A    between atoms: C_7  and  C_17
REMARK    4  A    between atoms: C_9  and  C_19
REMARK    5  A    between atoms: C_12  and  C_18
REMARK    6  A    between atoms: C_18  and  C_20
REMARK    7  A    between atoms: C_18  and  C_21
REMARK    8  A    between atoms: C_22  and  C_27
REMARK                            x       y       z     vdW  Elec       q    Type
REMARK                         _______ _______ _______ _____ _____    ______ ____
ROOT
ATOM      7  C   UNL     1      19.470   9.848  22.064  0.00  0.00    -0.027 C 
ATOM      8  C   UNL     1      18.630   8.587  21.667  0.00  0.00    +0.028 C 
ATOM      9  C   UNL     1      19.549   7.479  21.039  0.00  0.00    +0.012 C 
ATOM     10  C   UNL     1      17.385   8.982  20.823  0.00  0.00    +0.122 C 
ATOM     11  C   UNL     1      18.558  10.871  22.781  0.00  0.00    +0.007 C 
ATOM     12  C   UNL     1      16.532  10.081  21.499  0.00  0.00    +0.029 C 
ATOM     13  C   UNL     1      20.576   9.425  23.058  0.00  0.00    +0.009 C 
ATOM     14  C   UNL     1      20.701   7.116  22.017  0.00  0.00    +0.076 C 
ATOM     15  C   UNL     1      17.358  11.289  21.941  0.00  0.00    +0.007 C 
ATOM     16  C   UNL     1      21.483   8.332  22.513  0.00  0.00    +0.023 C 
ATOM     17  C   UNL     1      20.122  10.536  20.837  0.00  0.00    +0.011 C 
ATOM     19  C   UNL     1      18.791   6.197  20.652  0.00  0.00    +0.010 C 
ENDROOT
BRANCH  14   5
ATOM      4  O   UNL     1      21.554   4.607  23.123  0.00  0.00    -0.270 OA
ATOM      5  N   UNL     1      21.634   6.181  21.422  0.00  0.00    -0.308 N 
ATOM     22  C   UNL     1      21.983   4.991  22.039  0.00  0.00    +0.244 C 
ATOM     33  H   UNL     1      22.115   6.486  20.584  0.00  0.00    +0.149 HD
BRANCH  22  27
ATOM      1  F   UNL     1      24.057   0.687  21.130  0.00  0.00    -0.205 F 
ATOM     27  C   UNL     1      22.973   4.155  21.312  0.00  0.00    +0.039 A 
ATOM     28  C   UNL     1      23.052   2.786  21.567  0.00  0.00    +0.051 A 
ATOM     29  C   UNL     1      23.824   4.739  20.373  0.00  0.00    +0.013 A 
ATOM     30  C   UNL     1      23.982   2.002  20.884  0.00  0.00    +0.124 A 
ATOM     31  C   UNL     1      24.753   3.955  19.690  0.00  0.00    +0.004 A 
ATOM     32  C   UNL     1      24.832   2.586  19.946  0.00  0.00    +0.038 A 
ENDBRANCH  22  27
ENDBRANCH  14   5
BRANCH  10   2
ATOM      2  O   UNL     1      16.535   7.844  20.667  0.00  0.00    -0.391 OA
ATOM     34  H   UNL     1      15.619   8.160  20.586  0.00  0.00    +0.210 HD
ENDBRANCH  10   2
BRANCH  12  18
ATOM     18  C   UNL     1      15.386  10.548  20.594  0.00  0.00    +0.078 C 
ATOM     20  C   UNL     1      15.527  12.019  20.245  0.00  0.00    +0.017 C 
BRANCH  18  21
ATOM      3  O   UNL     1      13.870  10.813  22.412  0.00  0.00    -0.275 OA
ATOM      6  N   UNL     1      13.177   9.497  20.644  0.00  0.00    -0.301 N 
ATOM     21  C   UNL     1      14.080  10.308  21.308  0.00  0.00    +0.219 C 
ATOM     23  C   UNL     1      11.875   9.164  21.203  0.00  0.00    +0.108 C 
ATOM     24  C   UNL     1      13.361   8.873  19.338  0.00  0.00    +0.108 C 
ATOM     25  C   UNL     1      11.108   8.553  20.040  0.00  0.00    +0.020 C 
ATOM     26  C   UNL     1      12.207   7.888  19.221  0.00  0.00    +0.020 C 
ENDBRANCH  18  21
ENDBRANCH  12  18
TORSDOF 5
ENDMDL
MODEL 3
REMARK VINA RESULT:      -7.2     25.805     28.146
REMARK  Name = 28962821
REMARK  8 active torsions:
REMARK  status: ('A' for Active; 'I' for Inactive)
REMARK    1  A    between atoms: O_2  and  C_10
REMARK    2  A    between atoms: N_5  and  C_14
REMARK    3  A    between atoms: C_7  and  C_17
REMARK    4  A    between atoms: C_9  and  C_19
REMARK    5  A    between atoms: C_12  and  C_18
REMARK    6  A    between atoms: C_18  and  C_20
REMARK    7  A    between atoms: C_18  and  C_21
REMARK    8  A    between atoms: C_22  and  C_27
REMARK                            x       y       z     vdW  Elec       q    Type
REMARK                         _______ _______ _______ _____ _____    ______ ____
ROOT
ATOM      7  C   UNL     1       9.488   5.906   5.951  0.00  0.00    -0.027 C 
ATOM      8  C   UNL     1      10.477   7.026   5.483  0.00  0.00    +0.028 C 
ATOM      9  C   UNL     1       9.987   8.440   5.961  0.00  0.00    +0.012 C 
ATOM     10  C   UNL     1      10.789   6.905   3.964  0.00  0.00    +0.122 C 
ATOM     11  C   UNL     1      10.057   4.520   5.564  0.00  0.00    +0.007 C 
ATOM     12  C   UNL     1      11.259   5.487   3.566  0.00  0.00    +0.029 C 
ATOM     13  C   UNL     1       9.367   5.951   7.492  0.00  0.00    +0.009 C 
ATOM     14  C   UNL     1       9.795   8.451   7.504  0.00  0.00    +0.076 C 
ATOM     15  C   UNL     1      10.327   4.385   4.071  0.00  0.00    +0.007 C 
ATOM     16  C   UNL     1       8.920   7.308   8.017  0.00  0.00    +0.023 C 
ATOM     17  C   UNL     1       8.079   6.059   5.324  0.00  0.00    +0.011 C 
ATOM     19  C   UNL     1      10.930   9.587   5.560  0.00  0.00    +0.010 C 
ENDROOT
BRANCH  14   5
ATOM      4  O   UNL     1      11.147  10.483   9.018  0.00  0.00    -0.270 OA
ATOM      5  N   UNL     1       9.233   9.703   7.966  0.00  0.00    -0.308 N 
ATOM     22  C   UNL     1       9.971  10.622   8.693  0.00  0.00    +0.244 C 
ATOM     33  H   UNL     1       8.236   9.833   7.834  0.00  0.00    +0.149 HD
BRANCH  22  27
ATOM      1  F   UNL     1       8.175  13.512  12.168  0.00  0.00    -0.205 F 
ATOM     27  C   UNL     1       9.241  11.845   9.115  0.00  0.00    +0.039 A 
ATOM     28  C   UNL     1       9.047  12.109  10.471  0.00  0.00    +0.051 A 
ATOM     29  C   UNL     1       8.748  12.729   8.155  0.00  0.00    +0.013 A 
ATOM     30  C   UNL     1       8.361  13.258  10.866  0.00  0.00    +0.124 A 
ATOM     31  C   UNL     1       8.062  13.877   8.550  0.00  0.00    +0.004 A 
ATOM     32  C   UNL     1       7.869  14.142   9.906  0.00  0.00    +0.038 A 
ENDBRANCH  22  27
ENDBRANCH  14   5
BRANCH  10   2
ATOM      2  O   UNL     1      11.850   7.798   3.623  0.00  0.00    -0.391 OA
ATOM     34  H   UNL     1      11.683   8.648   4.063  0.00  0.00    +0.210 HD
ENDBRANCH  10   2
BRANCH  12  18
ATOM     18  C   UNL     1      11.434   5.352   2.048  0.00  0.00    +0.078 C 
ATOM     20  C   UNL     1      10.154   4.875   1.388  0.00  0.00    +0.017 C 
BRANCH  18  21
ATOM      3  O   UNL     1      12.388   3.170   1.973  0.00  0.00    -0.275 OA
ATOM      6  N   UNL     1      13.731   4.932   1.315  0.00  0.00    -0.301 N 
ATOM     21  C   UNL     1      12.551   4.376   1.777  0.00  0.00    +0.219 C 
ATOM     23  C   UNL     1      14.904   4.125   1.013  0.00  0.00    +0.108 C 
ATOM     24  C   UNL     1      13.988   6.346   1.060  0.00  0.00    +0.108 C 
ATOM     25  C   UNL     1      15.823   5.064   0.247  0.00  0.00    +0.020 C 
ATOM     26  C   UNL     1      15.492   6.425   0.844  0.00  0.00    +0.020 C 
ENDBRANCH  18  21
ENDBRANCH  12  18
TORSDOF 5
ENDMDL
MODEL 4
REMARK VINA RESULT:      -7.0      4.433      6.095
REMARK  Name = 28962821
REMARK  8 active torsions:
REMARK  status: ('A' for Active; 'I' for Inactive)
REMARK    1  A    between atoms: O_2  and  C_10
REMARK    2  A    between atoms: N_5  and  C_14
REMARK    3  A    between atoms: C_7  and  C_17
REMARK    4  A    between atoms: C_9  and  C_19
REMARK    5  A    between atoms: C_12  and  C_18
REMARK    6  A    between atoms: C_18  and  C_20
REMARK    7  A    between atoms: C_18  and  C_21
REMARK    8  A    between atoms: C_22  and  C_27
REMARK                            x       y       z     vdW  Elec       q    Type
REMARK                         _______ _______ _______ _____ _____    ______ ____
ROOT
ATOM      7  C   UNL     1      -9.515 -10.820  18.363  0.00  0.00    -0.027 C 
ATOM      8  C   UNL     1      -8.816  -9.916  17.293  0.00  0.00    +0.028 C 
ATOM      9  C   UNL     1      -9.875  -9.268  16.331  0.00  0.00    +0.012 C 
ATOM     10  C   UNL     1      -7.649 -10.670  16.594  0.00  0.00    +0.122 C 
ATOM     11  C   UNL     1      -8.459 -11.350  19.362  0.00  0.00    +0.007 C 
ATOM     12  C   UNL     1      -6.651 -11.286  17.601  0.00  0.00    +0.029 C 
ATOM     13  C   UNL     1     -10.530  -9.967  19.160  0.00  0.00    +0.009 C 
ATOM     14  C   UNL     1     -10.933  -8.476  17.148  0.00  0.00    +0.076 C 
ATOM     15  C   UNL     1      -7.335 -12.122  18.684  0.00  0.00    +0.007 C 
ATOM     16  C   UNL     1     -11.567  -9.292  18.274  0.00  0.00    +0.023 C 
ATOM     17  C   UNL     1     -10.251 -12.028  17.729  0.00  0.00    +0.011 C 
ATOM     19  C   UNL     1      -9.257  -8.341  15.270  0.00  0.00    +0.010 C 
ENDROOT
BRANCH  14   5
ATOM      4  O   UNL     1     -11.280  -5.755  16.299  0.00  0.00    -0.270 OA
ATOM      5  N   UNL     1     -11.990  -7.962  16.302  0.00  0.00    -0.308 N 
ATOM     22  C   UNL     1     -12.071  -6.626  15.947  0.00  0.00    +0.244 C 
ATOM     33  H   UNL     1     -12.741  -8.602  16.070  0.00  0.00    +0.149 HD
BRANCH  22  27
ATOM      1  F   UNL     1     -14.074  -3.905  12.449  0.00  0.00    -0.205 F 
ATOM     27  C   UNL     1     -13.230  -6.254  15.095  0.00  0.00    +0.039 A 
ATOM     28  C   UNL     1     -13.105  -5.234  14.153  0.00  0.00    +0.051 A 
ATOM     29  C   UNL     1     -14.444  -6.927  15.239  0.00  0.00    +0.013 A 
ATOM     30  C   UNL     1     -14.194  -4.885  13.354  0.00  0.00    +0.124 A 
ATOM     31  C   UNL     1     -15.533  -6.578  14.440  0.00  0.00    +0.004 A 
ATOM     32  C   UNL     1     -15.408  -5.557  13.497  0.00  0.00    +0.038 A 
ENDBRANCH  22  27
ENDBRANCH  14   5
BRANCH  10   2
ATOM      2  O   UNL     1      -6.904  -9.753  15.790  0.00  0.00    -0.391 OA
ATOM     34  H   UNL     1      -5.960  -9.959  15.893  0.00  0.00    +0.210 HD
ENDBRANCH  10   2
BRANCH  12  18
ATOM     18  C   UNL     1      -5.583 -12.133  16.898  0.00  0.00    +0.078 C 
ATOM     20  C   UNL     1      -5.653 -13.582  17.344  0.00  0.00    +0.017 C 
BRANCH  18  21
ATOM      3  O   UNL     1      -3.866 -11.416  18.385  0.00  0.00    -0.275 OA
ATOM      6  N   UNL     1      -3.455 -11.211  16.121  0.00  0.00    -0.301 N 
ATOM     21  C   UNL     1      -4.226 -11.558  17.215  0.00  0.00    +0.219 C 
ATOM     23  C   UNL     1      -2.124 -10.638  16.259  0.00  0.00    +0.108 C 
ATOM     24  C   UNL     1      -3.819 -11.357  14.715  0.00  0.00    +0.108 C 
ATOM     25  C   UNL     1      -1.528 -10.720  14.861  0.00  0.00    +0.020 C 
ATOM     26  C   UNL     1      -2.750 -10.577  13.963  0.00  0.00    +0.020 C 
ENDBRANCH  18  21
ENDBRANCH  12  18
TORSDOF 5
ENDMDL
MODEL 5
REMARK VINA RESULT:      -7.0      3.942     10.376
REMARK  Name = 28962821
REMARK  8 active torsions:
REMARK  status: ('A' for Active; 'I' for Inactive)
REMARK    1  A    between atoms: O_2  and  C_10
REMARK    2  A    between atoms: N_5  and  C_14
REMARK    3  A    between atoms: C_7  and  C_17
REMARK    4  A    between atoms: C_9  and  C_19
REMARK    5  A    between atoms: C_12  and  C_18
REMARK    6  A    between atoms: C_18  and  C_20
REMARK    7  A    between atoms: C_18  and  C_21
REMARK    8  A    between atoms: C_22  and  C_27
REMARK                            x       y       z     vdW  Elec       q    Type
REMARK                         _______ _______ _______ _____ _____    ______ ____
ROOT
ATOM      7  C   UNL     1     -10.306  -9.787  17.712  0.00  0.00    -0.027 C 
ATOM      8  C   UNL     1      -9.591 -10.876  18.580  0.00  0.00    +0.028 C 
ATOM      9  C   UNL     1      -8.299 -11.405  17.859  0.00  0.00    +0.012 C 
ATOM     10  C   UNL     1     -10.592 -11.970  19.049  0.00  0.00    +0.122 C 
ATOM     11  C   UNL     1     -11.506  -9.206  18.498  0.00  0.00    +0.007 C 
ATOM     12  C   UNL     1     -11.840 -11.376  19.742  0.00  0.00    +0.029 C 
ATOM     13  C   UNL     1      -9.318  -8.629  17.439  0.00  0.00    +0.009 C 
ATOM     14  C   UNL     1      -7.347 -10.224  17.522  0.00  0.00    +0.076 C 
ATOM     15  C   UNL     1     -12.508 -10.270  18.925  0.00  0.00    +0.007 C 
ATOM     16  C   UNL     1      -8.033  -9.088  16.764  0.00  0.00    +0.023 C 
ATOM     17  C   UNL     1     -10.820 -10.347  16.362  0.00  0.00    +0.011 C 
ATOM     19  C   UNL     1      -7.529 -12.460  18.672  0.00  0.00    +0.010 C 
ENDROOT
BRANCH  14   5
ATOM      4  O   UNL     1      -4.656 -10.522  18.478  0.00  0.00    -0.270 OA
ATOM      5  N   UNL     1      -6.200 -10.662  16.754  0.00  0.00    -0.308 N 
ATOM     22  C   UNL     1      -4.936 -10.774  17.309  0.00  0.00    +0.244 C 
ATOM     33  H   UNL     1      -6.335 -10.775  15.756  0.00  0.00    +0.149 HD
BRANCH  22  27
ATOM      1  F   UNL     1      -0.396 -10.426  15.603  0.00  0.00    -0.205 F 
ATOM     27  C   UNL     1      -3.862 -11.211  16.381  0.00  0.00    +0.039 A 
ATOM     28  C   UNL     1      -2.609 -10.601  16.429  0.00  0.00    +0.051 A 
ATOM     29  C   UNL     1      -4.107 -12.231  15.462  0.00  0.00    +0.013 A 
ATOM     30  C   UNL     1      -1.600 -11.012  15.557  0.00  0.00    +0.124 A 
ATOM     31  C   UNL     1      -3.098 -12.641  14.590  0.00  0.00    +0.004 A 
ATOM     32  C   UNL     1      -1.844 -12.032  14.638  0.00  0.00    +0.038 A 
ENDBRANCH  22  27
ENDBRANCH  14   5
BRANCH  10   2
ATOM      2  O   UNL     1      -9.956 -12.818  20.007  0.00  0.00    -0.391 OA
ATOM     34  H   UNL     1     -10.290 -12.580  20.889  0.00  0.00    +0.210 HD
ENDBRANCH  10   2
BRANCH  12  18
ATOM     18  C   UNL     1     -12.873 -12.459  20.079  0.00  0.00    +0.078 C 
ATOM     20  C   UNL     1     -13.960 -12.526  19.022  0.00  0.00    +0.017 C 
BRANCH  18  21
ATOM      3  O   UNL     1     -14.268 -11.213  21.553  0.00  0.00    -0.275 OA
ATOM      6  N   UNL     1     -13.072 -12.967  22.464  0.00  0.00    -0.301 N 
ATOM     21  C   UNL     1     -13.476 -12.148  21.425  0.00  0.00    +0.219 C 
ATOM     23  C   UNL     1     -13.559 -12.793  23.825  0.00  0.00    +0.108 C 
ATOM     24  C   UNL     1     -12.143 -14.090  22.379  0.00  0.00    +0.108 C 
ATOM     25  C   UNL     1     -13.136 -14.065  24.545  0.00  0.00    +0.020 C 
ATOM     26  C   UNL     1     -11.847 -14.447  23.828  0.00  0.00    +0.020 C 
ENDBRANCH  18  21
ENDBRANCH  12  18
TORSDOF 5
ENDMDL
MODEL 6
REMARK VINA RESULT:      -6.9     27.974     31.536
REMARK  Name = 28962821
REMARK  8 active torsions:
REMARK  status: ('A' for Active; 'I' for Inactive)
REMARK    1  A    between atoms: O_2  and  C_10
REMARK    2  A    between atoms: N_5  and  C_14
REMARK    3  A    between atoms: C_7  and  C_17
REMARK    4  A    between atoms: C_9  and  C_19
REMARK    5  A    between atoms: C_12  and  C_18
REMARK    6  A    between atoms: C_18  and  C_20
REMARK    7  A    between atoms: C_18  and  C_21
REMARK    8  A    between atoms: C_22  and  C_27
REMARK                            x       y       z     vdW  Elec       q    Type
REMARK                         _______ _______ _______ _____ _____    ______ ____
ROOT
ATOM      7  C   UNL     1      12.466   8.971  17.467  0.00  0.00    -0.027 C 
ATOM      8  C   UNL     1      13.199  10.199  18.105  0.00  0.00    +0.028 C 
ATOM      9  C   UNL     1      14.472  10.586  17.271  0.00  0.00    +0.012 C 
ATOM     10  C   UNL     1      13.435   9.985  19.628  0.00  0.00    +0.122 C 
ATOM     11  C   UNL     1      11.158   8.689  18.244  0.00  0.00    +0.007 C 
ATOM     12  C   UNL     1      12.142   9.601  20.382  0.00  0.00    +0.029 C 
ATOM     13  C   UNL     1      12.082   9.315  16.009  0.00  0.00    +0.009 C 
ATOM     14  C   UNL     1      14.085  10.855  15.790  0.00  0.00    +0.076 C 
ATOM     15  C   UNL     1      11.391   8.440  19.728  0.00  0.00    +0.007 C 
ATOM     16  C   UNL     1      13.275   9.724  15.157  0.00  0.00    +0.023 C 
ATOM     17  C   UNL     1      13.338   7.690  17.476  0.00  0.00    +0.011 C 
ATOM     19  C   UNL     1      15.226  11.806  17.827  0.00  0.00    +0.010 C 
ENDROOT
BRANCH  14   5
ATOM      4  O   UNL     1      14.276  12.694  13.592  0.00  0.00    -0.270 OA
ATOM      5  N   UNL     1      15.251  11.101  14.967  0.00  0.00    -0.308 N 
ATOM     22  C   UNL     1      15.242  12.013  13.925  0.00  0.00    +0.244 C 
ATOM     33  H   UNL     1      16.048  10.492  15.111  0.00  0.00    +0.149 HD
BRANCH  22  27
ATOM      1  F   UNL     1      17.654  12.268   9.709  0.00  0.00    -0.205 F 
ATOM     27  C   UNL     1      16.511  12.129  13.160  0.00  0.00    +0.039 A 
ATOM     28  C   UNL     1      16.486  12.144  11.766  0.00  0.00    +0.051 A 
ATOM     29  C   UNL     1      17.727  12.223  13.838  0.00  0.00    +0.013 A 
ATOM     30  C   UNL     1      17.678  12.253  11.049  0.00  0.00    +0.124 A 
ATOM     31  C   UNL     1      18.918  12.332  13.120  0.00  0.00    +0.004 A 
ATOM     32  C   UNL     1      18.893  12.348  11.725  0.00  0.00    +0.038 A 
ENDBRANCH  22  27
ENDBRANCH  14   5
BRANCH  10   2
ATOM      2  O   UNL     1      13.903  11.201  20.213  0.00  0.00    -0.391 OA
ATOM     34  H   UNL     1      14.249  10.997  21.098  0.00  0.00    +0.210 HD
ENDBRANCH  10   2
BRANCH  12  18
ATOM     18  C   UNL     1      12.420   9.266  21.853  0.00  0.00    +0.078 C 
ATOM     20  C   UNL     1      12.446   7.766  22.079  0.00  0.00    +0.017 C 
BRANCH  18  21
ATOM      3  O   UNL     1      10.182   9.501  22.636  0.00  0.00    -0.275 OA
ATOM      6  N   UNL     1      11.765  10.931  23.523  0.00  0.00    -0.301 N 
ATOM     21  C   UNL     1      11.346   9.900  22.702  0.00  0.00    +0.219 C 
ATOM     23  C   UNL     1      10.850  11.648  24.398  0.00  0.00    +0.108 C 
ATOM     24  C   UNL     1      13.125  11.447  23.651  0.00  0.00    +0.108 C 
ATOM     25  C   UNL     1      11.756  12.440  25.329  0.00  0.00    +0.020 C 
ATOM     26  C   UNL     1      12.970  12.730  24.455  0.00  0.00    +0.020 C 
ENDBRANCH  18  21
ENDBRANCH  12  18
TORSDOF 5
ENDMDL
MODEL 7
REMARK VINA RESULT:      -6.8      4.223      9.884
REMARK  Name = 28962821
REMARK  8 active torsions:
REMARK  status: ('A' for Active; 'I' for Inactive)
REMARK    1  A    between atoms: O_2  and  C_10
REMARK    2  A    between atoms: N_5  and  C_14
REMARK    3  A    between atoms: C_7  and  C_17
REMARK    4  A    between atoms: C_9  and  C_19
REMARK    5  A    between atoms: C_12  and  C_18
REMARK    6  A    between atoms: C_18  and  C_20
REMARK    7  A    between atoms: C_18  and  C_21
REMARK    8  A    between atoms: C_22  and  C_27
REMARK                            x       y       z     vdW  Elec       q    Type
REMARK                         _______ _______ _______ _____ _____    ______ ____
ROOT
ATOM      7  C   UNL     1      -3.608 -11.070  10.880  0.00  0.00    -0.027 C 
ATOM      8  C   UNL     1      -5.045 -10.800  11.441  0.00  0.00    +0.028 C 
ATOM      9  C   UNL     1      -5.872  -9.904  10.451  0.00  0.00    +0.012 C 
ATOM     10  C   UNL     1      -4.990 -10.298  12.912  0.00  0.00    +0.122 C 
ATOM     11  C   UNL     1      -2.862 -12.047  11.820  0.00  0.00    +0.007 C 
ATOM     12  C   UNL     1      -4.155 -11.225  13.826  0.00  0.00    +0.029 C 
ATOM     13  C   UNL     1      -3.726 -11.749   9.496  0.00  0.00    +0.009 C 
ATOM     14  C   UNL     1      -5.920 -10.559   9.042  0.00  0.00    +0.076 C 
ATOM     15  C   UNL     1      -2.773 -11.539  13.254  0.00  0.00    +0.007 C 
ATOM     16  C   UNL     1      -4.542 -10.936   8.500  0.00  0.00    +0.023 C 
ATOM     17  C   UNL     1      -2.771  -9.773  10.743  0.00  0.00    +0.011 C 
ATOM     19  C   UNL     1      -7.307  -9.622  10.928  0.00  0.00    +0.010 C 
ENDROOT
BRANCH  14   5
ATOM      4  O   UNL     1      -7.574 -11.401   6.851  0.00  0.00    -0.270 OA
ATOM      5  N   UNL     1      -6.576  -9.703   8.075  0.00  0.00    -0.308 N 
ATOM     22  C   UNL     1      -7.356 -10.209   7.049  0.00  0.00    +0.244 C 
ATOM     33  H   UNL     1      -6.347  -8.717   8.109  0.00  0.00    +0.149 HD
BRANCH  22  27
ATOM      1  F   UNL     1     -10.406  -6.529   6.151  0.00  0.00    -0.205 F 
ATOM     27  C   UNL     1      -7.938  -9.201   6.126  0.00  0.00    +0.039 A 
ATOM     28  C   UNL     1      -8.918  -8.321   6.581  0.00  0.00    +0.051 A 
ATOM     29  C   UNL     1      -7.502  -9.136   4.801  0.00  0.00    +0.013 A 
ATOM     30  C   UNL     1      -9.464  -7.375   5.712  0.00  0.00    +0.124 A 
ATOM     31  C   UNL     1      -8.048  -8.191   3.934  0.00  0.00    +0.004 A 
ATOM     32  C   UNL     1      -9.029  -7.309   4.390  0.00  0.00    +0.038 A 
ENDBRANCH  22  27
ENDBRANCH  14   5
BRANCH  10   2
ATOM      2  O   UNL     1      -6.311 -10.271  13.456  0.00  0.00    -0.391 OA
ATOM     34  H   UNL     1      -6.710  -9.412  13.237  0.00  0.00    +0.210 HD
ENDBRANCH  10   2
BRANCH  12  18
ATOM     18  C   UNL     1      -4.004 -10.645  15.238  0.00  0.00    +0.078 C 
ATOM     20  C   UNL     1      -2.545 -10.570  15.647  0.00  0.00    +0.017 C 
BRANCH  18  21
ATOM      3  O   UNL     1      -4.452 -12.699  16.358  0.00  0.00    -0.275 OA
ATOM      6  N   UNL     1      -5.817 -10.904  16.861  0.00  0.00    -0.301 N 
ATOM     21  C   UNL     1      -4.768 -11.519  16.201  0.00  0.00    +0.219 C 
ATOM     23  C   UNL     1      -6.654 -11.613  17.819  0.00  0.00    +0.108 C 
ATOM     24  C   UNL     1      -6.239  -9.514  16.725  0.00  0.00    +0.108 C 
ATOM     25  C   UNL     1      -7.436 -10.516  18.525  0.00  0.00    +0.020 C 
ATOM     26  C   UNL     1      -7.579  -9.452  17.444  0.00  0.00    +0.020 C 
ENDBRANCH  18  21
ENDBRANCH  12  18
TORSDOF 5
ENDMDL
MODEL 8
REMARK VINA RESULT:      -6.7     29.949     32.842
REMARK  Name = 28962821
REMARK  8 active torsions:
REMARK  status: ('A' for Active; 'I' for Inactive)
REMARK    1  A    between atoms: O_2  and  C_10
REMARK    2  A    between atoms: N_5  and  C_14
REMARK    3  A    between atoms: C_7  and  C_17
REMARK    4  A    between atoms: C_9  and  C_19
REMARK    5  A    between atoms: C_12  and  C_18
REMARK    6  A    between atoms: C_18  and  C_20
REMARK    7  A    between atoms: C_18  and  C_21
REMARK    8  A    between atoms: C_22  and  C_27
REMARK                            x       y       z     vdW  Elec       q    Type
REMARK                         _______ _______ _______ _____ _____    ______ ____
ROOT
ATOM      7  C   UNL     1      16.335   7.145  19.983  0.00  0.00    -0.027 C 
ATOM      8  C   UNL     1      17.371   8.014  20.773  0.00  0.00    +0.028 C 
ATOM      9  C   UNL     1      18.432   7.104  21.489  0.00  0.00    +0.012 C 
ATOM     10  C   UNL     1      16.656   9.052  21.684  0.00  0.00    +0.122 C 
ATOM     11  C   UNL     1      15.376   8.071  19.199  0.00  0.00    +0.007 C 
ATOM     12  C   UNL     1      15.622   9.906  20.915  0.00  0.00    +0.029 C 
ATOM     13  C   UNL     1      17.091   6.272  18.954  0.00  0.00    +0.009 C 
ATOM     14  C   UNL     1      19.132   6.177  20.456  0.00  0.00    +0.076 C 
ATOM     15  C   UNL     1      14.645   9.063  20.094  0.00  0.00    +0.007 C 
ATOM     16  C   UNL     1      18.154   5.386  19.589  0.00  0.00    +0.023 C 
ATOM     17  C   UNL     1      15.497   6.230  20.911  0.00  0.00    +0.011 C 
ATOM     19  C   UNL     1      19.501   7.896  22.263  0.00  0.00    +0.010 C 
ENDROOT
BRANCH  14   5
ATOM      4  O   UNL     1      21.981   6.040  20.122  0.00  0.00    -0.270 OA
ATOM      5  N   UNL     1      20.034   5.244  21.098  0.00  0.00    -0.308 N 
ATOM     22  C   UNL     1      21.400   5.258  20.870  0.00  0.00    +0.244 C 
ATOM     33  H   UNL     1      19.611   4.497  21.638  0.00  0.00    +0.149 HD
BRANCH  22  27
ATOM      1  F   UNL     1      24.184   1.271  20.845  0.00  0.00    -0.205 F 
ATOM     27  C   UNL     1      22.184   4.219  21.585  0.00  0.00    +0.039 A 
ATOM     28  C   UNL     1      22.829   3.213  20.865  0.00  0.00    +0.051 A 
ATOM     29  C   UNL     1      22.275   4.248  22.977  0.00  0.00    +0.013 A 
ATOM     30  C   UNL     1      23.565   2.237  21.537  0.00  0.00    +0.124 A 
ATOM     31  C   UNL     1      23.010   3.272  23.649  0.00  0.00    +0.004 A 
ATOM     32  C   UNL     1      23.656   2.266  22.928  0.00  0.00    +0.038 A 
ENDBRANCH  22  27
ENDBRANCH  14   5
BRANCH  10   2
ATOM      2  O   UNL     1      17.620   9.962  22.217  0.00  0.00    -0.391 OA
ATOM     34  H   UNL     1      17.311  10.252  23.092  0.00  0.00    +0.210 HD
ENDBRANCH  10   2
BRANCH  12  18
ATOM     18  C   UNL     1      14.836  10.831  21.854  0.00  0.00    +0.078 C 
ATOM     20  C   UNL     1      13.352  10.516  21.818  0.00  0.00    +0.017 C 
BRANCH  18  21
ATOM      3  O   UNL     1      14.787  12.629  20.292  0.00  0.00    -0.275 OA
ATOM      6  N   UNL     1      15.625  13.082  22.397  0.00  0.00    -0.301 N 
ATOM     21  C   UNL     1      15.073  12.259  21.432  0.00  0.00    +0.219 C 
ATOM     23  C   UNL     1      15.920  14.485  22.145  0.00  0.00    +0.108 C 
ATOM     24  C   UNL     1      15.983  12.709  23.762  0.00  0.00    +0.108 C 
ATOM     25  C   UNL     1      16.191  15.070  23.524  0.00  0.00    +0.020 C 
ATOM     26  C   UNL     1      16.789  13.891  24.281  0.00  0.00    +0.020 C 
ENDBRANCH  18  21
ENDBRANCH  12  18
TORSDOF 5
ENDMDL
MODEL 9
REMARK VINA RESULT:      -6.5     30.031     31.705
REMARK  Name = 28962821
REMARK  8 active torsions:
REMARK  status: ('A' for Active; 'I' for Inactive)
REMARK    1  A    between atoms: O_2  and  C_10
REMARK    2  A    between atoms: N_5  and  C_14
REMARK    3  A    between atoms: C_7  and  C_17
REMARK    4  A    between atoms: C_9  and  C_19
REMARK    5  A    between atoms: C_12  and  C_18
REMARK    6  A    between atoms: C_18  and  C_20
REMARK    7  A    between atoms: C_18  and  C_21
REMARK    8  A    between atoms: C_22  and  C_27
REMARK                            x       y       z     vdW  Elec       q    Type
REMARK                         _______ _______ _______ _____ _____    ______ ____
ROOT
ATOM      7  C   UNL     1      21.421  -6.016   0.856  0.00  0.00    -0.027 C 
ATOM      8  C   UNL     1      20.379  -7.184   0.869  0.00  0.00    +0.028 C 
ATOM      9  C   UNL     1      20.943  -8.428   1.645  0.00  0.00    +0.012 C 
ATOM     10  C   UNL     1      19.841  -7.475  -0.561  0.00  0.00    +0.122 C 
ATOM     11  C   UNL     1      20.793  -4.771   0.186  0.00  0.00    +0.007 C 
ATOM     12  C   UNL     1      19.309  -6.206  -1.266  0.00  0.00    +0.029 C 
ATOM     13  C   UNL     1      21.774  -5.638   2.314  0.00  0.00    +0.009 C 
ATOM     14  C   UNL     1      21.365  -8.020   3.084  0.00  0.00    +0.076 C 
ATOM     15  C   UNL     1      20.301  -5.043  -1.229  0.00  0.00    +0.007 C 
ATOM     16  C   UNL     1      22.302  -6.813   3.124  0.00  0.00    +0.023 C 
ATOM     17  C   UNL     1      22.720  -6.388   0.098  0.00  0.00    +0.011 C 
ATOM     19  C   UNL     1      19.957  -9.606   1.721  0.00  0.00    +0.010 C 
ENDROOT
BRANCH  14   5
ATOM      4  O   UNL     1      21.708  -8.261   5.925  0.00  0.00    -0.270 OA
ATOM      5  N   UNL     1      21.997  -9.116   3.789  0.00  0.00    -0.308 N 
ATOM     22  C   UNL     1      22.114  -9.139   5.169  0.00  0.00    +0.244 C 
ATOM     33  H   UNL     1      22.457  -9.819   3.222  0.00  0.00    +0.149 HD
BRANCH  22  27
ATOM      1  F   UNL     1      22.040 -13.374   7.559  0.00  0.00    -0.205 F 
ATOM     27  C   UNL     1      22.812 -10.321   5.737  0.00  0.00    +0.039 A 
ATOM     28  C   UNL     1      22.084 -11.312   6.394  0.00  0.00    +0.051 A 
ATOM     29  C   UNL     1      24.197 -10.440   5.612  0.00  0.00    +0.013 A 
ATOM     30  C   UNL     1      22.740 -12.422   6.927  0.00  0.00    +0.124 A 
ATOM     31  C   UNL     1      24.852 -11.549   6.145  0.00  0.00    +0.004 A 
ATOM     32  C   UNL     1      24.124 -12.541   6.803  0.00  0.00    +0.038 A 
ENDBRANCH  22  27
ENDBRANCH  14   5
BRANCH  10   2
ATOM      2  O   UNL     1      18.745  -8.388  -0.481  0.00  0.00    -0.391 OA
ATOM     34  H   UNL     1      18.761  -8.949  -1.274  0.00  0.00    +0.210 HD
ENDBRANCH  10   2
BRANCH  12  18
ATOM     18  C   UNL     1      18.906  -6.489  -2.718  0.00  0.00    +0.078 C 
ATOM     20  C   UNL     1      19.956  -5.979  -3.688  0.00  0.00    +0.017 C 
BRANCH  18  21
ATOM      3  O   UNL     1      17.490  -4.592  -2.982  0.00  0.00    -0.275 OA
ATOM      6  N   UNL     1      16.521  -6.674  -3.232  0.00  0.00    -0.301 N 
ATOM     21  C   UNL     1      17.582  -5.820  -2.990  0.00  0.00    +0.219 C 
ATOM     23  C   UNL     1      15.177  -6.185  -3.504  0.00  0.00    +0.108 C 
ATOM     24  C   UNL     1      16.563  -8.133  -3.260  0.00  0.00    +0.108 C 
ATOM     25  C   UNL     1      14.428  -7.403  -4.024  0.00  0.00    +0.020 C 
ATOM     26  C   UNL     1      15.101  -8.554  -3.288  0.00  0.00    +0.020 C 
ENDBRANCH  18  21
ENDBRANCH  12  18
TORSDOF 5
ENDMDL
MODEL 10
REMARK VINA RESULT:      -6.5     21.074     25.027
REMARK  Name = 28962821
REMARK  8 active torsions:
REMARK  status: ('A' for Active; 'I' for Inactive)
REMARK    1  A    between atoms: O_2  and  C_10
REMARK    2  A    between atoms: N_5  and  C_14
REMARK    3  A    between atoms: C_7  and  C_17
REMARK    4  A    between atoms: C_9  and  C_19
REMARK    5  A    between atoms: C_12  and  C_18
REMARK    6  A    between atoms: C_18  and  C_20
REMARK    7  A    between atoms: C_18  and  C_21
REMARK    8  A    between atoms: C_22  and  C_27
REMARK                            x       y       z     vdW  Elec       q    Type
REMARK                         _______ _______ _______ _____ _____    ______ ____
ROOT
ATOM      7  C   UNL     1      -0.599  11.384   4.406  0.00  0.00    -0.027 C 
ATOM      8  C   UNL     1      -1.119  10.927   5.811  0.00  0.00    +0.028 C 
ATOM      9  C   UNL     1      -2.601  10.417   5.720  0.00  0.00    +0.012 C 
ATOM     10  C   UNL     1      -0.849  12.013   6.892  0.00  0.00    +0.122 C 
ATOM     11  C   UNL     1       0.895  11.771   4.509  0.00  0.00    +0.007 C 
ATOM     12  C   UNL     1       0.627  12.471   6.919  0.00  0.00    +0.029 C 
ATOM     13  C   UNL     1      -0.711  10.200   3.417  0.00  0.00    +0.009 C 
ATOM     14  C   UNL     1      -2.717   9.279   4.668  0.00  0.00    +0.076 C 
ATOM     15  C   UNL     1       1.157  12.862   5.539  0.00  0.00    +0.007 C 
ATOM     16  C   UNL     1      -2.125   9.646   3.307  0.00  0.00    +0.023 C 
ATOM     17  C   UNL     1      -1.390  12.593   3.846  0.00  0.00    +0.011 C 
ATOM     19  C   UNL     1      -3.167   9.925   7.063  0.00  0.00    +0.010 C 
ENDROOT
BRANCH  14   5
ATOM      4  O   UNL     1      -3.836   6.707   5.285  0.00  0.00    -0.270 OA
ATOM      5  N   UNL     1      -4.091   8.865   4.474  0.00  0.00    -0.308 N 
ATOM     22  C   UNL     1      -4.535   7.595   4.805  0.00  0.00    +0.244 C 
ATOM     33  H   UNL     1      -4.696   9.507   3.975  0.00  0.00    +0.149 HD
BRANCH  22  27
ATOM      1  F   UNL     1      -8.494   4.807   5.252  0.00  0.00    -0.205 F 
ATOM     27  C   UNL     1      -5.966   7.319   4.520  0.00  0.00    +0.039 A 
ATOM     28  C   UNL     1      -6.570   6.170   5.030  0.00  0.00    +0.051 A 
ATOM     29  C   UNL     1      -6.706   8.209   3.741  0.00  0.00    +0.013 A 
ATOM     30  C   UNL     1      -7.915   5.911   4.761  0.00  0.00    +0.124 A 
ATOM     31  C   UNL     1      -8.050   7.950   3.473  0.00  0.00    +0.004 A 
ATOM     32  C   UNL     1      -8.654   6.801   3.983  0.00  0.00    +0.038 A 
ENDBRANCH  22  27
ENDBRANCH  14   5
BRANCH  10   2
ATOM      2  O   UNL     1      -1.135  11.478   8.185  0.00  0.00    -0.391 OA
ATOM     34  H   UNL     1      -1.804  10.781   8.082  0.00  0.00    +0.210 HD
ENDBRANCH  10   2
BRANCH  12  18
ATOM     18  C   UNL     1       0.844  13.632   7.898  0.00  0.00    +0.078 C 
ATOM     20  C   UNL     1       1.197  14.911   7.162  0.00  0.00    +0.017 C 
BRANCH  18  21
ATOM      3  O   UNL     1       2.971  12.702   8.434  0.00  0.00    -0.275 OA
ATOM      6  N   UNL     1       1.732  13.577  10.177  0.00  0.00    -0.301 N 
ATOM     21  C   UNL     1       1.953  13.259   8.849  0.00  0.00    +0.219 C 
ATOM     23  C   UNL     1       2.703  13.278  11.220  0.00  0.00    +0.108 C 
ATOM     24  C   UNL     1       0.555  14.238  10.732  0.00  0.00    +0.108 C 
ATOM     25  C   UNL     1       2.222  14.070  12.426  0.00  0.00    +0.020 C 
ATOM     26  C   UNL     1       0.710  14.088  12.239  0.00  0.00    +0.020 C 
ENDBRANCH  18  21
ENDBRANCH  12  18
TORSDOF 5
ENDMDL
