MODEL 1
REMARK VINA RESULT:      -7.4      0.000      0.000
REMARK  Name = 26743151
REMARK  10 active torsions:
REMARK  status: ('A' for Active; 'I' for Inactive)
REMARK    1  A    between atoms: O_3  and  C_21
REMARK    2  A    between atoms: O_3  and  C_27
REMARK    3  A    between atoms: N_5  and  C_17
REMARK    4  A    between atoms: N_5  and  C_19
REMARK    5  A    between atoms: C_7  and  C_12
REMARK    6  A    between atoms: C_8  and  C_13
REMARK    7  A    between atoms: C_12  and  C_15
REMARK    8  A    between atoms: C_13  and  C_14
REMARK    9  A    between atoms: C_17  and  C_20
REMARK   10  A    between atoms: C_18  and  C_21
REMARK                            x       y       z     vdW  Elec       q    Type
REMARK                         _______ _______ _______ _____ _____    ______ ____
ROOT
ATOM      4  N   UNL     1      11.990   7.245  17.436  0.00  0.00    -0.316 NA
ATOM      7  C   UNL     1      13.365   9.031  19.341  0.00  0.00    +0.004 C 
ATOM      8  C   UNL     1      13.776   7.553  19.133  0.00  0.00    +0.012 C 
ATOM      9  C   UNL     1      12.656   9.536  18.074  0.00  0.00    +0.019 C 
ATOM     10  C   UNL     1      12.593   6.697  18.652  0.00  0.00    +0.085 C 
ATOM     11  C   UNL     1      11.520   8.614  17.633  0.00  0.00    +0.081 C 
ATOM     33  H   UNL     1      11.207   6.657  17.153  0.00  0.00    +0.122 HD
ENDROOT
BRANCH   7  12
ATOM     12  C   UNL     1      12.498   9.267  20.583  0.00  0.00    +0.100 C 
BRANCH  12  15
ATOM      1  O   UNL     1      13.797  11.255  20.914  0.00  0.00    -0.276 OA
ATOM      5  N   UNL     1      12.046  10.894  22.392  0.00  0.00    -0.300 N 
ATOM     15  C   UNL     1      12.851  10.561  21.298  0.00  0.00    +0.216 C 
ATOM     19  C   UNL     1      10.933  10.059  22.827  0.00  0.00    +0.132 C 
BRANCH   5  17
ATOM     17  C   UNL     1      12.259  12.105  23.181  0.00  0.00    +0.142 C 
BRANCH  17  20
ATOM     20  C   UNL     1      11.176  13.119  22.958  0.00  0.00    -0.030 A 
ATOM     22  C   UNL     1      10.428  13.589  24.038  0.00  0.00    +0.005 A 
ATOM     23  C   UNL     1      10.918  13.593  21.673  0.00  0.00    +0.005 A 
ATOM     24  C   UNL     1       9.421  14.532  23.831  0.00  0.00    +0.000 A 
ATOM     25  C   UNL     1       9.912  14.537  21.466  0.00  0.00    +0.000 A 
ATOM     26  C   UNL     1       9.164  15.006  22.545  0.00  0.00    +0.000 A 
ENDBRANCH  17  20
ENDBRANCH   5  17
ENDBRANCH  12  15
ENDBRANCH   7  12
BRANCH   8  13
ATOM     13  C   UNL     1      14.419   6.930  20.373  0.00  0.00    +0.064 C 
BRANCH  13  14
ATOM      2  O   UNL     1      17.595   5.838  19.075  0.00  0.00    -0.356 OA
ATOM      6  N   UNL     1      16.220   6.013  18.975  0.00  0.00    -0.083 NA
ATOM     14  C   UNL     1      15.860   6.587  20.126  0.00  0.00    +0.084 A 
ATOM     16  C   UNL     1      16.955   6.795  20.984  0.00  0.00    +0.074 A 
ATOM     18  C   UNL     1      18.021   6.308  20.275  0.00  0.00    +0.175 A 
BRANCH  18  21
ATOM     21  C   UNL     1      19.459   6.200  20.548  0.00  0.00    +0.306 C 
BRANCH  21   3
ATOM      3  O   UNL     1      19.938   4.904  20.179  0.00  0.00    -0.484 OA
BRANCH   3  27
ATOM     27  C   UNL     1      21.199   4.579  20.595  0.00  0.00    +0.121 A 
ATOM     28  C   UNL     1      22.249   5.477  20.405  0.00  0.00    +0.045 A 
ATOM     29  C   UNL     1      21.436   3.350  21.210  0.00  0.00    +0.045 A 
ATOM     30  C   UNL     1      23.536   5.147  20.829  0.00  0.00    +0.004 A 
ATOM     31  C   UNL     1      22.722   3.019  21.635  0.00  0.00    +0.004 A 
ATOM     32  C   UNL     1      23.772   3.918  21.444  0.00  0.00    +0.000 A 
ENDBRANCH   3  27
ENDBRANCH  21   3
ENDBRANCH  18  21
ENDBRANCH  13  14
ENDBRANCH   8  13
TORSDOF 9
ENDMDL
MODEL 2
REMARK VINA RESULT:      -7.2      2.486      4.661
REMARK  Name = 26743151
REMARK  10 active torsions:
REMARK  status: ('A' for Active; 'I' for Inactive)
REMARK    1  A    between atoms: O_3  and  C_21
REMARK    2  A    between atoms: O_3  and  C_27
REMARK    3  A    between atoms: N_5  and  C_17
REMARK    4  A    between atoms: N_5  and  C_19
REMARK    5  A    between atoms: C_7  and  C_12
REMARK    6  A    between atoms: C_8  and  C_13
REMARK    7  A    between atoms: C_12  and  C_15
REMARK    8  A    between atoms: C_13  and  C_14
REMARK    9  A    between atoms: C_17  and  C_20
REMARK   10  A    between atoms: C_18  and  C_21
REMARK                            x       y       z     vdW  Elec       q    Type
REMARK                         _______ _______ _______ _____ _____    ______ ____
ROOT
ATOM      4  N   UNL     1      16.900   9.062  22.166  0.00  0.00    -0.316 NA
ATOM      7  C   UNL     1      15.955   6.614  20.815  0.00  0.00    +0.004 C 
ATOM      8  C   UNL     1      17.456   6.929  21.023  0.00  0.00    +0.012 C 
ATOM      9  C   UNL     1      15.135   7.358  21.882  0.00  0.00    +0.019 C 
ATOM     10  C   UNL     1      17.712   8.443  21.117  0.00  0.00    +0.085 C 
ATOM     11  C   UNL     1      15.471   8.847  21.945  0.00  0.00    +0.081 C 
ATOM     33  H   UNL     1      17.090  10.064  22.192  0.00  0.00    +0.122 HD
ENDROOT
BRANCH   7  12
ATOM     12  C   UNL     1      15.440   6.937  19.407  0.00  0.00    +0.100 C 
BRANCH  12  15
ATOM      1  O   UNL     1      13.114   6.454  19.721  0.00  0.00    -0.276 OA
ATOM      5  N   UNL     1      13.648   8.595  19.008  0.00  0.00    -0.300 N 
ATOM     15  C   UNL     1      13.962   7.289  19.399  0.00  0.00    +0.216 C 
ATOM     19  C   UNL     1      14.669   9.566  18.631  0.00  0.00    +0.132 C 
BRANCH   5  17
ATOM     17  C   UNL     1      12.274   9.086  18.948  0.00  0.00    +0.142 C 
BRANCH  17  20
ATOM     20  C   UNL     1      11.764   9.498  20.297  0.00  0.00    -0.030 A 
ATOM     22  C   UNL     1      12.083  10.756  20.809  0.00  0.00    +0.005 A 
ATOM     23  C   UNL     1      10.970   8.624  21.040  0.00  0.00    +0.005 A 
ATOM     24  C   UNL     1      11.608  11.139  22.064  0.00  0.00    +0.000 A 
ATOM     25  C   UNL     1      10.496   9.007  22.294  0.00  0.00    +0.000 A 
ATOM     26  C   UNL     1      10.815  10.265  22.806  0.00  0.00    +0.000 A 
ENDBRANCH  17  20
ENDBRANCH   5  17
ENDBRANCH  12  15
ENDBRANCH   7  12
BRANCH   8  13
ATOM     13  C   UNL     1      18.355   6.299  19.958  0.00  0.00    +0.064 C 
BRANCH  13  14
ATOM      2  O   UNL     1      21.147   4.212  20.855  0.00  0.00    -0.356 OA
ATOM      6  N   UNL     1      20.047   4.522  20.064  0.00  0.00    -0.083 NA
ATOM     14  C   UNL     1      19.565   5.658  20.573  0.00  0.00    +0.084 A 
ATOM     16  C   UNL     1      20.311   6.108  21.677  0.00  0.00    +0.074 A 
ATOM     18  C   UNL     1      21.294   5.164  21.811  0.00  0.00    +0.175 A 
BRANCH  18  21
ATOM     21  C   UNL     1      22.417   4.990  22.741  0.00  0.00    +0.306 C 
BRANCH  21   3
ATOM      3  O   UNL     1      22.094   4.011  23.732  0.00  0.00    -0.484 OA
BRANCH   3  27
ATOM     27  C   UNL     1      22.837   2.864  23.720  0.00  0.00    +0.121 A 
ATOM     28  C   UNL     1      22.556   1.842  24.627  0.00  0.00    +0.045 A 
ATOM     29  C   UNL     1      23.876   2.715  22.802  0.00  0.00    +0.045 A 
ATOM     30  C   UNL     1      23.314   0.671  24.616  0.00  0.00    +0.004 A 
ATOM     31  C   UNL     1      24.634   1.545  22.790  0.00  0.00    +0.004 A 
ATOM     32  C   UNL     1      24.352   0.523  23.697  0.00  0.00    +0.000 A 
ENDBRANCH   3  27
ENDBRANCH  21   3
ENDBRANCH  18  21
ENDBRANCH  13  14
ENDBRANCH   8  13
TORSDOF 9
ENDMDL
MODEL 3
REMARK VINA RESULT:      -7.1      3.323     11.735
REMARK  Name = 26743151
REMARK  10 active torsions:
REMARK  status: ('A' for Active; 'I' for Inactive)
REMARK    1  A    between atoms: O_3  and  C_21
REMARK    2  A    between atoms: O_3  and  C_27
REMARK    3  A    between atoms: N_5  and  C_17
REMARK    4  A    between atoms: N_5  and  C_19
REMARK    5  A    between atoms: C_7  and  C_12
REMARK    6  A    between atoms: C_8  and  C_13
REMARK    7  A    between atoms: C_12  and  C_15
REMARK    8  A    between atoms: C_13  and  C_14
REMARK    9  A    between atoms: C_17  and  C_20
REMARK   10  A    between atoms: C_18  and  C_21
REMARK                            x       y       z     vdW  Elec       q    Type
REMARK                         _______ _______ _______ _____ _____    ______ ____
ROOT
ATOM      4  N   UNL     1      19.859   9.624  21.828  0.00  0.00    -0.316 NA
ATOM      7  C   UNL     1      20.500   6.914  20.851  0.00  0.00    +0.004 C 
ATOM      8  C   UNL     1      19.058   7.475  20.876  0.00  0.00    +0.012 C 
ATOM      9  C   UNL     1      21.493   8.087  20.794  0.00  0.00    +0.019 C 
ATOM     10  C   UNL     1      18.883   8.543  21.969  0.00  0.00    +0.085 C 
ATOM     11  C   UNL     1      21.232   9.126  21.883  0.00  0.00    +0.081 C 
ATOM     33  H   UNL     1      19.718  10.306  22.573  0.00  0.00    +0.122 HD
ENDROOT
BRANCH   7  12
ATOM     12  C   UNL     1      20.825   5.979  22.022  0.00  0.00    +0.100 C 
BRANCH  12  15
ATOM      1  O   UNL     1      20.911   4.092  20.546  0.00  0.00    -0.276 OA
ATOM      5  N   UNL     1      22.376   4.079  22.344  0.00  0.00    -0.300 N 
ATOM     15  C   UNL     1      21.362   4.635  21.558  0.00  0.00    +0.216 C 
ATOM     19  C   UNL     1      22.894   4.739  23.536  0.00  0.00    +0.132 C 
BRANCH   5  17
ATOM     17  C   UNL     1      22.994   2.793  22.030  0.00  0.00    +0.142 C 
BRANCH  17  20
ATOM     20  C   UNL     1      24.316   2.958  21.339  0.00  0.00    -0.030 A 
ATOM     22  C   UNL     1      25.501   2.731  22.039  0.00  0.00    +0.005 A 
ATOM     23  C   UNL     1      24.360   3.336  19.998  0.00  0.00    +0.005 A 
ATOM     24  C   UNL     1      26.730   2.884  21.398  0.00  0.00    +0.000 A 
ATOM     25  C   UNL     1      25.589   3.489  19.356  0.00  0.00    +0.000 A 
ATOM     26  C   UNL     1      26.774   3.262  20.056  0.00  0.00    +0.000 A 
ENDBRANCH  17  20
ENDBRANCH   5  17
ENDBRANCH  12  15
ENDBRANCH   7  12
BRANCH   8  13
ATOM     13  C   UNL     1      17.993   6.387  21.015  0.00  0.00    +0.064 C 
BRANCH  13  14
ATOM      2  O   UNL     1      15.709   6.170  18.240  0.00  0.00    -0.356 OA
ATOM      6  N   UNL     1      16.815   5.733  18.960  0.00  0.00    -0.083 NA
ATOM     14  C   UNL     1      16.897   6.563  20.004  0.00  0.00    +0.084 A 
ATOM     16  C   UNL     1      15.881   7.535  19.994  0.00  0.00    +0.074 A 
ATOM     18  C   UNL     1      15.161   7.242  18.866  0.00  0.00    +0.175 A 
BRANCH  18  21
ATOM     21  C   UNL     1      13.976   7.835  18.234  0.00  0.00    +0.306 C 
BRANCH  21   3
ATOM      3  O   UNL     1      12.805   7.091  18.581  0.00  0.00    -0.484 OA
BRANCH   3  27
ATOM     27  C   UNL     1      12.148   7.481  19.715  0.00  0.00    +0.121 A 
ATOM     28  C   UNL     1      11.857   6.547  20.709  0.00  0.00    +0.045 A 
ATOM     29  C   UNL     1      11.770   8.814  19.878  0.00  0.00    +0.045 A 
ATOM     30  C   UNL     1      11.187   6.945  21.866  0.00  0.00    +0.004 A 
ATOM     31  C   UNL     1      11.100   9.212  21.034  0.00  0.00    +0.004 A 
ATOM     32  C   UNL     1      10.809   8.277  22.029  0.00  0.00    +0.000 A 
ENDBRANCH   3  27
ENDBRANCH  21   3
ENDBRANCH  18  21
ENDBRANCH  13  14
ENDBRANCH   8  13
TORSDOF 9
ENDMDL
MODEL 4
REMARK VINA RESULT:      -6.9      3.551      5.263
REMARK  Name = 26743151
REMARK  10 active torsions:
REMARK  status: ('A' for Active; 'I' for Inactive)
REMARK    1  A    between atoms: O_3  and  C_21
REMARK    2  A    between atoms: O_3  and  C_27
REMARK    3  A    between atoms: N_5  and  C_17
REMARK    4  A    between atoms: N_5  and  C_19
REMARK    5  A    between atoms: C_7  and  C_12
REMARK    6  A    between atoms: C_8  and  C_13
REMARK    7  A    between atoms: C_12  and  C_15
REMARK    8  A    between atoms: C_13  and  C_14
REMARK    9  A    between atoms: C_17  and  C_20
REMARK   10  A    between atoms: C_18  and  C_21
REMARK                            x       y       z     vdW  Elec       q    Type
REMARK                         _______ _______ _______ _____ _____    ______ ____
ROOT
ATOM      4  N   UNL     1      11.988   7.267  17.595  0.00  0.00    -0.316 NA
ATOM      7  C   UNL     1      14.405   8.776  18.362  0.00  0.00    +0.004 C 
ATOM      8  C   UNL     1      14.143   7.323  18.826  0.00  0.00    +0.012 C 
ATOM      9  C   UNL     1      13.629   9.033  17.060  0.00  0.00    +0.019 C 
ATOM     10  C   UNL     1      12.639   7.006  18.879  0.00  0.00    +0.085 C 
ATOM     11  C   UNL     1      12.153   8.657  17.175  0.00  0.00    +0.081 C 
ATOM     33  H   UNL     1      10.994   7.054  17.672  0.00  0.00    +0.122 HD
ENDROOT
BRANCH   7  12
ATOM     12  C   UNL     1      14.069   9.837  19.416  0.00  0.00    +0.100 C 
BRANCH  12  15
ATOM      1  O   UNL     1      16.248  10.251  20.326  0.00  0.00    -0.276 OA
ATOM      5  N   UNL     1      15.155  12.060  19.370  0.00  0.00    -0.300 N 
ATOM     15  C   UNL     1      15.261  10.718  19.752  0.00  0.00    +0.216 C 
ATOM     19  C   UNL     1      13.979  12.590  18.691  0.00  0.00    +0.132 C 
BRANCH   5  17
ATOM     17  C   UNL     1      16.216  13.032  19.623  0.00  0.00    +0.142 C 
BRANCH  17  20
ATOM     20  C   UNL     1      17.340  12.907  18.636  0.00  0.00    -0.030 A 
ATOM     22  C   UNL     1      17.082  13.009  17.269  0.00  0.00    +0.005 A 
ATOM     23  C   UNL     1      18.642  12.690  19.086  0.00  0.00    +0.005 A 
ATOM     24  C   UNL     1      18.127  12.893  16.352  0.00  0.00    +0.000 A 
ATOM     25  C   UNL     1      19.687  12.574  18.169  0.00  0.00    +0.000 A 
ATOM     26  C   UNL     1      19.429  12.676  16.802  0.00  0.00    +0.000 A 
ENDBRANCH  17  20
ENDBRANCH   5  17
ENDBRANCH  12  15
ENDBRANCH   7  12
BRANCH   8  13
ATOM     13  C   UNL     1      14.808   6.992  20.163  0.00  0.00    +0.064 C 
BRANCH  13  14
ATOM      2  O   UNL     1      17.881   5.514  19.007  0.00  0.00    -0.356 OA
ATOM      6  N   UNL     1      16.528   5.803  18.872  0.00  0.00    -0.083 NA
ATOM     14  C   UNL     1      16.214   6.501  19.967  0.00  0.00    +0.084 A 
ATOM     16  C   UNL     1      17.317   6.680  20.821  0.00  0.00    +0.074 A 
ATOM     18  C   UNL     1      18.339   6.042  20.170  0.00  0.00    +0.175 A 
BRANCH  18  21
ATOM     21  C   UNL     1      19.759   5.827  20.472  0.00  0.00    +0.306 C 
BRANCH  21   3
ATOM      3  O   UNL     1      20.193   6.734  21.489  0.00  0.00    -0.484 OA
BRANCH   3  27
ATOM     27  C   UNL     1      20.791   7.886  21.063  0.00  0.00    +0.121 A 
ATOM     28  C   UNL     1      21.968   7.826  20.317  0.00  0.00    +0.045 A 
ATOM     29  C   UNL     1      20.226   9.123  21.374  0.00  0.00    +0.045 A 
ATOM     30  C   UNL     1      22.580   9.002  19.881  0.00  0.00    +0.004 A 
ATOM     31  C   UNL     1      20.836  10.298  20.939  0.00  0.00    +0.004 A 
ATOM     32  C   UNL     1      22.014  10.237  20.192  0.00  0.00    +0.000 A 
ENDBRANCH   3  27
ENDBRANCH  21   3
ENDBRANCH  18  21
ENDBRANCH  13  14
ENDBRANCH   8  13
TORSDOF 9
ENDMDL
MODEL 5
REMARK VINA RESULT:      -6.9      1.985      3.198
REMARK  Name = 26743151
REMARK  10 active torsions:
REMARK  status: ('A' for Active; 'I' for Inactive)
REMARK    1  A    between atoms: O_3  and  C_21
REMARK    2  A    between atoms: O_3  and  C_27
REMARK    3  A    between atoms: N_5  and  C_17
REMARK    4  A    between atoms: N_5  and  C_19
REMARK    5  A    between atoms: C_7  and  C_12
REMARK    6  A    between atoms: C_8  and  C_13
REMARK    7  A    between atoms: C_12  and  C_15
REMARK    8  A    between atoms: C_13  and  C_14
REMARK    9  A    between atoms: C_17  and  C_20
REMARK   10  A    between atoms: C_18  and  C_21
REMARK                            x       y       z     vdW  Elec       q    Type
REMARK                         _______ _______ _______ _____ _____    ______ ____
ROOT
ATOM      4  N   UNL     1      15.811   6.155  19.372  0.00  0.00    -0.316 NA
ATOM      7  C   UNL     1      15.957   8.949  20.311  0.00  0.00    +0.004 C 
ATOM      8  C   UNL     1      17.124   7.947  20.482  0.00  0.00    +0.012 C 
ATOM      9  C   UNL     1      15.082   8.502  19.128  0.00  0.00    +0.019 C 
ATOM     10  C   UNL     1      16.621   6.495  20.543  0.00  0.00    +0.085 C 
ATOM     11  C   UNL     1      14.656   7.039  19.236  0.00  0.00    +0.081 C 
ATOM     33  H   UNL     1      15.490   5.191  19.452  0.00  0.00    +0.122 HD
ENDROOT
BRANCH   7  12
ATOM     12  C   UNL     1      15.110   9.141  21.575  0.00  0.00    +0.100 C 
BRANCH  12  15
ATOM      1  O   UNL     1      14.149  11.267  21.027  0.00  0.00    -0.276 OA
ATOM      5  N   UNL     1      12.671   9.556  21.543  0.00  0.00    -0.300 N 
ATOM     15  C   UNL     1      13.948  10.095  21.353  0.00  0.00    +0.216 C 
ATOM     19  C   UNL     1      12.457   8.167  21.929  0.00  0.00    +0.132 C 
BRANCH   5  17
ATOM     17  C   UNL     1      11.454  10.346  21.370  0.00  0.00    +0.142 C 
BRANCH  17  20
ATOM     20  C   UNL     1      11.219  11.279  22.521  0.00  0.00    -0.030 A 
ATOM     22  C   UNL     1      11.045  12.643  22.288  0.00  0.00    +0.005 A 
ATOM     23  C   UNL     1      11.175  10.783  23.823  0.00  0.00    +0.005 A 
ATOM     24  C   UNL     1      10.827  13.511  23.358  0.00  0.00    +0.000 A 
ATOM     25  C   UNL     1      10.957  11.650  24.893  0.00  0.00    +0.000 A 
ATOM     26  C   UNL     1      10.782  13.014  24.661  0.00  0.00    +0.000 A 
ENDBRANCH  17  20
ENDBRANCH   5  17
ENDBRANCH  12  15
ENDBRANCH   7  12
BRANCH   8  13
ATOM     13  C   UNL     1      18.010   8.259  21.689  0.00  0.00    +0.064 C 
BRANCH  13  14
ATOM      2  O   UNL     1      20.953   6.349  20.881  0.00  0.00    -0.356 OA
ATOM      6  N   UNL     1      19.855   7.125  20.529  0.00  0.00    -0.083 NA
ATOM     14  C   UNL     1      19.253   7.417  21.685  0.00  0.00    +0.084 A 
ATOM     16  C   UNL     1      19.920   6.858  22.790  0.00  0.00    +0.074 A 
ATOM     18  C   UNL     1      20.981   6.198  22.229  0.00  0.00    +0.175 A 
BRANCH  18  21
ATOM     21  C   UNL     1      22.084   5.398  22.776  0.00  0.00    +0.306 C 
BRANCH  21   3
ATOM      3  O   UNL     1      21.676   4.038  22.943  0.00  0.00    -0.484 OA
BRANCH   3  27
ATOM     27  C   UNL     1      22.576   3.081  22.566  0.00  0.00    +0.121 A 
ATOM     28  C   UNL     1      22.922   2.941  21.222  0.00  0.00    +0.045 A 
ATOM     29  C   UNL     1      23.148   2.245  23.524  0.00  0.00    +0.045 A 
ATOM     30  C   UNL     1      23.841   1.964  20.836  0.00  0.00    +0.004 A 
ATOM     31  C   UNL     1      24.067   1.269  23.139  0.00  0.00    +0.004 A 
ATOM     32  C   UNL     1      24.413   1.129  21.794  0.00  0.00    +0.000 A 
ENDBRANCH   3  27
ENDBRANCH  21   3
ENDBRANCH  18  21
ENDBRANCH  13  14
ENDBRANCH   8  13
TORSDOF 9
ENDMDL
MODEL 6
REMARK VINA RESULT:      -6.6      3.354      4.964
REMARK  Name = 26743151
REMARK  10 active torsions:
REMARK  status: ('A' for Active; 'I' for Inactive)
REMARK    1  A    between atoms: O_3  and  C_21
REMARK    2  A    between atoms: O_3  and  C_27
REMARK    3  A    between atoms: N_5  and  C_17
REMARK    4  A    between atoms: N_5  and  C_19
REMARK    5  A    between atoms: C_7  and  C_12
REMARK    6  A    between atoms: C_8  and  C_13
REMARK    7  A    between atoms: C_12  and  C_15
REMARK    8  A    between atoms: C_13  and  C_14
REMARK    9  A    between atoms: C_17  and  C_20
REMARK   10  A    between atoms: C_18  and  C_21
REMARK                            x       y       z     vdW  Elec       q    Type
REMARK                         _______ _______ _______ _____ _____    ______ ____
ROOT
ATOM      4  N   UNL     1      12.092   8.062  17.004  0.00  0.00    -0.316 NA
ATOM      7  C   UNL     1      14.636   8.950  18.209  0.00  0.00    +0.004 C 
ATOM      8  C   UNL     1      14.073   7.521  18.399  0.00  0.00    +0.012 C 
ATOM      9  C   UNL     1      14.067   9.543  16.909  0.00  0.00    +0.019 C 
ATOM     10  C   UNL     1      12.541   7.492  18.275  0.00  0.00    +0.085 C 
ATOM     11  C   UNL     1      12.544   9.442  16.838  0.00  0.00    +0.081 C 
ATOM     33  H   UNL     1      11.074   8.034  16.962  0.00  0.00    +0.122 HD
ENDROOT
BRANCH   7  12
ATOM     12  C   UNL     1      14.375   9.886  19.395  0.00  0.00    +0.100 C 
BRANCH  12  15
ATOM      1  O   UNL     1      16.580  10.280  20.250  0.00  0.00    -0.276 OA
ATOM      5  N   UNL     1      15.457  12.110  19.374  0.00  0.00    -0.300 N 
ATOM     15  C   UNL     1      15.576  10.760  19.717  0.00  0.00    +0.216 C 
ATOM     19  C   UNL     1      14.260  12.656  18.745  0.00  0.00    +0.132 C 
BRANCH   5  17
ATOM     17  C   UNL     1      16.524  13.078  19.620  0.00  0.00    +0.142 C 
BRANCH  17  20
ATOM     20  C   UNL     1      17.666  12.912  18.661  0.00  0.00    -0.030 A 
ATOM     22  C   UNL     1      17.448  13.034  17.288  0.00  0.00    +0.005 A 
ATOM     23  C   UNL     1      18.946  12.636  19.141  0.00  0.00    +0.005 A 
ATOM     24  C   UNL     1      18.509  12.880  16.397  0.00  0.00    +0.000 A 
ATOM     25  C   UNL     1      20.007  12.482  18.250  0.00  0.00    +0.000 A 
ATOM     26  C   UNL     1      19.789  12.604  16.877  0.00  0.00    +0.000 A 
ENDBRANCH  17  20
ENDBRANCH   5  17
ENDBRANCH  12  15
ENDBRANCH   7  12
BRANCH   8  13
ATOM     13  C   UNL     1      14.517   6.872  19.711  0.00  0.00    +0.064 C 
BRANCH  13  14
ATOM      2  O   UNL     1      17.819   5.651  18.958  0.00  0.00    -0.356 OA
ATOM      6  N   UNL     1      16.463   5.782  18.682  0.00  0.00    -0.083 NA
ATOM     14  C   UNL     1      15.977   6.522  19.681  0.00  0.00    +0.084 A 
ATOM     16  C   UNL     1      16.969   6.884  20.610  0.00  0.00    +0.074 A 
ATOM     18  C   UNL     1      18.108   6.311  20.108  0.00  0.00    +0.175 A 
BRANCH  18  21
ATOM     21  C   UNL     1      19.507   6.275  20.551  0.00  0.00    +0.306 C 
BRANCH  21   3
ATOM      3  O   UNL     1      20.044   4.959  20.392  0.00  0.00    -0.484 OA
BRANCH   3  27
ATOM     27  C   UNL     1      21.038   4.598  21.258  0.00  0.00    +0.121 A 
ATOM     28  C   UNL     1      21.666   3.360  21.121  0.00  0.00    +0.045 A 
ATOM     29  C   UNL     1      21.425   5.468  22.277  0.00  0.00    +0.045 A 
ATOM     30  C   UNL     1      22.682   2.991  22.004  0.00  0.00    +0.004 A 
ATOM     31  C   UNL     1      22.440   5.099  23.160  0.00  0.00    +0.004 A 
ATOM     32  C   UNL     1      23.068   3.861  23.023  0.00  0.00    +0.000 A 
ENDBRANCH   3  27
ENDBRANCH  21   3
ENDBRANCH  18  21
ENDBRANCH  13  14
ENDBRANCH   8  13
TORSDOF 9
ENDMDL
MODEL 7
REMARK VINA RESULT:      -6.6     27.697     31.213
REMARK  Name = 26743151
REMARK  10 active torsions:
REMARK  status: ('A' for Active; 'I' for Inactive)
REMARK    1  A    between atoms: O_3  and  C_21
REMARK    2  A    between atoms: O_3  and  C_27
REMARK    3  A    between atoms: N_5  and  C_17
REMARK    4  A    between atoms: N_5  and  C_19
REMARK    5  A    between atoms: C_7  and  C_12
REMARK    6  A    between atoms: C_8  and  C_13
REMARK    7  A    between atoms: C_12  and  C_15
REMARK    8  A    between atoms: C_13  and  C_14
REMARK    9  A    between atoms: C_17  and  C_20
REMARK   10  A    between atoms: C_18  and  C_21
REMARK                            x       y       z     vdW  Elec       q    Type
REMARK                         _______ _______ _______ _____ _____    ______ ____
ROOT
ATOM      4  N   UNL     1      -8.538 -11.398  19.670  0.00  0.00    -0.316 NA
ATOM      7  C   UNL     1      -6.477 -10.305  17.862  0.00  0.00    +0.004 C 
ATOM      8  C   UNL     1      -7.977  -9.942  17.739  0.00  0.00    +0.012 C 
ATOM      9  C   UNL     1      -6.185 -10.741  19.307  0.00  0.00    +0.019 C 
ATOM     10  C   UNL     1      -8.879 -11.060  18.288  0.00  0.00    +0.085 C 
ATOM     11  C   UNL     1      -7.145 -11.824  19.797  0.00  0.00    +0.081 C 
ATOM     33  H   UNL     1      -9.150 -12.146  19.995  0.00  0.00    +0.122 HD
ENDROOT
BRANCH   7  12
ATOM     12  C   UNL     1      -6.011 -11.372  16.865  0.00  0.00    +0.100 C 
BRANCH  12  15
ATOM      1  O   UNL     1      -4.125  -9.947  16.468  0.00  0.00    -0.276 OA
ATOM      5  N   UNL     1      -4.144 -11.985  15.362  0.00  0.00    -0.300 N 
ATOM     15  C   UNL     1      -4.678 -11.022  16.224  0.00  0.00    +0.216 C 
ATOM     19  C   UNL     1      -4.815 -13.250  15.090  0.00  0.00    +0.132 C 
BRANCH   5  17
ATOM     17  C   UNL     1      -2.871 -11.797  14.670  0.00  0.00    +0.142 C 
BRANCH  17  20
ATOM     20  C   UNL     1      -3.043 -11.093  13.357  0.00  0.00    -0.030 A 
ATOM     22  C   UNL     1      -1.929 -10.600  12.678  0.00  0.00    +0.005 A 
ATOM     23  C   UNL     1      -4.318 -10.931  12.814  0.00  0.00    +0.005 A 
ATOM     24  C   UNL     1      -2.089  -9.946  11.457  0.00  0.00    +0.000 A 
ATOM     25  C   UNL     1      -4.478 -10.277  11.593  0.00  0.00    +0.000 A 
ATOM     26  C   UNL     1      -3.363  -9.785  10.914  0.00  0.00    +0.000 A 
ENDBRANCH  17  20
ENDBRANCH   5  17
ENDBRANCH  12  15
ENDBRANCH   7  12
BRANCH   8  13
ATOM     13  C   UNL     1      -8.389  -9.571  16.314  0.00  0.00    +0.064 C 
BRANCH  13  14
ATOM      2  O   UNL     1     -10.721  -6.940  17.092  0.00  0.00    -0.356 OA
ATOM      6  N   UNL     1      -9.735  -7.854  17.445  0.00  0.00    -0.083 NA
ATOM     14  C   UNL     1      -9.436  -8.494  16.311  0.00  0.00    +0.084 A 
ATOM     16  C   UNL     1     -10.195  -8.033  15.221  0.00  0.00    +0.074 A 
ATOM     18  C   UNL     1     -10.986  -7.056  15.766  0.00  0.00    +0.175 A 
BRANCH  18  21
ATOM     21  C   UNL     1     -12.012  -6.158  15.222  0.00  0.00    +0.306 C 
BRANCH  21   3
ATOM      3  O   UNL     1     -12.447  -6.619  13.940  0.00  0.00    -0.484 OA
BRANCH   3  27
ATOM     27  C   UNL     1     -12.382  -5.719  12.914  0.00  0.00    +0.121 A 
ATOM     28  C   UNL     1     -12.355  -4.351  13.188  0.00  0.00    +0.045 A 
ATOM     29  C   UNL     1     -12.344  -6.166  11.594  0.00  0.00    +0.045 A 
ATOM     30  C   UNL     1     -12.290  -3.431  12.141  0.00  0.00    +0.004 A 
ATOM     31  C   UNL     1     -12.279  -5.247  10.548  0.00  0.00    +0.004 A 
ATOM     32  C   UNL     1     -12.251  -3.879  10.822  0.00  0.00    +0.000 A 
ENDBRANCH   3  27
ENDBRANCH  21   3
ENDBRANCH  18  21
ENDBRANCH  13  14
ENDBRANCH   8  13
TORSDOF 9
ENDMDL
MODEL 8
REMARK VINA RESULT:      -6.5      3.404     12.112
REMARK  Name = 26743151
REMARK  10 active torsions:
REMARK  status: ('A' for Active; 'I' for Inactive)
REMARK    1  A    between atoms: O_3  and  C_21
REMARK    2  A    between atoms: O_3  and  C_27
REMARK    3  A    between atoms: N_5  and  C_17
REMARK    4  A    between atoms: N_5  and  C_19
REMARK    5  A    between atoms: C_7  and  C_12
REMARK    6  A    between atoms: C_8  and  C_13
REMARK    7  A    between atoms: C_12  and  C_15
REMARK    8  A    between atoms: C_13  and  C_14
REMARK    9  A    between atoms: C_17  and  C_20
REMARK   10  A    between atoms: C_18  and  C_21
REMARK                            x       y       z     vdW  Elec       q    Type
REMARK                         _______ _______ _______ _____ _____    ______ ____
ROOT
ATOM      4  N   UNL     1      19.640   9.255  22.941  0.00  0.00    -0.316 NA
ATOM      7  C   UNL     1      21.411   7.667  21.194  0.00  0.00    +0.004 C 
ATOM      8  C   UNL     1      19.871   7.514  21.186  0.00  0.00    +0.012 C 
ATOM      9  C   UNL     1      21.771   9.071  21.706  0.00  0.00    +0.019 C 
ATOM     10  C   UNL     1      19.254   7.901  22.541  0.00  0.00    +0.085 C 
ATOM     11  C   UNL     1      21.091   9.401  23.034  0.00  0.00    +0.081 C 
ATOM     33  H   UNL     1      19.220   9.472  23.844  0.00  0.00    +0.122 HD
ENDROOT
BRANCH   7  12
ATOM     12  C   UNL     1      22.140   6.587  22.001  0.00  0.00    +0.100 C 
BRANCH  12  15
ATOM      1  O   UNL     1      23.172   5.852  19.967  0.00  0.00    -0.276 OA
ATOM      5  N   UNL     1      24.284   5.354  21.940  0.00  0.00    -0.300 N 
ATOM     15  C   UNL     1      23.234   5.904  21.197  0.00  0.00    +0.216 C 
ATOM     19  C   UNL     1      24.336   5.428  23.395  0.00  0.00    +0.132 C 
BRANCH   5  17
ATOM     17  C   UNL     1      25.410   4.664  21.313  0.00  0.00    +0.142 C 
BRANCH  17  20
ATOM     20  C   UNL     1      25.354   3.181  21.534  0.00  0.00    -0.030 A 
ATOM     22  C   UNL     1      24.231   2.458  21.131  0.00  0.00    +0.005 A 
ATOM     23  C   UNL     1      26.425   2.526  22.141  0.00  0.00    +0.005 A 
ATOM     24  C   UNL     1      24.180   1.079  21.336  0.00  0.00    +0.000 A 
ATOM     25  C   UNL     1      26.373   1.147  22.346  0.00  0.00    +0.000 A 
ATOM     26  C   UNL     1      25.251   0.424  21.943  0.00  0.00    +0.000 A 
ENDBRANCH  17  20
ENDBRANCH   5  17
ENDBRANCH  12  15
ENDBRANCH   7  12
BRANCH   8  13
ATOM     13  C   UNL     1      19.409   6.117  20.768  0.00  0.00    +0.064 C 
BRANCH  13  14
ATOM      2  O   UNL     1      16.478   5.887  18.689  0.00  0.00    -0.356 OA
ATOM      6  N   UNL     1      17.838   5.716  18.922  0.00  0.00    -0.083 NA
ATOM     14  C   UNL     1      18.033   6.154  20.169  0.00  0.00    +0.084 A 
ATOM     16  C   UNL     1      16.844   6.610  20.766  0.00  0.00    +0.074 A 
ATOM     18  C   UNL     1      15.898   6.420  19.794  0.00  0.00    +0.175 A 
BRANCH  18  21
ATOM     21  C   UNL     1      14.453   6.669  19.720  0.00  0.00    +0.306 C 
BRANCH  21   3
ATOM      3  O   UNL     1      14.121   7.876  20.411  0.00  0.00    -0.484 OA
BRANCH   3  27
ATOM     27  C   UNL     1      12.917   7.897  21.057  0.00  0.00    +0.121 A 
ATOM     28  C   UNL     1      12.115   6.755  21.075  0.00  0.00    +0.045 A 
ATOM     29  C   UNL     1      12.489   9.059  21.699  0.00  0.00    +0.045 A 
ATOM     30  C   UNL     1      10.886   6.775  21.734  0.00  0.00    +0.004 A 
ATOM     31  C   UNL     1      11.261   9.080  22.358  0.00  0.00    +0.004 A 
ATOM     32  C   UNL     1      10.459   7.937  22.375  0.00  0.00    +0.000 A 
ENDBRANCH   3  27
ENDBRANCH  21   3
ENDBRANCH  18  21
ENDBRANCH  13  14
ENDBRANCH   8  13
TORSDOF 9
ENDMDL
MODEL 9
REMARK VINA RESULT:      -6.3     15.714     17.967
REMARK  Name = 26743151
REMARK  10 active torsions:
REMARK  status: ('A' for Active; 'I' for Inactive)
REMARK    1  A    between atoms: O_3  and  C_21
REMARK    2  A    between atoms: O_3  and  C_27
REMARK    3  A    between atoms: N_5  and  C_17
REMARK    4  A    between atoms: N_5  and  C_19
REMARK    5  A    between atoms: C_7  and  C_12
REMARK    6  A    between atoms: C_8  and  C_13
REMARK    7  A    between atoms: C_12  and  C_15
REMARK    8  A    between atoms: C_13  and  C_14
REMARK    9  A    between atoms: C_17  and  C_20
REMARK   10  A    between atoms: C_18  and  C_21
REMARK                            x       y       z     vdW  Elec       q    Type
REMARK                         _______ _______ _______ _____ _____    ______ ____
ROOT
ATOM      4  N   UNL     1      14.350  -7.744  31.067  0.00  0.00    -0.316 NA
ATOM      7  C   UNL     1      12.822  -5.285  31.644  0.00  0.00    +0.004 C 
ATOM      8  C   UNL     1      14.327  -5.270  31.282  0.00  0.00    +0.012 C 
ATOM      9  C   UNL     1      12.182  -6.560  31.070  0.00  0.00    +0.019 C 
ATOM     10  C   UNL     1      15.018  -6.589  31.669  0.00  0.00    +0.085 C 
ATOM     11  C   UNL     1      12.945  -7.825  31.461  0.00  0.00    +0.081 C 
ATOM     33  H   UNL     1      14.830  -8.597  31.352  0.00  0.00    +0.122 HD
ENDROOT
BRANCH   7  12
ATOM     12  C   UNL     1      12.541  -5.162  33.146  0.00  0.00    +0.100 C 
BRANCH  12  15
ATOM      1  O   UNL     1      10.294  -4.339  33.027  0.00  0.00    -0.276 OA
ATOM      5  N   UNL     1      10.632  -6.271  34.263  0.00  0.00    -0.300 N 
ATOM     15  C   UNL     1      11.056  -5.205  33.463  0.00  0.00    +0.216 C 
ATOM     19  C   UNL     1      11.552  -7.285  34.767  0.00  0.00    +0.132 C 
BRANCH   5  17
ATOM     17  C   UNL     1       9.237  -6.451  34.655  0.00  0.00    +0.142 C 
BRANCH  17  20
ATOM     20  C   UNL     1       8.430  -7.112  33.576  0.00  0.00    -0.030 A 
ATOM     22  C   UNL     1       7.086  -6.779  33.407  0.00  0.00    +0.005 A 
ATOM     23  C   UNL     1       9.024  -8.059  32.742  0.00  0.00    +0.005 A 
ATOM     24  C   UNL     1       6.336  -7.393  32.405  0.00  0.00    +0.000 A 
ATOM     25  C   UNL     1       8.274  -8.673  31.740  0.00  0.00    +0.000 A 
ATOM     26  C   UNL     1       6.930  -8.340  31.571  0.00  0.00    +0.000 A 
ENDBRANCH  17  20
ENDBRANCH   5  17
ENDBRANCH  12  15
ENDBRANCH   7  12
BRANCH   8  13
ATOM     13  C   UNL     1      15.075  -4.078  31.880  0.00  0.00    +0.064 C 
BRANCH  13  14
ATOM      2  O   UNL     1      16.993  -1.819  29.834  0.00  0.00    -0.356 OA
ATOM      6  N   UNL     1      16.149  -2.095  30.903  0.00  0.00    -0.083 NA
ATOM     14  C   UNL     1      15.952  -3.415  30.856  0.00  0.00    +0.084 A 
ATOM     16  C   UNL     1      16.639  -4.019  29.789  0.00  0.00    +0.074 A 
ATOM     18  C   UNL     1      17.279  -2.973  29.179  0.00  0.00    +0.175 A 
BRANCH  18  21
ATOM     21  C   UNL     1      18.165  -2.862  28.014  0.00  0.00    +0.306 C 
BRANCH  21   3
ATOM      3  O   UNL     1      17.650  -3.631  26.924  0.00  0.00    -0.484 OA
BRANCH   3  27
ATOM     27  C   UNL     1      17.498  -2.976  25.734  0.00  0.00    +0.121 A 
ATOM     28  C   UNL     1      18.113  -1.740  25.535  0.00  0.00    +0.045 A 
ATOM     29  C   UNL     1      16.728  -3.543  24.719  0.00  0.00    +0.045 A 
ATOM     30  C   UNL     1      17.958  -1.070  24.321  0.00  0.00    +0.004 A 
ATOM     31  C   UNL     1      16.572  -2.875  23.506  0.00  0.00    +0.004 A 
ATOM     32  C   UNL     1      17.188  -1.638  23.307  0.00  0.00    +0.000 A 
ENDBRANCH   3  27
ENDBRANCH  21   3
ENDBRANCH  18  21
ENDBRANCH  13  14
ENDBRANCH   8  13
TORSDOF 9
ENDMDL
MODEL 10
REMARK VINA RESULT:      -6.3     27.964     30.835
REMARK  Name = 26743151
REMARK  10 active torsions:
REMARK  status: ('A' for Active; 'I' for Inactive)
REMARK    1  A    between atoms: O_3  and  C_21
REMARK    2  A    between atoms: O_3  and  C_27
REMARK    3  A    between atoms: N_5  and  C_17
REMARK    4  A    between atoms: N_5  and  C_19
REMARK    5  A    between atoms: C_7  and  C_12
REMARK    6  A    between atoms: C_8  and  C_13
REMARK    7  A    between atoms: C_12  and  C_15
REMARK    8  A    between atoms: C_13  and  C_14
REMARK    9  A    between atoms: C_17  and  C_20
REMARK   10  A    between atoms: C_18  and  C_21
REMARK                            x       y       z     vdW  Elec       q    Type
REMARK                         _______ _______ _______ _____ _____    ______ ____
ROOT
ATOM      4  N   UNL     1      -8.931  -8.632  15.048  0.00  0.00    -0.316 NA
ATOM      7  C   UNL     1      -9.284  -9.371  17.884  0.00  0.00    +0.004 C 
ATOM      8  C   UNL     1      -7.947  -9.563  17.129  0.00  0.00    +0.012 C 
ATOM      9  C   UNL     1     -10.091  -8.257  17.197  0.00  0.00    +0.019 C 
ATOM     10  C   UNL     1      -8.168  -9.743  15.617  0.00  0.00    +0.085 C 
ATOM     11  C   UNL     1     -10.235  -8.482  15.692  0.00  0.00    +0.081 C 
ATOM     33  H   UNL     1      -9.065  -8.791  14.050  0.00  0.00    +0.122 HD
ENDROOT
BRANCH   7  12
ATOM     12  C   UNL     1     -10.118 -10.651  18.010  0.00  0.00    +0.100 C 
BRANCH  12  15
ATOM      1  O   UNL     1      -9.982 -10.491  20.398  0.00  0.00    -0.276 OA
ATOM      5  N   UNL     1     -11.874 -11.508  19.526  0.00  0.00    -0.300 N 
ATOM     15  C   UNL     1     -10.636 -10.867  19.422  0.00  0.00    +0.216 C 
ATOM     19  C   UNL     1     -12.630 -11.945  18.358  0.00  0.00    +0.132 C 
BRANCH   5  17
ATOM     17  C   UNL     1     -12.505 -11.789  20.814  0.00  0.00    +0.142 C 
BRANCH  17  20
ATOM     20  C   UNL     1     -13.734 -10.956  21.032  0.00  0.00    -0.030 A 
ATOM     22  C   UNL     1     -13.760  -9.628  20.605  0.00  0.00    +0.005 A 
ATOM     23  C   UNL     1     -14.850 -11.508  21.659  0.00  0.00    +0.005 A 
ATOM     24  C   UNL     1     -14.902  -8.853  20.807  0.00  0.00    +0.000 A 
ATOM     25  C   UNL     1     -15.992 -10.734  21.862  0.00  0.00    +0.000 A 
ATOM     26  C   UNL     1     -16.018  -9.406  21.435  0.00  0.00    +0.000 A 
ENDBRANCH  17  20
ENDBRANCH   5  17
ENDBRANCH  12  15
ENDBRANCH   7  12
BRANCH   8  13
ATOM     13  C   UNL     1      -7.102 -10.709  17.687  0.00  0.00    +0.064 C 
BRANCH  13  14
ATOM      2  O   UNL     1      -4.683 -12.111  15.419  0.00  0.00    -0.356 OA
ATOM      6  N   UNL     1      -5.875 -12.162  16.131  0.00  0.00    -0.083 NA
ATOM     14  C   UNL     1      -5.929 -11.006  16.798  0.00  0.00    +0.084 A 
ATOM     16  C   UNL     1      -4.808 -10.194  16.550  0.00  0.00    +0.074 A 
ATOM     18  C   UNL     1      -4.057 -10.935  15.676  0.00  0.00    +0.175 A 
BRANCH  18  21
ATOM     21  C   UNL     1      -2.772 -10.715  15.001  0.00  0.00    +0.306 C 
BRANCH  21   3
ATOM      3  O   UNL     1      -2.728 -11.442  13.770  0.00  0.00    -0.484 OA
BRANCH   3  27
ATOM     27  C   UNL     1      -2.898 -10.713  12.626  0.00  0.00    +0.121 A 
ATOM     28  C   UNL     1      -4.170 -10.575  12.071  0.00  0.00    +0.045 A 
ATOM     29  C   UNL     1      -1.801 -10.109  12.013  0.00  0.00    +0.045 A 
ATOM     30  C   UNL     1      -4.346  -9.832  10.903  0.00  0.00    +0.004 A 
ATOM     31  C   UNL     1      -1.976  -9.366  10.846  0.00  0.00    +0.004 A 
ATOM     32  C   UNL     1      -3.249  -9.227  10.291  0.00  0.00    +0.000 A 
ENDBRANCH   3  27
ENDBRANCH  21   3
ENDBRANCH  18  21
ENDBRANCH  13  14
ENDBRANCH   8  13
TORSDOF 9
ENDMDL
