MODEL 1
REMARK VINA RESULT:      -6.8      0.000      0.000
REMARK  Name = 40777634
REMARK  7 active torsions:
REMARK  status: ('A' for Active; 'I' for Inactive)
REMARK    1  A    between atoms: N_2  and  C_7
REMARK    2  A    between atoms: N_3  and  C_21
REMARK    3  A    between atoms: C_5  and  C_14
REMARK    4  A    between atoms: C_6  and  C_15
REMARK    5  A    between atoms: C_18  and  C_20
REMARK    6  A    between atoms: C_19  and  C_22
REMARK    7  A    between atoms: C_21  and  C_23
REMARK                            x       y       z     vdW  Elec       q    Type
REMARK                         _______ _______ _______ _____ _____    ______ ____
ROOT
ATOM      6  C   UNL     1      16.933   7.774  20.965  0.00  0.00    +0.047 C 
ATOM      7  C   UNL     1      15.024   7.064  19.596  0.00  0.00    +0.097 C 
ATOM      8  C   UNL     1      16.376   7.784  19.527  0.00  0.00    +0.039 C 
ATOM     16  C   UNL     1      16.185   6.634  21.594  0.00  0.00    -0.021 C 
ATOM     17  C   UNL     1      15.143   6.254  20.846  0.00  0.00    -0.009 C 
ENDROOT
BRANCH   6  15
ATOM      3  N   UNL     1      20.501   6.955  20.837  0.00  0.00    -0.264 N 
ATOM      4  N   UNL     1      20.627   8.147  21.445  0.00  0.00    -0.176 NA
ATOM     15  C   UNL     1      18.439   7.649  21.022  0.00  0.00    +0.003 A 
ATOM     18  C   UNL     1      19.211   6.611  20.561  0.00  0.00    +0.041 A 
ATOM     19  C   UNL     1      19.363   8.566  21.556  0.00  0.00    +0.064 A 
ATOM     20  C   UNL     1      18.846   5.345  19.896  0.00  0.00    +0.065 C 
ATOM     22  C   UNL     1      19.083   9.868  22.188  0.00  0.00    +0.068 C 
BRANCH   3  21
ATOM     21  C   UNL     1      21.688   6.185  20.544  0.00  0.00    +0.178 C 
BRANCH  21  23
ATOM     23  C   UNL     1      22.111   5.284  21.676  0.00  0.00    -0.026 A 
ATOM     24  C   UNL     1      21.866   3.913  21.606  0.00  0.00    +0.005 A 
ATOM     25  C   UNL     1      22.748   5.821  22.795  0.00  0.00    +0.005 A 
ATOM     26  C   UNL     1      22.256   3.079  22.654  0.00  0.00    +0.000 A 
ATOM     27  C   UNL     1      23.139   4.989  23.843  0.00  0.00    +0.000 A 
ATOM     28  C   UNL     1      22.894   3.617  23.772  0.00  0.00    +0.000 A 
ENDBRANCH  21  23
ENDBRANCH   3  21
ENDBRANCH   6  15
BRANCH   7   2
ATOM      1  O   UNL     1      12.202   6.433  19.386  0.00  0.00    -0.275 OA
ATOM      2  N   UNL     1      13.916   7.971  19.727  0.00  0.00    -0.309 N 
ATOM     14  C   UNL     1      12.594   7.575  19.610  0.00  0.00    +0.217 C 
ATOM     29  H   UNL     1      14.123   8.941  19.948  0.00  0.00    +0.149 HD
BRANCH  14   5
ATOM      5  C   UNL     1      11.638   8.715  19.813  0.00  0.00    +0.075 C 
ATOM      9  C   UNL     1      10.547   8.343  20.819  0.00  0.00    +0.013 C 
ATOM     10  C   UNL     1      12.404   9.980  20.209  0.00  0.00    +0.013 C 
ATOM     11  C   UNL     1      11.026   8.362  22.270  0.00  0.00    +0.001 C 
ATOM     12  C   UNL     1      12.872   9.964  21.663  0.00  0.00    +0.001 C 
ATOM     13  C   UNL     1      11.725   9.670  22.622  0.00  0.00    +0.000 C 
ENDBRANCH  14   5
ENDBRANCH   7   2
TORSDOF 5
ENDMDL
MODEL 2
REMARK VINA RESULT:      -6.6     29.218     33.219
REMARK  Name = 40777634
REMARK  7 active torsions:
REMARK  status: ('A' for Active; 'I' for Inactive)
REMARK    1  A    between atoms: N_2  and  C_7
REMARK    2  A    between atoms: N_3  and  C_21
REMARK    3  A    between atoms: C_5  and  C_14
REMARK    4  A    between atoms: C_6  and  C_15
REMARK    5  A    between atoms: C_18  and  C_20
REMARK    6  A    between atoms: C_19  and  C_22
REMARK    7  A    between atoms: C_21  and  C_23
REMARK                            x       y       z     vdW  Elec       q    Type
REMARK                         _______ _______ _______ _____ _____    ______ ____
ROOT
ATOM      6  C   UNL     1     -16.297   5.896  23.771  0.00  0.00    +0.047 C 
ATOM      7  C   UNL     1     -14.691   5.481  21.962  0.00  0.00    +0.097 C 
ATOM      8  C   UNL     1     -14.833   5.504  23.489  0.00  0.00    +0.039 C 
ATOM     16  C   UNL     1     -16.982   5.537  22.484  0.00  0.00    -0.021 C 
ATOM     17  C   UNL     1     -16.103   5.316  21.500  0.00  0.00    -0.009 C 
ENDROOT
BRANCH   6  15
ATOM      3  N   UNL     1     -17.426   3.788  26.546  0.00  0.00    -0.264 N 
ATOM      4  N   UNL     1     -17.998   4.930  26.963  0.00  0.00    -0.176 NA
ATOM     15  C   UNL     1     -16.870   5.226  24.999  0.00  0.00    +0.003 A 
ATOM     18  C   UNL     1     -16.738   3.912  25.374  0.00  0.00    +0.041 A 
ATOM     19  C   UNL     1     -17.654   5.805  26.014  0.00  0.00    +0.064 A 
ATOM     20  C   UNL     1     -16.035   2.782  24.737  0.00  0.00    +0.065 C 
ATOM     22  C   UNL     1     -18.105   7.204  26.120  0.00  0.00    +0.068 C 
BRANCH   3  21
ATOM     21  C   UNL     1     -17.584   2.590  27.338  0.00  0.00    +0.178 C 
BRANCH  21  23
ATOM     23  C   UNL     1     -16.456   2.365  28.313  0.00  0.00    -0.026 A 
ATOM     24  C   UNL     1     -15.733   3.450  28.807  0.00  0.00    +0.005 A 
ATOM     25  C   UNL     1     -16.136   1.070  28.722  0.00  0.00    +0.005 A 
ATOM     26  C   UNL     1     -14.690   3.241  29.709  0.00  0.00    +0.000 A 
ATOM     27  C   UNL     1     -15.093   0.860  29.623  0.00  0.00    +0.000 A 
ATOM     28  C   UNL     1     -14.370   1.946  30.118  0.00  0.00    +0.000 A 
ENDBRANCH  21  23
ENDBRANCH   3  21
ENDBRANCH   6  15
BRANCH   7   2
ATOM      1  O   UNL     1     -11.936   6.055  21.267  0.00  0.00    -0.275 OA
ATOM      2  N   UNL     1     -14.164   6.710  21.434  0.00  0.00    -0.309 N 
ATOM     14  C   UNL     1     -12.825   6.892  21.131  0.00  0.00    +0.217 C 
ATOM     29  H   UNL     1     -14.819   7.464  21.247  0.00  0.00    +0.149 HD
BRANCH  14   5
ATOM      5  C   UNL     1     -12.548   8.258  20.573  0.00  0.00    +0.075 C 
ATOM      9  C   UNL     1     -11.224   8.280  19.807  0.00  0.00    +0.013 C 
ATOM     10  C   UNL     1     -13.731   8.730  19.725  0.00  0.00    +0.013 C 
ATOM     11  C   UNL     1     -11.309   7.630  18.426  0.00  0.00    +0.001 C 
ATOM     12  C   UNL     1     -13.790   8.058  18.354  0.00  0.00    +0.001 C 
ATOM     13  C   UNL     1     -12.468   8.185  17.607  0.00  0.00    +0.000 C 
ENDBRANCH  14   5
ENDBRANCH   7   2
TORSDOF 5
ENDMDL
MODEL 3
REMARK VINA RESULT:      -6.6      2.380      9.240
REMARK  Name = 40777634
REMARK  7 active torsions:
REMARK  status: ('A' for Active; 'I' for Inactive)
REMARK    1  A    between atoms: N_2  and  C_7
REMARK    2  A    between atoms: N_3  and  C_21
REMARK    3  A    between atoms: C_5  and  C_14
REMARK    4  A    between atoms: C_6  and  C_15
REMARK    5  A    between atoms: C_18  and  C_20
REMARK    6  A    between atoms: C_19  and  C_22
REMARK    7  A    between atoms: C_21  and  C_23
REMARK                            x       y       z     vdW  Elec       q    Type
REMARK                         _______ _______ _______ _____ _____    ______ ____
ROOT
ATOM      6  C   UNL     1      18.857   7.404  21.355  0.00  0.00    +0.047 C 
ATOM      7  C   UNL     1      20.747   5.994  20.676  0.00  0.00    +0.097 C 
ATOM      8  C   UNL     1      19.218   6.015  20.790  0.00  0.00    +0.039 C 
ATOM     16  C   UNL     1      20.070   8.219  21.009  0.00  0.00    -0.021 C 
ATOM     17  C   UNL     1      21.098   7.446  20.643  0.00  0.00    -0.009 C 
ENDROOT
BRANCH   6  15
ATOM      3  N   UNL     1      15.664   8.218  19.755  0.00  0.00    -0.264 N 
ATOM      4  N   UNL     1      15.798   9.363  20.446  0.00  0.00    -0.176 NA
ATOM     15  C   UNL     1      17.554   7.949  20.815  0.00  0.00    +0.003 A 
ATOM     18  C   UNL     1      16.689   7.338  19.941  0.00  0.00    +0.041 A 
ATOM     19  C   UNL     1      16.956   9.193  21.092  0.00  0.00    +0.064 A 
ATOM     20  C   UNL     1      16.741   6.020  19.279  0.00  0.00    +0.065 C 
ATOM     22  C   UNL     1      17.457  10.261  21.975  0.00  0.00    +0.068 C 
BRANCH   3  21
ATOM     21  C   UNL     1      14.501   8.034  18.918  0.00  0.00    +0.178 C 
BRANCH  21  23
ATOM     23  C   UNL     1      13.220   7.878  19.699  0.00  0.00    -0.026 A 
ATOM     24  C   UNL     1      13.126   6.911  20.700  0.00  0.00    +0.005 A 
ATOM     25  C   UNL     1      12.129   8.702  19.422  0.00  0.00    +0.005 A 
ATOM     26  C   UNL     1      11.942   6.767  21.422  0.00  0.00    +0.000 A 
ATOM     27  C   UNL     1      10.944   8.558  20.143  0.00  0.00    +0.000 A 
ATOM     28  C   UNL     1      10.851   7.591  21.144  0.00  0.00    +0.000 A 
ENDBRANCH  21  23
ENDBRANCH   3  21
ENDBRANCH   6  15
BRANCH   7   2
ATOM      1  O   UNL     1      21.557   3.224  20.952  0.00  0.00    -0.275 OA
ATOM      2  N   UNL     1      21.381   5.381  21.811  0.00  0.00    -0.309 N 
ATOM     14  C   UNL     1      21.733   4.042  21.851  0.00  0.00    +0.217 C 
ATOM     29  H   UNL     1      21.607   5.974  22.604  0.00  0.00    +0.149 HD
BRANCH  14   5
ATOM      5  C   UNL     1      22.401   3.668  23.143  0.00  0.00    +0.075 C 
ATOM      9  C   UNL     1      23.177   2.357  23.000  0.00  0.00    +0.013 C 
ATOM     10  C   UNL     1      23.274   4.823  23.638  0.00  0.00    +0.013 C 
ATOM     11  C   UNL     1      24.500   2.512  22.252  0.00  0.00    +0.001 C 
ATOM     12  C   UNL     1      24.587   4.954  22.866  0.00  0.00    +0.001 C 
ATOM     13  C   UNL     1      25.352   3.637  22.830  0.00  0.00    +0.000 C 
ENDBRANCH  14   5
ENDBRANCH   7   2
TORSDOF 5
ENDMDL
MODEL 4
REMARK VINA RESULT:      -6.5     27.268     30.398
REMARK  Name = 40777634
REMARK  7 active torsions:
REMARK  status: ('A' for Active; 'I' for Inactive)
REMARK    1  A    between atoms: N_2  and  C_7
REMARK    2  A    between atoms: N_3  and  C_21
REMARK    3  A    between atoms: C_5  and  C_14
REMARK    4  A    between atoms: C_6  and  C_15
REMARK    5  A    between atoms: C_18  and  C_20
REMARK    6  A    between atoms: C_19  and  C_22
REMARK    7  A    between atoms: C_21  and  C_23
REMARK                            x       y       z     vdW  Elec       q    Type
REMARK                         _______ _______ _______ _____ _____    ______ ____
ROOT
ATOM      6  C   UNL     1      -5.036 -11.750  16.106  0.00  0.00    +0.047 C 
ATOM      7  C   UNL     1      -5.276 -12.346  18.475  0.00  0.00    +0.097 C 
ATOM      8  C   UNL     1      -4.840 -12.901  17.113  0.00  0.00    +0.039 C 
ATOM     16  C   UNL     1      -5.026 -10.539  16.994  0.00  0.00    -0.021 C 
ATOM     17  C   UNL     1      -5.161 -10.869  18.283  0.00  0.00    -0.009 C 
ENDROOT
BRANCH   6  15
ATOM      3  N   UNL     1      -2.950 -11.932  13.101  0.00  0.00    -0.264 N 
ATOM      4  N   UNL     1      -2.012 -11.428  13.922  0.00  0.00    -0.176 NA
ATOM     15  C   UNL     1      -4.000 -11.735  15.006  0.00  0.00    +0.003 A 
ATOM     18  C   UNL     1      -4.158 -12.134  13.701  0.00  0.00    +0.041 A 
ATOM     19  C   UNL     1      -2.660 -11.309  15.085  0.00  0.00    +0.064 A 
ATOM     20  C   UNL     1      -5.326 -12.679  12.984  0.00  0.00    +0.065 C 
ATOM     22  C   UNL     1      -1.949 -10.778  16.260  0.00  0.00    +0.068 C 
BRANCH   3  21
ATOM     21  C   UNL     1      -2.608 -12.200  11.724  0.00  0.00    +0.178 C 
BRANCH  21  23
ATOM     23  C   UNL     1      -3.210 -11.214  10.755  0.00  0.00    -0.026 A 
ATOM     24  C   UNL     1      -2.949  -9.851  10.893  0.00  0.00    +0.005 A 
ATOM     25  C   UNL     1      -4.028 -11.665   9.718  0.00  0.00    +0.005 A 
ATOM     26  C   UNL     1      -3.506  -8.939   9.997  0.00  0.00    +0.000 A 
ATOM     27  C   UNL     1      -4.586 -10.754   8.822  0.00  0.00    +0.000 A 
ATOM     28  C   UNL     1      -4.323  -9.390   8.960  0.00  0.00    +0.000 A 
ENDBRANCH  21  23
ENDBRANCH   3  21
ENDBRANCH   6  15
BRANCH   7   2
ATOM      1  O   UNL     1      -7.098 -10.830  20.144  0.00  0.00    -0.275 OA
ATOM      2  N   UNL     1      -6.637 -12.675  18.800  0.00  0.00    -0.309 N 
ATOM     14  C   UNL     1      -7.434 -11.884  19.611  0.00  0.00    +0.217 C 
ATOM     29  H   UNL     1      -7.034 -13.512  18.383  0.00  0.00    +0.149 HD
BRANCH  14   5
ATOM      5  C   UNL     1      -8.819 -12.445  19.768  0.00  0.00    +0.075 C 
ATOM      9  C   UNL     1      -9.821 -11.342  20.114  0.00  0.00    +0.013 C 
ATOM     10  C   UNL     1      -9.213 -13.233  18.516  0.00  0.00    +0.013 C 
ATOM     11  C   UNL     1     -10.207 -10.473  18.918  0.00  0.00    +0.001 C 
ATOM     12  C   UNL     1      -9.588 -12.335  17.338  0.00  0.00    +0.001 C 
ATOM     13  C   UNL     1     -10.649 -11.313  17.725  0.00  0.00    +0.000 C 
ENDBRANCH  14   5
ENDBRANCH   7   2
TORSDOF 5
ENDMDL
MODEL 5
REMARK VINA RESULT:      -6.5     15.104     18.602
REMARK  Name = 40777634
REMARK  7 active torsions:
REMARK  status: ('A' for Active; 'I' for Inactive)
REMARK    1  A    between atoms: N_2  and  C_7
REMARK    2  A    between atoms: N_3  and  C_21
REMARK    3  A    between atoms: C_5  and  C_14
REMARK    4  A    between atoms: C_6  and  C_15
REMARK    5  A    between atoms: C_18  and  C_20
REMARK    6  A    between atoms: C_19  and  C_22
REMARK    7  A    between atoms: C_21  and  C_23
REMARK                            x       y       z     vdW  Elec       q    Type
REMARK                         _______ _______ _______ _____ _____    ______ ____
ROOT
ATOM      6  C   UNL     1      11.911   6.889   5.525  0.00  0.00    +0.047 C 
ATOM      7  C   UNL     1      12.870   7.012   3.269  0.00  0.00    +0.097 C 
ATOM      8  C   UNL     1      11.539   6.994   4.032  0.00  0.00    +0.039 C 
ATOM     16  C   UNL     1      13.325   7.394   5.542  0.00  0.00    -0.021 C 
ATOM     17  C   UNL     1      13.844   7.456   4.311  0.00  0.00    -0.009 C 
ENDROOT
BRANCH   6  15
ATOM      3  N   UNL     1       9.776   9.180   7.425  0.00  0.00    -0.264 N 
ATOM      4  N   UNL     1       9.428   8.055   8.072  0.00  0.00    -0.176 NA
ATOM     15  C   UNL     1      10.961   7.638   6.431  0.00  0.00    +0.003 A 
ATOM     18  C   UNL     1      10.692   8.984   6.433  0.00  0.00    +0.041 A 
ATOM     19  C   UNL     1      10.155   7.116   7.460  0.00  0.00    +0.064 A 
ATOM     20  C   UNL     1      11.212  10.083   5.597  0.00  0.00    +0.065 C 
ATOM     22  C   UNL     1      10.046   5.713   7.900  0.00  0.00    +0.068 C 
BRANCH   3  21
ATOM     21  C   UNL     1       9.178  10.434   7.820  0.00  0.00    +0.178 C 
BRANCH  21  23
ATOM     23  C   UNL     1       9.759  10.999   9.092  0.00  0.00    -0.026 A 
ATOM     24  C   UNL     1      11.131  11.227   9.193  0.00  0.00    +0.005 A 
ATOM     25  C   UNL     1       8.923  11.296  10.169  0.00  0.00    +0.005 A 
ATOM     26  C   UNL     1      11.668  11.749  10.369  0.00  0.00    +0.000 A 
ATOM     27  C   UNL     1       9.458  11.818  11.346  0.00  0.00    +0.000 A 
ATOM     28  C   UNL     1      10.831  12.046  11.445  0.00  0.00    +0.000 A 
ENDBRANCH  21  23
ENDBRANCH   3  21
ENDBRANCH   6  15
BRANCH   7   2
ATOM      1  O   UNL     1      11.821   5.616   0.954  0.00  0.00    -0.275 OA
ATOM      2  N   UNL     1      13.253   5.712   2.787  0.00  0.00    -0.309 N 
ATOM     14  C   UNL     1      12.693   5.124   1.666  0.00  0.00    +0.217 C 
ATOM     29  H   UNL     1      13.995   5.226   3.282  0.00  0.00    +0.149 HD
BRANCH  14   5
ATOM      5  C   UNL     1      13.290   3.778   1.372  0.00  0.00    +0.075 C 
ATOM      9  C   UNL     1      12.916   3.308  -0.035  0.00  0.00    +0.013 C 
ATOM     10  C   UNL     1      14.802   3.811   1.603  0.00  0.00    +0.013 C 
ATOM     11  C   UNL     1      13.707   4.006  -1.141  0.00  0.00    +0.001 C 
ATOM     12  C   UNL     1      15.563   4.520   0.483  0.00  0.00    +0.001 C 
ATOM     13  C   UNL     1      15.209   3.951  -0.885  0.00  0.00    +0.000 C 
ENDBRANCH  14   5
ENDBRANCH   7   2
TORSDOF 5
ENDMDL
MODEL 6
REMARK VINA RESULT:      -6.5      3.171      9.533
REMARK  Name = 40777634
REMARK  7 active torsions:
REMARK  status: ('A' for Active; 'I' for Inactive)
REMARK    1  A    between atoms: N_2  and  C_7
REMARK    2  A    between atoms: N_3  and  C_21
REMARK    3  A    between atoms: C_5  and  C_14
REMARK    4  A    between atoms: C_6  and  C_15
REMARK    5  A    between atoms: C_18  and  C_20
REMARK    6  A    between atoms: C_19  and  C_22
REMARK    7  A    between atoms: C_21  and  C_23
REMARK                            x       y       z     vdW  Elec       q    Type
REMARK                         _______ _______ _______ _____ _____    ______ ____
ROOT
ATOM      6  C   UNL     1      19.216   6.666  21.720  0.00  0.00    +0.047 C 
ATOM      7  C   UNL     1      21.603   6.204  21.386  0.00  0.00    +0.097 C 
ATOM      8  C   UNL     1      20.298   6.497  20.635  0.00  0.00    +0.039 C 
ATOM     16  C   UNL     1      20.028   7.000  22.938  0.00  0.00    -0.021 C 
ATOM     17  C   UNL     1      21.327   6.743  22.752  0.00  0.00    -0.009 C 
ENDROOT
BRANCH   6  15
ATOM      3  N   UNL     1      16.295   8.697  20.845  0.00  0.00    -0.264 N 
ATOM      4  N   UNL     1      17.191   9.700  20.875  0.00  0.00    -0.176 NA
ATOM     15  C   UNL     1      18.164   7.691  21.362  0.00  0.00    +0.003 A 
ATOM     18  C   UNL     1      16.828   7.474  21.129  0.00  0.00    +0.041 A 
ATOM     19  C   UNL     1      18.330   9.078  21.192  0.00  0.00    +0.064 A 
ATOM     20  C   UNL     1      16.023   6.237  21.151  0.00  0.00    +0.065 C 
ATOM     22  C   UNL     1      19.571   9.862  21.322  0.00  0.00    +0.068 C 
BRANCH   3  21
ATOM     21  C   UNL     1      14.918   8.993  20.529  0.00  0.00    +0.178 C 
BRANCH  21  23
ATOM     23  C   UNL     1      14.632   9.001  19.048  0.00  0.00    -0.026 A 
ATOM     24  C   UNL     1      14.657  10.201  18.338  0.00  0.00    +0.005 A 
ATOM     25  C   UNL     1      14.342   7.806  18.388  0.00  0.00    +0.005 A 
ATOM     26  C   UNL     1      14.392  10.207  16.969  0.00  0.00    +0.000 A 
ATOM     27  C   UNL     1      14.077   7.812  17.019  0.00  0.00    +0.000 A 
ATOM     28  C   UNL     1      14.103   9.013  16.309  0.00  0.00    +0.000 A 
ENDBRANCH  21  23
ENDBRANCH   3  21
ENDBRANCH   6  15
BRANCH   7   2
ATOM      1  O   UNL     1      23.850   4.782  20.233  0.00  0.00    -0.275 OA
ATOM      2  N   UNL     1      21.886   4.798  21.482  0.00  0.00    -0.309 N 
ATOM     14  C   UNL     1      22.990   4.205  20.894  0.00  0.00    +0.217 C 
ATOM     29  H   UNL     1      21.256   4.227  22.038  0.00  0.00    +0.149 HD
BRANCH  14   5
ATOM      5  C   UNL     1      23.059   2.731  21.170  0.00  0.00    +0.075 C 
ATOM      9  C   UNL     1      24.300   2.109  20.525  0.00  0.00    +0.013 C 
ATOM     10  C   UNL     1      22.982   2.473  22.676  0.00  0.00    +0.013 C 
ATOM     11  C   UNL     1      25.593   2.407  21.283  0.00  0.00    +0.001 C 
ATOM     12  C   UNL     1      24.288   2.785  23.404  0.00  0.00    +0.001 C 
ATOM     13  C   UNL     1      25.473   2.072  22.765  0.00  0.00    +0.000 C 
ENDBRANCH  14   5
ENDBRANCH   7   2
TORSDOF 5
ENDMDL
MODEL 7
REMARK VINA RESULT:      -6.5     28.976     32.785
REMARK  Name = 40777634
REMARK  7 active torsions:
REMARK  status: ('A' for Active; 'I' for Inactive)
REMARK    1  A    between atoms: N_2  and  C_7
REMARK    2  A    between atoms: N_3  and  C_21
REMARK    3  A    between atoms: C_5  and  C_14
REMARK    4  A    between atoms: C_6  and  C_15
REMARK    5  A    between atoms: C_18  and  C_20
REMARK    6  A    between atoms: C_19  and  C_22
REMARK    7  A    between atoms: C_21  and  C_23
REMARK                            x       y       z     vdW  Elec       q    Type
REMARK                         _______ _______ _______ _____ _____    ______ ____
ROOT
ATOM      6  C   UNL     1     -10.744  -8.840  15.587  0.00  0.00    +0.047 C 
ATOM      7  C   UNL     1      -9.086  -8.926  17.395  0.00  0.00    +0.097 C 
ATOM      8  C   UNL     1      -9.332  -8.368  15.988  0.00  0.00    +0.039 C 
ATOM     16  C   UNL     1     -11.379  -9.126  16.918  0.00  0.00    -0.021 C 
ATOM     17  C   UNL     1     -10.471  -9.176  17.899  0.00  0.00    -0.009 C 
ENDROOT
BRANCH   6  15
ATOM      3  N   UNL     1     -12.565  -6.838  13.118  0.00  0.00    -0.264 N 
ATOM      4  N   UNL     1     -12.507  -5.901  14.080  0.00  0.00    -0.176 NA
ATOM     15  C   UNL     1     -11.490  -7.839  14.735  0.00  0.00    +0.003 A 
ATOM     18  C   UNL     1     -11.970  -8.017  13.461  0.00  0.00    +0.041 A 
ATOM     19  C   UNL     1     -11.849  -6.518  15.065  0.00  0.00    +0.064 A 
ATOM     20  C   UNL     1     -11.919  -9.180  12.554  0.00  0.00    +0.065 C 
ATOM     22  C   UNL     1     -11.582  -5.797  16.322  0.00  0.00    +0.068 C 
BRANCH   3  21
ATOM     21  C   UNL     1     -13.220  -6.526  11.869  0.00  0.00    +0.178 C 
BRANCH  21  23
ATOM     23  C   UNL     1     -12.369  -5.700  10.937  0.00  0.00    -0.026 A 
ATOM     24  C   UNL     1     -12.369  -4.309  11.040  0.00  0.00    +0.005 A 
ATOM     25  C   UNL     1     -11.581  -6.328   9.972  0.00  0.00    +0.005 A 
ATOM     26  C   UNL     1     -11.582  -3.546  10.177  0.00  0.00    +0.000 A 
ATOM     27  C   UNL     1     -10.794  -5.565   9.110  0.00  0.00    +0.000 A 
ATOM     28  C   UNL     1     -10.794  -4.174   9.213  0.00  0.00    +0.000 A 
ENDBRANCH  21  23
ENDBRANCH   3  21
ENDBRANCH   6  15
BRANCH   7   2
ATOM      1  O   UNL     1      -6.306  -9.322  16.674  0.00  0.00    -0.275 OA
ATOM      2  N   UNL     1      -8.358 -10.166  17.383  0.00  0.00    -0.309 N 
ATOM     14  C   UNL     1      -7.024 -10.257  17.021  0.00  0.00    +0.217 C 
ATOM     29  H   UNL     1      -8.845 -11.003  17.687  0.00  0.00    +0.149 HD
BRANCH  14   5
ATOM      5  C   UNL     1      -6.503 -11.662  17.119  0.00  0.00    +0.075 C 
ATOM      9  C   UNL     1      -5.069 -11.753  16.595  0.00  0.00    +0.013 C 
ATOM     10  C   UNL     1      -6.645 -12.177  18.553  0.00  0.00    +0.013 C 
ATOM     11  C   UNL     1      -4.029 -11.199  17.569  0.00  0.00    +0.001 C 
ATOM     12  C   UNL     1      -5.594 -11.601  19.502  0.00  0.00    +0.001 C 
ATOM     13  C   UNL     1      -4.182 -11.796  18.964  0.00  0.00    +0.000 C 
ENDBRANCH  14   5
ENDBRANCH   7   2
TORSDOF 5
ENDMDL
MODEL 8
REMARK VINA RESULT:      -6.4     29.109     30.839
REMARK  Name = 40777634
REMARK  7 active torsions:
REMARK  status: ('A' for Active; 'I' for Inactive)
REMARK    1  A    between atoms: N_2  and  C_7
REMARK    2  A    between atoms: N_3  and  C_21
REMARK    3  A    between atoms: C_5  and  C_14
REMARK    4  A    between atoms: C_6  and  C_15
REMARK    5  A    between atoms: C_18  and  C_20
REMARK    6  A    between atoms: C_19  and  C_22
REMARK    7  A    between atoms: C_21  and  C_23
REMARK                            x       y       z     vdW  Elec       q    Type
REMARK                         _______ _______ _______ _____ _____    ______ ____
ROOT
ATOM      6  C   UNL     1     -12.310  10.651  24.858  0.00  0.00    +0.047 C 
ATOM      7  C   UNL     1     -13.760  10.583  22.879  0.00  0.00    +0.097 C 
ATOM      8  C   UNL     1     -13.762  10.401  24.402  0.00  0.00    +0.039 C 
ATOM     16  C   UNL     1     -11.749  11.458  23.723  0.00  0.00    -0.021 C 
ATOM     17  C   UNL     1     -12.541  11.415  22.646  0.00  0.00    -0.009 C 
ENDROOT
BRANCH   6  15
ATOM      3  N   UNL     1     -11.761  11.794  28.294  0.00  0.00    -0.264 N 
ATOM      4  N   UNL     1     -12.496  12.843  27.887  0.00  0.00    -0.176 NA
ATOM     15  C   UNL     1     -12.215  11.315  26.212  0.00  0.00    +0.003 A 
ATOM     18  C   UNL     1     -11.563  10.851  27.329  0.00  0.00    +0.041 A 
ATOM     19  C   UNL     1     -12.771  12.544  26.614  0.00  0.00    +0.064 A 
ATOM     20  C   UNL     1     -10.785   9.619  27.561  0.00  0.00    +0.065 C 
ATOM     22  C   UNL     1     -13.579  13.477  25.809  0.00  0.00    +0.068 C 
BRANCH   3  21
ATOM     21  C   UNL     1     -11.270  11.763  29.653  0.00  0.00    +0.178 C 
BRANCH  21  23
ATOM     23  C   UNL     1     -11.913  10.691  30.496  0.00  0.00    -0.026 A 
ATOM     24  C   UNL     1     -13.302  10.571  30.535  0.00  0.00    +0.005 A 
ATOM     25  C   UNL     1     -11.118   9.817  31.238  0.00  0.00    +0.005 A 
ATOM     26  C   UNL     1     -13.896   9.580  31.316  0.00  0.00    +0.000 A 
ATOM     27  C   UNL     1     -11.710   8.825  32.019  0.00  0.00    +0.000 A 
ATOM     28  C   UNL     1     -13.100   8.706  32.057  0.00  0.00    +0.000 A 
ENDBRANCH  21  23
ENDBRANCH   3  21
ENDBRANCH   6  15
BRANCH   7   2
ATOM      1  O   UNL     1     -14.557  10.023  20.148  0.00  0.00    -0.275 OA
ATOM      2  N   UNL     1     -13.626   9.339  22.170  0.00  0.00    -0.309 N 
ATOM     14  C   UNL     1     -14.038   9.166  20.859  0.00  0.00    +0.217 C 
ATOM     29  H   UNL     1     -13.175   8.567  22.652  0.00  0.00    +0.149 HD
BRANCH  14   5
ATOM      5  C   UNL     1     -13.759   7.780  20.354  0.00  0.00    +0.075 C 
ATOM      9  C   UNL     1     -13.846   7.724  18.827  0.00  0.00    +0.013 C 
ATOM     10  C   UNL     1     -12.414   7.285  20.890  0.00  0.00    +0.013 C 
ATOM     11  C   UNL     1     -12.628   8.327  18.127  0.00  0.00    +0.001 C 
ATOM     12  C   UNL     1     -11.218   7.909  20.172  0.00  0.00    +0.001 C 
ATOM     13  C   UNL     1     -11.322   7.749  18.660  0.00  0.00    +0.000 C 
ENDBRANCH  14   5
ENDBRANCH   7   2
TORSDOF 5
ENDMDL
MODEL 9
REMARK VINA RESULT:      -6.4     10.836     13.800
REMARK  Name = 40777634
REMARK  7 active torsions:
REMARK  status: ('A' for Active; 'I' for Inactive)
REMARK    1  A    between atoms: N_2  and  C_7
REMARK    2  A    between atoms: N_3  and  C_21
REMARK    3  A    between atoms: C_5  and  C_14
REMARK    4  A    between atoms: C_6  and  C_15
REMARK    5  A    between atoms: C_18  and  C_20
REMARK    6  A    between atoms: C_19  and  C_22
REMARK    7  A    between atoms: C_21  and  C_23
REMARK                            x       y       z     vdW  Elec       q    Type
REMARK                         _______ _______ _______ _____ _____    ______ ____
ROOT
ATOM      6  C   UNL     1      17.545  -3.432  29.199  0.00  0.00    +0.047 C 
ATOM      7  C   UNL     1      19.074  -3.222  27.290  0.00  0.00    +0.097 C 
ATOM      8  C   UNL     1      18.130  -2.419  28.194  0.00  0.00    +0.039 C 
ATOM     16  C   UNL     1      18.555  -4.542  29.164  0.00  0.00    -0.021 C 
ATOM     17  C   UNL     1      19.383  -4.425  28.120  0.00  0.00    -0.009 C 
ENDROOT
BRANCH   6  15
ATOM      3  N   UNL     1      17.462  -1.721  32.437  0.00  0.00    -0.264 N 
ATOM      4  N   UNL     1      16.304  -2.390  32.575  0.00  0.00    -0.176 NA
ATOM     15  C   UNL     1      17.301  -2.842  30.569  0.00  0.00    +0.003 A 
ATOM     18  C   UNL     1      18.098  -1.956  31.253  0.00  0.00    +0.041 A 
ATOM     19  C   UNL     1      16.212  -3.074  31.430  0.00  0.00    +0.064 A 
ATOM     20  C   UNL     1      19.382  -1.324  30.896  0.00  0.00    +0.065 C 
ATOM     22  C   UNL     1      15.048  -3.948  31.200  0.00  0.00    +0.068 C 
BRANCH   3  21
ATOM     21  C   UNL     1      17.905  -0.854  33.504  0.00  0.00    +0.178 C 
BRANCH  21  23
ATOM     23  C   UNL     1      17.304   0.527  33.442  0.00  0.00    -0.026 A 
ATOM     24  C   UNL     1      17.278   1.224  32.233  0.00  0.00    +0.005 A 
ATOM     25  C   UNL     1      16.771   1.109  34.592  0.00  0.00    +0.005 A 
ATOM     26  C   UNL     1      16.722   2.502  32.176  0.00  0.00    +0.000 A 
ATOM     27  C   UNL     1      16.215   2.387  34.536  0.00  0.00    +0.000 A 
ATOM     28  C   UNL     1      16.190   3.083  33.327  0.00  0.00    +0.000 A 
ENDBRANCH  21  23
ENDBRANCH   3  21
ENDBRANCH   6  15
BRANCH   7   2
ATOM      1  O   UNL     1      20.041  -2.803  24.590  0.00  0.00    -0.275 OA
ATOM      2  N   UNL     1      18.448  -3.642  26.066  0.00  0.00    -0.309 N 
ATOM     14  C   UNL     1      18.989  -3.394  24.815  0.00  0.00    +0.217 C 
ATOM     29  H   UNL     1      17.585  -4.173  26.134  0.00  0.00    +0.149 HD
BRANCH  14   5
ATOM      5  C   UNL     1      18.146  -3.961  23.709  0.00  0.00    +0.075 C 
ATOM      9  C   UNL     1      16.691  -4.118  24.153  0.00  0.00    +0.013 C 
ATOM     10  C   UNL     1      18.292  -3.109  22.446  0.00  0.00    +0.013 C 
ATOM     11  C   UNL     1      15.921  -2.798  24.191  0.00  0.00    +0.001 C 
ATOM     12  C   UNL     1      17.515  -1.795  22.518  0.00  0.00    +0.001 C 
ATOM     13  C   UNL     1      16.054  -2.025  22.884  0.00  0.00    +0.000 C 
ENDBRANCH  14   5
ENDBRANCH   7   2
TORSDOF 5
ENDMDL
MODEL 10
REMARK VINA RESULT:      -6.1     15.097     18.122
REMARK  Name = 40777634
REMARK  7 active torsions:
REMARK  status: ('A' for Active; 'I' for Inactive)
REMARK    1  A    between atoms: N_2  and  C_7
REMARK    2  A    between atoms: N_3  and  C_21
REMARK    3  A    between atoms: C_5  and  C_14
REMARK    4  A    between atoms: C_6  and  C_15
REMARK    5  A    between atoms: C_18  and  C_20
REMARK    6  A    between atoms: C_19  and  C_22
REMARK    7  A    between atoms: C_21  and  C_23
REMARK                            x       y       z     vdW  Elec       q    Type
REMARK                         _______ _______ _______ _____ _____    ______ ____
ROOT
ATOM      6  C   UNL     1      14.466   7.598   4.574  0.00  0.00    +0.047 C 
ATOM      7  C   UNL     1      15.991   9.444   5.111  0.00  0.00    +0.097 C 
ATOM      8  C   UNL     1      14.757   9.082   4.275  0.00  0.00    +0.039 C 
ATOM     16  C   UNL     1      15.153   7.393   5.893  0.00  0.00    -0.021 C 
ATOM     17  C   UNL     1      15.986   8.399   6.180  0.00  0.00    -0.009 C 
ENDROOT
BRANCH   6  15
ATOM      3  N   UNL     1      10.880   7.057   5.092  0.00  0.00    -0.264 N 
ATOM      4  N   UNL     1      10.963   6.467   3.887  0.00  0.00    -0.176 NA
ATOM     15  C   UNL     1      12.991   7.266   4.572  0.00  0.00    +0.003 A 
ATOM     18  C   UNL     1      12.067   7.553   5.547  0.00  0.00    +0.041 A 
ATOM     19  C   UNL     1      12.256   6.598   3.575  0.00  0.00    +0.064 A 
ATOM     20  C   UNL     1      12.201   8.240   6.846  0.00  0.00    +0.065 C 
ATOM     22  C   UNL     1      12.750   6.061   2.295  0.00  0.00    +0.068 C 
BRANCH   3  21
ATOM     21  C   UNL     1       9.602   7.110   5.763  0.00  0.00    +0.178 C 
BRANCH  21  23
ATOM     23  C   UNL     1       9.517   6.199   6.961  0.00  0.00    -0.026 A 
ATOM     24  C   UNL     1       9.873   4.855   6.844  0.00  0.00    +0.005 A 
ATOM     25  C   UNL     1       9.081   6.698   8.189  0.00  0.00    +0.005 A 
ATOM     26  C   UNL     1       9.794   4.012   7.951  0.00  0.00    +0.000 A 
ATOM     27  C   UNL     1       9.002   5.856   9.297  0.00  0.00    +0.000 A 
ATOM     28  C   UNL     1       9.360   4.513   9.179  0.00  0.00    +0.000 A 
ENDBRANCH  21  23
ENDBRANCH   3  21
ENDBRANCH   6  15
BRANCH   7   2
ATOM      1  O   UNL     1      18.551  10.631   5.778  0.00  0.00    -0.275 OA
ATOM      2  N   UNL     1      17.217   9.348   4.365  0.00  0.00    -0.309 N 
ATOM     14  C   UNL     1      18.396   9.953   4.765  0.00  0.00    +0.217 C 
ATOM     29  H   UNL     1      17.214   8.780   3.523  0.00  0.00    +0.149 HD
BRANCH  14   5
ATOM      5  C   UNL     1      19.528   9.675   3.818  0.00  0.00    +0.075 C 
ATOM      9  C   UNL     1      20.867  10.098   4.424  0.00  0.00    +0.013 C 
ATOM     10  C   UNL     1      19.508   8.205   3.391  0.00  0.00    +0.013 C 
ATOM     11  C   UNL     1      21.390   9.128   5.482  0.00  0.00    +0.001 C 
ATOM     12  C   UNL     1      20.031   7.262   4.473  0.00  0.00    +0.001 C 
ATOM     13  C   UNL     1      21.404   7.689   4.977  0.00  0.00    +0.000 C 
ENDBRANCH  14   5
ENDBRANCH   7   2
TORSDOF 5
ENDMDL
