MODEL 1
REMARK VINA RESULT:      -6.6      0.000      0.000
REMARK  Name = 11884596
REMARK  9 active torsions:
REMARK  status: ('A' for Active; 'I' for Inactive)
REMARK    1  A    between atoms: O_3  and  C_10
REMARK    2  A    between atoms: O_3  and  C_16
REMARK    3  A    between atoms: N_5  and  C_9
REMARK    4  A    between atoms: N_5  and  C_13
REMARK    5  A    between atoms: N_6  and  C_19
REMARK    6  A    between atoms: C_13  and  C_14
REMARK    7  A    between atoms: C_14  and  C_15
REMARK    8  A    between atoms: C_15  and  C_17
REMARK    9  A    between atoms: C_15  and  C_18
REMARK                            x       y       z     vdW  Elec       q    Type
REMARK                         _______ _______ _______ _____ _____    ______ ____
ROOT
ATOM      3  O   UNL     1      -3.911 -11.899  16.733  0.00  0.00    -0.442 OA
ENDROOT
BRANCH   3  10
ATOM      1  O   UNL     1      -6.550 -12.017  17.595  0.00  0.00    -0.369 OA
ATOM      2  O   UNL     1      -4.928 -11.647  20.158  0.00  0.00    -0.369 OA
ATOM      7  C   UNL     1      -5.932 -10.814  19.539  0.00  0.00    +0.170 C 
ATOM      8  C   UNL     1      -5.728 -10.924  18.041  0.00  0.00    +0.191 C 
ATOM      9  C   UNL     1      -7.307 -11.403  19.770  0.00  0.00    +0.111 C 
ATOM     10  C   UNL     1      -4.258 -11.252  17.936  0.00  0.00    +0.235 C 
ATOM     11  C   UNL     1      -7.376 -12.464  18.682  0.00  0.00    +0.181 C 
ATOM     12  C   UNL     1      -4.041 -12.138  19.142  0.00  0.00    +0.207 C 
BRANCH   9   5
ATOM      5  N   UNL     1      -8.358 -10.409  19.562  0.00  0.00    -0.309 NA
ATOM     29  H   UNL     1      -8.044  -9.717  18.881  0.00  0.00    +0.122 HD
BRANCH   5  13
ATOM     13  C   UNL     1      -9.579 -11.040  19.087  0.00  0.00    +0.081 C 
BRANCH  13  14
ATOM     14  C   UNL     1     -10.076 -10.343  17.820  0.00  0.00    +0.018 C 
BRANCH  14  15
ATOM     15  C   UNL     1      -9.164  -9.188  17.362  0.00  0.00    -0.016 C 
ATOM     17  C   UNL     1      -8.561  -9.514  15.994  0.00  0.00    +0.007 C 
ATOM     18  C   UNL     1      -9.905  -7.851  17.293  0.00  0.00    +0.007 C 
ENDBRANCH  14  15
ENDBRANCH  13  14
ENDBRANCH   5  13
ENDBRANCH   9   5
ENDBRANCH   3  10
BRANCH   3  16
ATOM      4  O   UNL     1      -2.374 -10.359  16.030  0.00  0.00    -0.226 OA
ATOM      6  N   UNL     1      -3.849 -11.393  14.535  0.00  0.00    -0.251 N 
ATOM     16  C   UNL     1      -3.286 -11.134  15.770  0.00  0.00    +0.405 C 
ATOM     30  H   UNL     1      -4.596 -12.076  14.555  0.00  0.00    +0.158 HD
BRANCH   6  19
ATOM     19  C   UNL     1      -3.508 -10.826  13.287  0.00  0.00    +0.044 A 
ATOM     20  C   UNL     1      -4.455 -10.152  12.512  0.00  0.00    +0.003 A 
ATOM     21  C   UNL     1      -2.192 -10.972  12.867  0.00  0.00    +0.024 A 
ATOM     22  C   UNL     1      -4.054  -9.605  11.269  0.00  0.00    -0.016 A 
ATOM     23  C   UNL     1      -5.787 -10.002  12.931  0.00  0.00    +0.010 A 
ATOM     24  C   UNL     1      -1.798 -10.433  11.644  0.00  0.00    +0.002 A 
ATOM     25  C   UNL     1      -2.722  -9.755  10.850  0.00  0.00    +0.008 A 
ATOM     26  C   UNL     1      -4.998  -8.926  10.482  0.00  0.00    +0.008 A 
ATOM     27  C   UNL     1      -6.711  -9.324  12.136  0.00  0.00    +0.001 A 
ATOM     28  C   UNL     1      -6.318  -8.786  10.914  0.00  0.00    +0.001 A 
ENDBRANCH   6  19
ENDBRANCH   3  16
TORSDOF 7
ENDMDL
MODEL 2
REMARK VINA RESULT:      -6.4      1.257      1.665
REMARK  Name = 11884596
REMARK  9 active torsions:
REMARK  status: ('A' for Active; 'I' for Inactive)
REMARK    1  A    between atoms: O_3  and  C_10
REMARK    2  A    between atoms: O_3  and  C_16
REMARK    3  A    between atoms: N_5  and  C_9
REMARK    4  A    between atoms: N_5  and  C_13
REMARK    5  A    between atoms: N_6  and  C_19
REMARK    6  A    between atoms: C_13  and  C_14
REMARK    7  A    between atoms: C_14  and  C_15
REMARK    8  A    between atoms: C_15  and  C_17
REMARK    9  A    between atoms: C_15  and  C_18
REMARK                            x       y       z     vdW  Elec       q    Type
REMARK                         _______ _______ _______ _____ _____    ______ ____
ROOT
ATOM      3  O   UNL     1      -3.707 -12.024  16.034  0.00  0.00    -0.442 OA
ENDROOT
BRANCH   3  10
ATOM      1  O   UNL     1      -6.286 -10.993  16.074  0.00  0.00    -0.369 OA
ATOM      2  O   UNL     1      -5.762 -11.840  18.961  0.00  0.00    -0.369 OA
ATOM      7  C   UNL     1      -6.035 -10.544  18.385  0.00  0.00    +0.170 C 
ATOM      8  C   UNL     1      -5.337 -10.510  17.040  0.00  0.00    +0.191 C 
ATOM      9  C   UNL     1      -7.504 -10.430  18.044  0.00  0.00    +0.111 C 
ATOM     10  C   UNL     1      -4.199 -11.481  17.238  0.00  0.00    +0.235 C 
ATOM     11  C   UNL     1      -7.568 -11.150  16.704  0.00  0.00    +0.181 C 
ATOM     12  C   UNL     1      -4.828 -12.535  18.122  0.00  0.00    +0.207 C 
BRANCH   9   5
ATOM      5  N   UNL     1      -7.910  -9.036  17.879  0.00  0.00    -0.309 NA
ATOM     29  H   UNL     1      -7.102  -8.474  17.610  0.00  0.00    +0.122 HD
BRANCH   5  13
ATOM     13  C   UNL     1      -8.947  -8.916  16.866  0.00  0.00    +0.081 C 
BRANCH  13  14
ATOM     14  C   UNL     1     -10.033  -7.947  17.335  0.00  0.00    +0.018 C 
BRANCH  14  15
ATOM     15  C   UNL     1     -11.045  -7.584  16.231  0.00  0.00    -0.016 C 
ATOM     17  C   UNL     1     -12.407  -8.203  16.552  0.00  0.00    +0.007 C 
ATOM     18  C   UNL     1     -11.196  -6.072  16.051  0.00  0.00    +0.007 C 
ENDBRANCH  14  15
ENDBRANCH  13  14
ENDBRANCH   5  13
ENDBRANCH   9   5
ENDBRANCH   3  10
BRANCH   3  16
ATOM      4  O   UNL     1      -2.254 -10.372  15.409  0.00  0.00    -0.226 OA
ATOM      6  N   UNL     1      -3.811 -11.271  13.910  0.00  0.00    -0.251 N 
ATOM     16  C   UNL     1      -3.167 -11.137  15.125  0.00  0.00    +0.405 C 
ATOM     30  H   UNL     1      -4.541 -11.972  13.902  0.00  0.00    +0.158 HD
BRANCH   6  19
ATOM     19  C   UNL     1      -3.569 -10.558  12.714  0.00  0.00    +0.044 A 
ATOM     20  C   UNL     1      -4.612  -9.959  12.003  0.00  0.00    +0.003 A 
ATOM     21  C   UNL     1      -2.252 -10.481  12.280  0.00  0.00    +0.024 A 
ATOM     22  C   UNL     1      -4.310  -9.257  10.811  0.00  0.00    -0.016 A 
ATOM     23  C   UNL     1      -5.946 -10.032  12.437  0.00  0.00    +0.010 A 
ATOM     24  C   UNL     1      -1.955  -9.791  11.107  0.00  0.00    +0.002 A 
ATOM     25  C   UNL     1      -2.976  -9.183  10.377  0.00  0.00    +0.008 A 
ATOM     26  C   UNL     1      -5.350  -8.651  10.088  0.00  0.00    +0.008 A 
ATOM     27  C   UNL     1      -6.967  -9.425  11.706  0.00  0.00    +0.001 A 
ATOM     28  C   UNL     1      -6.670  -8.735  10.534  0.00  0.00    +0.001 A 
ENDBRANCH   6  19
ENDBRANCH   3  16
TORSDOF 7
ENDMDL
MODEL 3
REMARK VINA RESULT:      -6.4     27.737     30.096
REMARK  Name = 11884596
REMARK  9 active torsions:
REMARK  status: ('A' for Active; 'I' for Inactive)
REMARK    1  A    between atoms: O_3  and  C_10
REMARK    2  A    between atoms: O_3  and  C_16
REMARK    3  A    between atoms: N_5  and  C_9
REMARK    4  A    between atoms: N_5  and  C_13
REMARK    5  A    between atoms: N_6  and  C_19
REMARK    6  A    between atoms: C_13  and  C_14
REMARK    7  A    between atoms: C_14  and  C_15
REMARK    8  A    between atoms: C_15  and  C_17
REMARK    9  A    between atoms: C_15  and  C_18
REMARK                            x       y       z     vdW  Elec       q    Type
REMARK                         _______ _______ _______ _____ _____    ______ ____
ROOT
ATOM      3  O   UNL     1      17.442   7.912  20.333  0.00  0.00    -0.442 OA
ENDROOT
BRANCH   3  10
ATOM      1  O   UNL     1      19.758   6.378  20.349  0.00  0.00    -0.369 OA
ATOM      2  O   UNL     1      20.030   8.190  22.793  0.00  0.00    -0.369 OA
ATOM      7  C   UNL     1      19.950   6.752  22.679  0.00  0.00    +0.170 C 
ATOM      8  C   UNL     1      18.978   6.458  21.554  0.00  0.00    +0.191 C 
ATOM      9  C   UNL     1      21.268   6.199  22.184  0.00  0.00    +0.111 C 
ATOM     10  C   UNL     1      18.089   7.679  21.563  0.00  0.00    +0.235 C 
ATOM     11  C   UNL     1      21.154   6.424  20.683  0.00  0.00    +0.181 C 
ATOM     12  C   UNL     1      19.064   8.781  21.912  0.00  0.00    +0.207 C 
BRANCH   9   5
ATOM      5  N   UNL     1      21.389   4.769  22.464  0.00  0.00    -0.309 NA
ATOM     29  H   UNL     1      20.460   4.365  22.583  0.00  0.00    +0.122 HD
BRANCH   5  13
ATOM     13  C   UNL     1      22.084   4.088  21.383  0.00  0.00    +0.081 C 
BRANCH  13  14
ATOM     14  C   UNL     1      23.098   3.095  21.952  0.00  0.00    +0.018 C 
BRANCH  14  15
ATOM     15  C   UNL     1      23.697   2.156  20.887  0.00  0.00    -0.016 C 
ATOM     17  C   UNL     1      24.694   2.926  20.018  0.00  0.00    +0.007 C 
ATOM     18  C   UNL     1      24.384   0.936  21.502  0.00  0.00    +0.007 C 
ENDBRANCH  14  15
ENDBRANCH  13  14
ENDBRANCH   5  13
ENDBRANCH   9   5
ENDBRANCH   3  10
BRANCH   3  16
ATOM      4  O   UNL     1      15.917   6.256  19.932  0.00  0.00    -0.226 OA
ATOM      6  N   UNL     1      15.252   8.447  20.419  0.00  0.00    -0.251 N 
ATOM     16  C   UNL     1      16.157   7.426  20.201  0.00  0.00    +0.405 C 
ATOM     30  H   UNL     1      15.677   9.341  20.629  0.00  0.00    +0.158 HD
BRANCH   6  19
ATOM     19  C   UNL     1      13.841   8.380  20.381  0.00  0.00    +0.044 A 
ATOM     20  C   UNL     1      13.137   8.570  19.188  0.00  0.00    +0.003 A 
ATOM     21  C   UNL     1      13.188   8.121  21.579  0.00  0.00    +0.024 A 
ATOM     22  C   UNL     1      11.723   8.493  19.211  0.00  0.00    -0.016 A 
ATOM     23  C   UNL     1      13.791   8.833  17.973  0.00  0.00    +0.010 A 
ATOM     24  C   UNL     1      11.798   8.044  21.601  0.00  0.00    +0.002 A 
ATOM     25  C   UNL     1      11.070   8.230  20.426  0.00  0.00    +0.008 A 
ATOM     26  C   UNL     1      11.007   8.682  18.019  0.00  0.00    +0.008 A 
ATOM     27  C   UNL     1      13.063   9.018  16.798  0.00  0.00    +0.001 A 
ATOM     28  C   UNL     1      11.673   8.943  16.820  0.00  0.00    +0.001 A 
ENDBRANCH   6  19
ENDBRANCH   3  16
TORSDOF 7
ENDMDL
MODEL 4
REMARK VINA RESULT:      -6.4     27.640     29.223
REMARK  Name = 11884596
REMARK  9 active torsions:
REMARK  status: ('A' for Active; 'I' for Inactive)
REMARK    1  A    between atoms: O_3  and  C_10
REMARK    2  A    between atoms: O_3  and  C_16
REMARK    3  A    between atoms: N_5  and  C_9
REMARK    4  A    between atoms: N_5  and  C_13
REMARK    5  A    between atoms: N_6  and  C_19
REMARK    6  A    between atoms: C_13  and  C_14
REMARK    7  A    between atoms: C_14  and  C_15
REMARK    8  A    between atoms: C_15  and  C_17
REMARK    9  A    between atoms: C_15  and  C_18
REMARK                            x       y       z     vdW  Elec       q    Type
REMARK                         _______ _______ _______ _____ _____    ______ ____
ROOT
ATOM      3  O   UNL     1      14.631   7.435  19.272  0.00  0.00    -0.442 OA
ENDROOT
BRANCH   3  10
ATOM      1  O   UNL     1      13.043   9.250  20.653  0.00  0.00    -0.369 OA
ATOM      2  O   UNL     1      11.360   6.703  20.535  0.00  0.00    -0.369 OA
ATOM      7  C   UNL     1      11.900   7.434  21.657  0.00  0.00    +0.170 C 
ATOM      8  C   UNL     1      13.260   7.949  21.227  0.00  0.00    +0.191 C 
ATOM      9  C   UNL     1      11.088   8.688  21.896  0.00  0.00    +0.111 C 
ATOM     10  C   UNL     1      13.675   6.940  20.183  0.00  0.00    +0.235 C 
ATOM     11  C   UNL     1      11.677   9.640  20.865  0.00  0.00    +0.181 C 
ATOM     12  C   UNL     1      12.360   6.618  19.509  0.00  0.00    +0.207 C 
BRANCH   9   5
ATOM      5  N   UNL     1      11.304   9.218  23.241  0.00  0.00    -0.309 NA
ATOM     29  H   UNL     1      12.269   9.052  23.523  0.00  0.00    +0.122 HD
BRANCH   5  13
ATOM     13  C   UNL     1      11.021  10.644  23.286  0.00  0.00    +0.081 C 
BRANCH  13  14
ATOM     14  C   UNL     1      11.141  11.161  24.720  0.00  0.00    +0.018 C 
BRANCH  14  15
ATOM     15  C   UNL     1      11.348  12.686  24.804  0.00  0.00    -0.016 C 
ATOM     17  C   UNL     1      12.633  13.076  24.071  0.00  0.00    +0.007 C 
ATOM     18  C   UNL     1      10.167  13.469  24.227  0.00  0.00    +0.007 C 
ENDBRANCH  14  15
ENDBRANCH  13  14
ENDBRANCH   5  13
ENDBRANCH   9   5
ENDBRANCH   3  10
BRANCH   3  16
ATOM      4  O   UNL     1      16.204   5.924  18.588  0.00  0.00    -0.226 OA
ATOM      6  N   UNL     1      16.660   7.504  20.253  0.00  0.00    -0.251 N 
ATOM     16  C   UNL     1      15.884   6.861  19.309  0.00  0.00    +0.405 C 
ATOM     30  H   UNL     1      16.188   8.259  20.735  0.00  0.00    +0.158 HD
BRANCH   6  19
ATOM     19  C   UNL     1      18.000   7.233  20.609  0.00  0.00    +0.044 A 
ATOM     20  C   UNL     1      18.769   8.165  21.312  0.00  0.00    +0.003 A 
ATOM     21  C   UNL     1      18.518   6.001  20.229  0.00  0.00    +0.024 A 
ATOM     22  C   UNL     1      20.106   7.838  21.641  0.00  0.00    -0.016 A 
ATOM     23  C   UNL     1      18.251   9.413  21.699  0.00  0.00    +0.010 A 
ATOM     24  C   UNL     1      19.834   5.679  20.552  0.00  0.00    +0.002 A 
ATOM     25  C   UNL     1      20.623   6.592  21.253  0.00  0.00    +0.008 A 
ATOM     26  C   UNL     1      20.887   8.768  22.346  0.00  0.00    +0.008 A 
ATOM     27  C   UNL     1      19.042  10.324  22.400  0.00  0.00    +0.001 A 
ATOM     28  C   UNL     1      20.357  10.003  22.722  0.00  0.00    +0.001 A 
ENDBRANCH   6  19
ENDBRANCH   3  16
TORSDOF 7
ENDMDL
MODEL 5
REMARK VINA RESULT:      -6.3      1.562      7.392
REMARK  Name = 11884596
REMARK  9 active torsions:
REMARK  status: ('A' for Active; 'I' for Inactive)
REMARK    1  A    between atoms: O_3  and  C_10
REMARK    2  A    between atoms: O_3  and  C_16
REMARK    3  A    between atoms: N_5  and  C_9
REMARK    4  A    between atoms: N_5  and  C_13
REMARK    5  A    between atoms: N_6  and  C_19
REMARK    6  A    between atoms: C_13  and  C_14
REMARK    7  A    between atoms: C_14  and  C_15
REMARK    8  A    between atoms: C_15  and  C_17
REMARK    9  A    between atoms: C_15  and  C_18
REMARK                            x       y       z     vdW  Elec       q    Type
REMARK                         _______ _______ _______ _____ _____    ______ ____
ROOT
ATOM      3  O   UNL     1      -5.139 -10.869  18.278  0.00  0.00    -0.442 OA
ENDROOT
BRANCH   3  10
ATOM      1  O   UNL     1      -3.127 -10.382  16.425  0.00  0.00    -0.369 OA
ATOM      2  O   UNL     1      -4.521 -12.895  15.390  0.00  0.00    -0.369 OA
ATOM      7  C   UNL     1      -4.373 -11.582  14.807  0.00  0.00    +0.170 C 
ATOM      8  C   UNL     1      -4.468 -10.587  15.947  0.00  0.00    +0.191 C 
ATOM      9  C   UNL     1      -2.966 -11.407  14.279  0.00  0.00    +0.111 C 
ATOM     10  C   UNL     1      -5.313 -11.327  16.956  0.00  0.00    +0.235 C 
ATOM     11  C   UNL     1      -2.203 -11.041  15.544  0.00  0.00    +0.181 C 
ATOM     12  C   UNL     1      -4.844 -12.754  16.781  0.00  0.00    +0.207 C 
BRANCH   9   5
ATOM      5  N   UNL     1      -2.887 -10.310  13.316  0.00  0.00    -0.309 NA
ATOM     29  H   UNL     1      -1.932  -9.954  13.282  0.00  0.00    +0.122 HD
BRANCH   5  13
ATOM     13  C   UNL     1      -3.290 -10.755  11.992  0.00  0.00    +0.081 C 
BRANCH  13  14
ATOM     14  C   UNL     1      -2.639  -9.879  10.920  0.00  0.00    +0.018 C 
BRANCH  14  15
ATOM     15  C   UNL     1      -3.644  -9.318   9.897  0.00  0.00    -0.016 C 
ATOM     17  C   UNL     1      -4.274 -10.466   9.105  0.00  0.00    +0.007 C 
ATOM     18  C   UNL     1      -4.743  -8.481  10.555  0.00  0.00    +0.007 C 
ENDBRANCH  14  15
ENDBRANCH  13  14
ENDBRANCH   5  13
ENDBRANCH   9   5
ENDBRANCH   3  10
BRANCH   3  16
ATOM      4  O   UNL     1      -6.260 -10.253  20.173  0.00  0.00    -0.226 OA
ATOM      6  N   UNL     1      -7.384 -10.690  18.168  0.00  0.00    -0.251 N 
ATOM     16  C   UNL     1      -6.282 -10.571  18.991  0.00  0.00    +0.405 C 
ATOM     30  H   UNL     1      -7.166 -10.967  17.218  0.00  0.00    +0.158 HD
BRANCH   6  19
ATOM     19  C   UNL     1      -8.742 -10.476  18.495  0.00  0.00    +0.044 A 
ATOM     20  C   UNL     1      -9.518  -9.542  17.803  0.00  0.00    +0.003 A 
ATOM     21  C   UNL     1      -9.267 -11.231  19.536  0.00  0.00    +0.024 A 
ATOM     22  C   UNL     1     -10.873  -9.370  18.176  0.00  0.00    -0.016 A 
ATOM     23  C   UNL     1      -8.992  -8.775  16.750  0.00  0.00    +0.010 A 
ATOM     24  C   UNL     1     -10.600 -11.062  19.903  0.00  0.00    +0.002 A 
ATOM     25  C   UNL     1     -11.397 -10.137  19.229  0.00  0.00    +0.008 A 
ATOM     26  C   UNL     1     -11.661  -8.434  17.487  0.00  0.00    +0.008 A 
ATOM     27  C   UNL     1      -9.790  -7.850  16.076  0.00  0.00    +0.001 A 
ATOM     28  C   UNL     1     -11.122  -7.680  16.444  0.00  0.00    +0.001 A 
ENDBRANCH   6  19
ENDBRANCH   3  16
TORSDOF 7
ENDMDL
MODEL 6
REMARK VINA RESULT:      -6.3      4.426      7.484
REMARK  Name = 11884596
REMARK  9 active torsions:
REMARK  status: ('A' for Active; 'I' for Inactive)
REMARK    1  A    between atoms: O_3  and  C_10
REMARK    2  A    between atoms: O_3  and  C_16
REMARK    3  A    between atoms: N_5  and  C_9
REMARK    4  A    between atoms: N_5  and  C_13
REMARK    5  A    between atoms: N_6  and  C_19
REMARK    6  A    between atoms: C_13  and  C_14
REMARK    7  A    between atoms: C_14  and  C_15
REMARK    8  A    between atoms: C_15  and  C_17
REMARK    9  A    between atoms: C_15  and  C_18
REMARK                            x       y       z     vdW  Elec       q    Type
REMARK                         _______ _______ _______ _____ _____    ______ ____
ROOT
ATOM      3  O   UNL     1     -10.042  -8.914  17.602  0.00  0.00    -0.442 OA
ENDROOT
BRANCH   3  10
ATOM      1  O   UNL     1     -11.249  -6.623  16.593  0.00  0.00    -0.369 OA
ATOM      2  O   UNL     1     -11.054  -8.501  14.191  0.00  0.00    -0.369 OA
ATOM      7  C   UNL     1     -12.199  -7.928  14.860  0.00  0.00    +0.170 C 
ATOM      8  C   UNL     1     -11.868  -7.896  16.339  0.00  0.00    +0.191 C 
ATOM      9  C   UNL     1     -12.343  -6.471  14.481  0.00  0.00    +0.111 C 
ATOM     10  C   UNL     1     -10.884  -9.033  16.478  0.00  0.00    +0.235 C 
ATOM     11  C   UNL     1     -11.340  -5.807  15.414  0.00  0.00    +0.181 C 
ATOM     12  C   UNL     1     -10.115  -8.950  15.179  0.00  0.00    +0.207 C 
BRANCH   9   5
ATOM      5  N   UNL     1     -13.688  -5.973  14.763  0.00  0.00    -0.309 NA
ATOM     29  H   UNL     1     -13.627  -5.093  15.273  0.00  0.00    +0.122 HD
BRANCH   5  13
ATOM     13  C   UNL     1     -14.434  -5.772  13.530  0.00  0.00    +0.081 C 
BRANCH  13  14
ATOM     14  C   UNL     1     -14.431  -4.292  13.148  0.00  0.00    +0.018 C 
BRANCH  14  15
ATOM     15  C   UNL     1     -13.616  -3.991  11.875  0.00  0.00    -0.016 C 
ATOM     17  C   UNL     1     -14.388  -3.017  10.983  0.00  0.00    +0.007 C 
ATOM     18  C   UNL     1     -12.233  -3.419  12.188  0.00  0.00    +0.007 C 
ENDBRANCH  14  15
ENDBRANCH  13  14
ENDBRANCH   5  13
ENDBRANCH   9   5
ENDBRANCH   3  10
BRANCH   3  16
ATOM      4  O   UNL     1      -9.535 -11.125  17.888  0.00  0.00    -0.226 OA
ATOM      6  N   UNL     1      -7.893  -9.462  18.013  0.00  0.00    -0.251 N 
ATOM     16  C   UNL     1      -9.172  -9.957  17.844  0.00  0.00    +0.405 C 
ATOM     30  H   UNL     1      -7.823  -8.455  17.933  0.00  0.00    +0.158 HD
BRANCH   6  19
ATOM     19  C   UNL     1      -6.709 -10.185  18.279  0.00  0.00    +0.044 A 
ATOM     20  C   UNL     1      -5.764 -10.424  17.277  0.00  0.00    +0.003 A 
ATOM     21  C   UNL     1      -6.529 -10.648  19.576  0.00  0.00    +0.024 A 
ATOM     22  C   UNL     1      -4.596 -11.155  17.602  0.00  0.00    -0.016 A 
ATOM     23  C   UNL     1      -5.940  -9.958  15.963  0.00  0.00    +0.010 A 
ATOM     24  C   UNL     1      -5.380 -11.367  19.895  0.00  0.00    +0.002 A 
ATOM     25  C   UNL     1      -4.420 -11.620  18.915  0.00  0.00    +0.008 A 
ATOM     26  C   UNL     1      -3.640 -11.401  16.603  0.00  0.00    +0.008 A 
ATOM     27  C   UNL     1      -4.979 -10.212  14.984  0.00  0.00    +0.001 A 
ATOM     28  C   UNL     1      -3.832 -10.931  15.303  0.00  0.00    +0.001 A 
ENDBRANCH   6  19
ENDBRANCH   3  16
TORSDOF 7
ENDMDL
MODEL 7
REMARK VINA RESULT:      -6.3      2.275      4.576
REMARK  Name = 11884596
REMARK  9 active torsions:
REMARK  status: ('A' for Active; 'I' for Inactive)
REMARK    1  A    between atoms: O_3  and  C_10
REMARK    2  A    between atoms: O_3  and  C_16
REMARK    3  A    between atoms: N_5  and  C_9
REMARK    4  A    between atoms: N_5  and  C_13
REMARK    5  A    between atoms: N_6  and  C_19
REMARK    6  A    between atoms: C_13  and  C_14
REMARK    7  A    between atoms: C_14  and  C_15
REMARK    8  A    between atoms: C_15  and  C_17
REMARK    9  A    between atoms: C_15  and  C_18
REMARK                            x       y       z     vdW  Elec       q    Type
REMARK                         _______ _______ _______ _____ _____    ______ ____
ROOT
ATOM      3  O   UNL     1      -8.706  -9.306  13.535  0.00  0.00    -0.442 OA
ENDROOT
BRANCH   3  10
ATOM      1  O   UNL     1      -7.632  -9.406  16.095  0.00  0.00    -0.369 OA
ATOM      2  O   UNL     1     -10.516 -10.353  16.443  0.00  0.00    -0.369 OA
ATOM      7  C   UNL     1      -9.259 -11.025  16.678  0.00  0.00    +0.170 C 
ATOM      8  C   UNL     1      -8.311 -10.568  15.588  0.00  0.00    +0.191 C 
ATOM      9  C   UNL     1      -8.630 -10.513  17.955  0.00  0.00    +0.111 C 
ATOM     10  C   UNL     1      -9.253 -10.217  14.461  0.00  0.00    +0.235 C 
ATOM     11  C   UNL     1      -7.968  -9.228  17.481  0.00  0.00    +0.181 C 
ATOM     12  C   UNL     1     -10.434  -9.634  15.203  0.00  0.00    +0.207 C 
BRANCH   9   5
ATOM      5  N   UNL     1      -7.617 -11.437  18.462  0.00  0.00    -0.309 NA
ATOM     29  H   UNL     1      -7.247 -11.994  17.692  0.00  0.00    +0.122 HD
BRANCH   5  13
ATOM     13  C   UNL     1      -6.532 -10.712  19.104  0.00  0.00    +0.081 C 
BRANCH  13  14
ATOM     14  C   UNL     1      -5.312 -11.620  19.262  0.00  0.00    +0.018 C 
BRANCH  14  15
ATOM     15  C   UNL     1      -4.407 -11.649  18.015  0.00  0.00    -0.016 C 
ATOM     17  C   UNL     1      -4.811 -12.814  17.108  0.00  0.00    +0.007 C 
ATOM     18  C   UNL     1      -4.458 -10.340  17.226  0.00  0.00    +0.007 C 
ENDBRANCH  14  15
ENDBRANCH  13  14
ENDBRANCH   5  13
ENDBRANCH   9   5
ENDBRANCH   3  10
BRANCH   3  16
ATOM      4  O   UNL     1      -8.073 -10.808  11.930  0.00  0.00    -0.226 OA
ATOM      6  N   UNL     1      -6.680  -9.042  12.580  0.00  0.00    -0.251 N 
ATOM     16  C   UNL     1      -7.824  -9.816  12.604  0.00  0.00    +0.405 C 
ATOM     30  H   UNL     1      -6.691  -8.264  13.227  0.00  0.00    +0.158 HD
BRANCH   6  19
ATOM     19  C   UNL     1      -5.532  -9.213  11.774  0.00  0.00    +0.044 A 
ATOM     20  C   UNL     1      -4.446  -9.977  12.211  0.00  0.00    +0.003 A 
ATOM     21  C   UNL     1      -5.531  -8.588  10.534  0.00  0.00    +0.024 A 
ATOM     22  C   UNL     1      -3.322 -10.113  11.361  0.00  0.00    -0.016 A 
ATOM     23  C   UNL     1      -4.440 -10.612  13.464  0.00  0.00    +0.010 A 
ATOM     24  C   UNL     1      -4.426  -8.722   9.698  0.00  0.00    +0.002 A 
ATOM     25  C   UNL     1      -3.328  -9.478  10.108  0.00  0.00    +0.008 A 
ATOM     26  C   UNL     1      -2.225 -10.877  11.790  0.00  0.00    +0.008 A 
ATOM     27  C   UNL     1      -3.341 -11.367  13.874  0.00  0.00    +0.001 A 
ATOM     28  C   UNL     1      -2.236 -11.501  13.038  0.00  0.00    +0.001 A 
ENDBRANCH   6  19
ENDBRANCH   3  16
TORSDOF 7
ENDMDL
MODEL 8
REMARK VINA RESULT:      -6.1     27.791     30.073
REMARK  Name = 11884596
REMARK  9 active torsions:
REMARK  status: ('A' for Active; 'I' for Inactive)
REMARK    1  A    between atoms: O_3  and  C_10
REMARK    2  A    between atoms: O_3  and  C_16
REMARK    3  A    between atoms: N_5  and  C_9
REMARK    4  A    between atoms: N_5  and  C_13
REMARK    5  A    between atoms: N_6  and  C_19
REMARK    6  A    between atoms: C_13  and  C_14
REMARK    7  A    between atoms: C_14  and  C_15
REMARK    8  A    between atoms: C_15  and  C_17
REMARK    9  A    between atoms: C_15  and  C_18
REMARK                            x       y       z     vdW  Elec       q    Type
REMARK                         _______ _______ _______ _____ _____    ______ ____
ROOT
ATOM      3  O   UNL     1      16.510   7.082  19.954  0.00  0.00    -0.442 OA
ENDROOT
BRANCH   3  10
ATOM      1  O   UNL     1      19.081   6.072  20.248  0.00  0.00    -0.369 OA
ATOM      2  O   UNL     1      18.995   8.486  22.117  0.00  0.00    -0.369 OA
ATOM      7  C   UNL     1      19.197   7.082  22.387  0.00  0.00    +0.170 C 
ATOM      8  C   UNL     1      18.301   6.321  21.430  0.00  0.00    +0.191 C 
ATOM      9  C   UNL     1      20.598   6.675  21.985  0.00  0.00    +0.111 C 
ATOM     10  C   UNL     1      17.191   7.311  21.167  0.00  0.00    +0.235 C 
ATOM     11  C   UNL     1      20.442   6.467  20.485  0.00  0.00    +0.181 C 
ATOM     12  C   UNL     1      17.932   8.629  21.165  0.00  0.00    +0.207 C 
BRANCH   9   5
ATOM      5  N   UNL     1      20.996   5.420  22.622  0.00  0.00    -0.309 NA
ATOM     29  H   UNL     1      20.165   4.911  22.923  0.00  0.00    +0.122 HD
BRANCH   5  13
ATOM     13  C   UNL     1      21.767   4.597  21.704  0.00  0.00    +0.081 C 
BRANCH  13  14
ATOM     14  C   UNL     1      22.095   3.251  22.352  0.00  0.00    +0.018 C 
BRANCH  14  15
ATOM     15  C   UNL     1      23.569   2.834  22.179  0.00  0.00    -0.016 C 
ATOM     17  C   UNL     1      23.873   1.625  23.066  0.00  0.00    +0.007 C 
ATOM     18  C   UNL     1      23.918   2.508  20.726  0.00  0.00    +0.007 C 
ENDBRANCH  14  15
ENDBRANCH  13  14
ENDBRANCH   5  13
ENDBRANCH   9   5
ENDBRANCH   3  10
BRANCH   3  16
ATOM      4  O   UNL     1      14.725   8.032  18.885  0.00  0.00    -0.226 OA
ATOM      6  N   UNL     1      14.563   7.241  21.083  0.00  0.00    -0.251 N 
ATOM     16  C   UNL     1      15.199   7.507  19.885  0.00  0.00    +0.405 C 
ATOM     30  H   UNL     1      15.152   6.797  21.776  0.00  0.00    +0.158 HD
BRANCH   6  19
ATOM     19  C   UNL     1      13.222   7.514  21.435  0.00  0.00    +0.044 A 
ATOM     20  C   UNL     1      12.842   8.761  21.937  0.00  0.00    +0.003 A 
ATOM     21  C   UNL     1      12.302   6.488  21.260  0.00  0.00    +0.024 A 
ATOM     22  C   UNL     1      11.483   8.976  22.273  0.00  0.00    -0.016 A 
ATOM     23  C   UNL     1      13.767   9.803  22.116  0.00  0.00    +0.010 A 
ATOM     24  C   UNL     1      10.966   6.699  21.590  0.00  0.00    +0.002 A 
ATOM     25  C   UNL     1      10.559   7.935  22.094  0.00  0.00    +0.008 A 
ATOM     26  C   UNL     1      11.091  10.226  22.779  0.00  0.00    +0.008 A 
ATOM     27  C   UNL     1      13.359  11.038  22.620  0.00  0.00    +0.001 A 
ATOM     28  C   UNL     1      12.024  11.249  22.951  0.00  0.00    +0.001 A 
ENDBRANCH   6  19
ENDBRANCH   3  16
TORSDOF 7
ENDMDL
MODEL 9
REMARK VINA RESULT:      -6.1     26.934     28.526
REMARK  Name = 11884596
REMARK  9 active torsions:
REMARK  status: ('A' for Active; 'I' for Inactive)
REMARK    1  A    between atoms: O_3  and  C_10
REMARK    2  A    between atoms: O_3  and  C_16
REMARK    3  A    between atoms: N_5  and  C_9
REMARK    4  A    between atoms: N_5  and  C_13
REMARK    5  A    between atoms: N_6  and  C_19
REMARK    6  A    between atoms: C_13  and  C_14
REMARK    7  A    between atoms: C_14  and  C_15
REMARK    8  A    between atoms: C_15  and  C_17
REMARK    9  A    between atoms: C_15  and  C_18
REMARK                            x       y       z     vdW  Elec       q    Type
REMARK                         _______ _______ _______ _____ _____    ______ ____
ROOT
ATOM      3  O   UNL     1      14.117   7.719  17.056  0.00  0.00    -0.442 OA
ENDROOT
BRANCH   3  10
ATOM      1  O   UNL     1      12.566   7.530  19.353  0.00  0.00    -0.369 OA
ATOM      2  O   UNL     1      15.412   6.966  20.309  0.00  0.00    -0.369 OA
ATOM      7  C   UNL     1      14.486   8.021  20.649  0.00  0.00    +0.170 C 
ATOM      8  C   UNL     1      13.735   8.367  19.379  0.00  0.00    +0.191 C 
ATOM      9  C   UNL     1      13.417   7.490  21.579  0.00  0.00    +0.111 C 
ATOM     10  C   UNL     1      14.721   7.983  18.302  0.00  0.00    +0.235 C 
ATOM     11  C   UNL     1      12.457   6.827  20.601  0.00  0.00    +0.181 C 
ATOM     12  C   UNL     1      15.374   6.753  18.891  0.00  0.00    +0.207 C 
BRANCH   9   5
ATOM      5  N   UNL     1      12.736   8.573  22.287  0.00  0.00    -0.309 NA
ATOM     29  H   UNL     1      12.893   9.453  21.797  0.00  0.00    +0.122 HD
BRANCH   5  13
ATOM     13  C   UNL     1      11.307   8.313  22.377  0.00  0.00    +0.081 C 
BRANCH  13  14
ATOM     14  C   UNL     1      10.529   9.629  22.350  0.00  0.00    +0.018 C 
BRANCH  14  15
ATOM     15  C   UNL     1      11.355  10.836  22.833  0.00  0.00    -0.016 C 
ATOM     17  C   UNL     1      11.320  11.944  21.778  0.00  0.00    +0.007 C 
ATOM     18  C   UNL     1      10.859  11.385  24.173  0.00  0.00    +0.007 C 
ENDBRANCH  14  15
ENDBRANCH  13  14
ENDBRANCH   5  13
ENDBRANCH   9   5
ENDBRANCH   3  10
BRANCH   3  16
ATOM      4  O   UNL     1      12.832   8.807  15.508  0.00  0.00    -0.226 OA
ATOM      6  N   UNL     1      14.668   9.842  16.527  0.00  0.00    -0.251 N 
ATOM     16  C   UNL     1      13.783   8.810  16.280  0.00  0.00    +0.405 C 
ATOM     30  H   UNL     1      15.382   9.622  17.211  0.00  0.00    +0.158 HD
BRANCH   6  19
ATOM     19  C   UNL     1      14.685  11.130  15.948  0.00  0.00    +0.044 A 
ATOM     20  C   UNL     1      14.261  12.254  16.663  0.00  0.00    +0.003 A 
ATOM     21  C   UNL     1      15.140  11.228  14.639  0.00  0.00    +0.024 A 
ATOM     22  C   UNL     1      14.300  13.520  16.030  0.00  0.00    -0.016 A 
ATOM     23  C   UNL     1      13.799  12.162  17.986  0.00  0.00    +0.010 A 
ATOM     24  C   UNL     1      15.179  12.473  14.017  0.00  0.00    +0.002 A 
ATOM     25  C   UNL     1      14.762  13.612  14.707  0.00  0.00    +0.008 A 
ATOM     26  C   UNL     1      13.876  14.655  16.739  0.00  0.00    +0.008 A 
ATOM     27  C   UNL     1      13.382  13.300  18.675  0.00  0.00    +0.001 A 
ATOM     28  C   UNL     1      13.420  14.545  18.053  0.00  0.00    +0.001 A 
ENDBRANCH   6  19
ENDBRANCH   3  16
TORSDOF 7
ENDMDL
MODEL 10
REMARK VINA RESULT:      -6.0     28.128     30.420
REMARK  Name = 11884596
REMARK  9 active torsions:
REMARK  status: ('A' for Active; 'I' for Inactive)
REMARK    1  A    between atoms: O_3  and  C_10
REMARK    2  A    between atoms: O_3  and  C_16
REMARK    3  A    between atoms: N_5  and  C_9
REMARK    4  A    between atoms: N_5  and  C_13
REMARK    5  A    between atoms: N_6  and  C_19
REMARK    6  A    between atoms: C_13  and  C_14
REMARK    7  A    between atoms: C_14  and  C_15
REMARK    8  A    between atoms: C_15  and  C_17
REMARK    9  A    between atoms: C_15  and  C_18
REMARK                            x       y       z     vdW  Elec       q    Type
REMARK                         _______ _______ _______ _____ _____    ______ ____
ROOT
ATOM      3  O   UNL     1      17.069   7.539  20.264  0.00  0.00    -0.442 OA
ENDROOT
BRANCH   3  10
ATOM      1  O   UNL     1      19.392   6.026  20.451  0.00  0.00    -0.369 OA
ATOM      2  O   UNL     1      19.939   8.477  22.190  0.00  0.00    -0.369 OA
ATOM      7  C   UNL     1      19.867   7.073  22.521  0.00  0.00    +0.170 C 
ATOM      8  C   UNL     1      18.767   6.479  21.664  0.00  0.00    +0.191 C 
ATOM      9  C   UNL     1      21.122   6.367  22.055  0.00  0.00    +0.111 C 
ATOM     10  C   UNL     1      17.868   7.668  21.418  0.00  0.00    +0.235 C 
ATOM     11  C   UNL     1      20.819   6.138  20.582  0.00  0.00    +0.181 C 
ATOM     12  C   UNL     1      18.862   8.801  21.300  0.00  0.00    +0.207 C 
BRANCH   9   5
ATOM      5  N   UNL     1      21.298   5.084  22.732  0.00  0.00    -0.309 NA
ATOM     29  H   UNL     1      20.415   4.796  23.154  0.00  0.00    +0.122 HD
BRANCH   5  13
ATOM     13  C   UNL     1      21.748   4.064  21.797  0.00  0.00    +0.081 C 
BRANCH  13  14
ATOM     14  C   UNL     1      22.785   3.159  22.463  0.00  0.00    +0.018 C 
BRANCH  14  15
ATOM     15  C   UNL     1      24.046   2.941  21.605  0.00  0.00    -0.016 C 
ATOM     17  C   UNL     1      24.064   1.510  21.063  0.00  0.00    +0.007 C 
ATOM     18  C   UNL     1      24.142   3.933  20.444  0.00  0.00    +0.007 C 
ENDBRANCH  14  15
ENDBRANCH  13  14
ENDBRANCH   5  13
ENDBRANCH   9   5
ENDBRANCH   3  10
BRANCH   3  16
ATOM      4  O   UNL     1      15.419   8.709  19.199  0.00  0.00    -0.226 OA
ATOM      6  N   UNL     1      15.389   8.375  21.515  0.00  0.00    -0.251 N 
ATOM     16  C   UNL     1      15.894   8.261  20.235  0.00  0.00    +0.405 C 
ATOM     30  H   UNL     1      15.951   7.923  22.225  0.00  0.00    +0.158 HD
BRANCH   6  19
ATOM     19  C   UNL     1      14.209   9.032  21.930  0.00  0.00    +0.044 A 
ATOM     20  C   UNL     1      12.966   8.396  21.879  0.00  0.00    +0.003 A 
ATOM     21  C   UNL     1      14.341  10.338  22.386  0.00  0.00    +0.024 A 
ATOM     22  C   UNL     1      11.818   9.105  22.308  0.00  0.00    -0.016 A 
ATOM     23  C   UNL     1      12.826   7.076  21.419  0.00  0.00    +0.010 A 
ATOM     24  C   UNL     1      13.212  11.035  22.807  0.00  0.00    +0.002 A 
ATOM     25  C   UNL     1      11.958  10.424  22.768  0.00  0.00    +0.008 A 
ATOM     26  C   UNL     1      10.565   8.474  22.261  0.00  0.00    +0.008 A 
ATOM     27  C   UNL     1      11.573   6.465  21.380  0.00  0.00    +0.001 A 
ATOM     28  C   UNL     1      10.444   7.162  21.800  0.00  0.00    +0.001 A 
ENDBRANCH   6  19
ENDBRANCH   3  16
TORSDOF 7
ENDMDL
