MODEL 1
REMARK VINA RESULT:      -7.5      0.000      0.000
REMARK  Name = 75536116
REMARK  6 active torsions:
REMARK  status: ('A' for Active; 'I' for Inactive)
REMARK    1  A    between atoms: O_1  and  C_8
REMARK    2  A    between atoms: O_2  and  C_12
REMARK    3  A    between atoms: N_3  and  C_5
REMARK    4  A    between atoms: N_3  and  C_13
REMARK    5  A    between atoms: C_6  and  C_13
REMARK    6  A    between atoms: C_7  and  C_14
REMARK                            x       y       z     vdW  Elec       q    Type
REMARK                         _______ _______ _______ _____ _____    ______ ____
ROOT
ATOM      5  C   UNL     1      -1.378   1.714  23.738  0.00  0.00    +0.092 C 
ATOM      7  C   UNL     1      -2.085   1.007  24.936  0.00  0.00    +0.042 C 
ATOM      8  C   UNL     1      -0.014   2.161  24.286  0.00  0.00    +0.160 C 
ATOM     11  C   UNL     1      -1.102   1.098  26.118  0.00  0.00    +0.043 C 
ATOM     12  C   UNL     1      -0.250   2.314  25.785  0.00  0.00    +0.145 C 
ENDROOT
BRANCH   7  14
ATOM      4  N   UNL     1      -1.988  -2.758  24.483  0.00  0.00    -0.263 NA
ATOM     14  C   UNL     1      -2.534  -0.408  24.640  0.00  0.00    -0.025 A 
ATOM     15  C   UNL     1      -3.845  -0.680  24.264  0.00  0.00    +0.007 A 
ATOM     16  C   UNL     1      -1.652  -1.472  24.734  0.00  0.00    +0.114 A 
ATOM     17  C   UNL     1      -4.229  -1.990  23.998  0.00  0.00    +0.020 A 
ATOM     18  C   UNL     1      -3.271  -2.984  24.121  0.00  0.00    +0.111 A 
ENDBRANCH   7  14
BRANCH   8   1
ATOM      1  O   UNL     1       0.936   1.128  24.027  0.00  0.00    -0.388 OA
ATOM     20  H   UNL     1       0.764   0.793  23.130  0.00  0.00    +0.210 HD
ENDBRANCH   8   1
BRANCH  12   2
ATOM      2  O   UNL     1       0.952   2.323  26.527  0.00  0.00    -0.389 OA
ATOM     21  H   UNL     1       1.332   3.215  26.458  0.00  0.00    +0.210 HD
ENDBRANCH  12   2
BRANCH   5   3
ATOM      3  N   UNL     1      -2.159   2.883  23.329  0.00  0.00    -0.310 NA
ATOM     19  H   UNL     1      -2.002   3.061  22.337  0.00  0.00    +0.122 HD
BRANCH   3  13
ATOM     13  C   UNL     1      -3.582   2.657  23.539  0.00  0.00    +0.084 C 
BRANCH  13   6
ATOM      6  C   UNL     1      -4.174   3.709  24.421  0.00  0.00    +0.003 C 
ATOM      9  C   UNL     1      -3.662   3.899  25.821  0.00  0.00    +0.005 C 
ATOM     10  C   UNL     1      -5.030   3.319  25.594  0.00  0.00    +0.005 C 
ENDBRANCH  13   6
ENDBRANCH   3  13
ENDBRANCH   5   3
TORSDOF 6
ENDMDL
MODEL 2
REMARK VINA RESULT:      -6.8     15.633     18.382
REMARK  Name = 75536116
REMARK  6 active torsions:
REMARK  status: ('A' for Active; 'I' for Inactive)
REMARK    1  A    between atoms: O_1  and  C_8
REMARK    2  A    between atoms: O_2  and  C_12
REMARK    3  A    between atoms: N_3  and  C_5
REMARK    4  A    between atoms: N_3  and  C_13
REMARK    5  A    between atoms: C_6  and  C_13
REMARK    6  A    between atoms: C_7  and  C_14
REMARK                            x       y       z     vdW  Elec       q    Type
REMARK                         _______ _______ _______ _____ _____    ______ ____
ROOT
ATOM      5  C   UNL     1      13.247   7.109  20.771  0.00  0.00    +0.092 C 
ATOM      7  C   UNL     1      12.724   8.464  20.202  0.00  0.00    +0.042 C 
ATOM      8  C   UNL     1      12.010   6.420  21.367  0.00  0.00    +0.160 C 
ATOM     11  C   UNL     1      11.216   8.497  20.514  0.00  0.00    +0.043 C 
ATOM     12  C   UNL     1      11.077   7.575  21.717  0.00  0.00    +0.145 C 
ENDROOT
BRANCH   7  14
ATOM      4  N   UNL     1      13.556   7.732  16.574  0.00  0.00    -0.263 NA
ATOM     14  C   UNL     1      13.035   8.679  18.736  0.00  0.00    -0.025 A 
ATOM     15  C   UNL     1      13.091   9.960  18.197  0.00  0.00    +0.007 A 
ATOM     16  C   UNL     1      13.273   7.609  17.891  0.00  0.00    +0.114 A 
ATOM     17  C   UNL     1      13.379  10.128  16.847  0.00  0.00    +0.020 A 
ATOM     18  C   UNL     1      13.602   8.991  16.085  0.00  0.00    +0.111 A 
ENDBRANCH   7  14
BRANCH   8   1
ATOM      1  O   UNL     1      11.430   5.588  20.363  0.00  0.00    -0.388 OA
ATOM     20  H   UNL     1      12.084   4.905  20.137  0.00  0.00    +0.210 HD
ENDBRANCH   8   1
BRANCH  12   2
ATOM      2  O   UNL     1       9.739   7.159  21.898  0.00  0.00    -0.389 OA
ATOM     21  H   UNL     1       9.317   7.143  21.022  0.00  0.00    +0.210 HD
ENDBRANCH  12   2
BRANCH   5   3
ATOM      3  N   UNL     1      14.231   7.367  21.825  0.00  0.00    -0.310 NA
ATOM     19  H   UNL     1      13.850   7.064  22.721  0.00  0.00    +0.122 HD
BRANCH   3  13
ATOM     13  C   UNL     1      15.465   6.635  21.574  0.00  0.00    +0.084 C 
BRANCH  13   6
ATOM      6  C   UNL     1      16.155   7.139  20.348  0.00  0.00    +0.003 C 
ATOM      9  C   UNL     1      16.461   6.203  19.213  0.00  0.00    +0.005 C 
ATOM     10  C   UNL     1      17.577   6.740  20.064  0.00  0.00    +0.005 C 
ENDBRANCH  13   6
ENDBRANCH   3  13
ENDBRANCH   5   3
TORSDOF 6
ENDMDL
MODEL 3
REMARK VINA RESULT:      -6.8      1.410      4.513
REMARK  Name = 75536116
REMARK  6 active torsions:
REMARK  status: ('A' for Active; 'I' for Inactive)
REMARK    1  A    between atoms: O_1  and  C_8
REMARK    2  A    between atoms: O_2  and  C_12
REMARK    3  A    between atoms: N_3  and  C_5
REMARK    4  A    between atoms: N_3  and  C_13
REMARK    5  A    between atoms: C_6  and  C_13
REMARK    6  A    between atoms: C_7  and  C_14
REMARK                            x       y       z     vdW  Elec       q    Type
REMARK                         _______ _______ _______ _____ _____    ______ ____
ROOT
ATOM      5  C   UNL     1      -1.614   0.365  25.658  0.00  0.00    +0.092 C 
ATOM      7  C   UNL     1      -2.370   0.975  24.436  0.00  0.00    +0.042 C 
ATOM      8  C   UNL     1      -0.145   0.770  25.463  0.00  0.00    +0.160 C 
ATOM     11  C   UNL     1      -1.297   1.687  23.591  0.00  0.00    +0.043 C 
ATOM     12  C   UNL     1      -0.011   0.959  23.955  0.00  0.00    +0.145 C 
ENDROOT
BRANCH   7  14
ATOM      4  N   UNL     1      -4.308   4.069  25.468  0.00  0.00    -0.263 NA
ATOM     14  C   UNL     1      -3.526   1.877  24.814  0.00  0.00    -0.025 A 
ATOM     15  C   UNL     1      -4.827   1.390  24.864  0.00  0.00    +0.007 A 
ATOM     16  C   UNL     1      -3.321   3.212  25.123  0.00  0.00    +0.114 A 
ATOM     17  C   UNL     1      -5.870   2.241  25.214  0.00  0.00    +0.020 A 
ATOM     18  C   UNL     1      -5.560   3.560  25.505  0.00  0.00    +0.111 A 
ENDBRANCH   7  14
BRANCH   8   1
ATOM      1  O   UNL     1       0.077   2.002  26.148  0.00  0.00    -0.388 OA
ATOM     20  H   UNL     1       0.392   1.785  27.043  0.00  0.00    +0.210 HD
ENDBRANCH   8   1
BRANCH  12   2
ATOM      2  O   UNL     1       1.129   1.714  23.600  0.00  0.00    -0.389 OA
ATOM     21  H   UNL     1       1.418   2.198  24.393  0.00  0.00    +0.210 HD
ENDBRANCH  12   2
BRANCH   5   3
ATOM      3  N   UNL     1      -1.737  -1.094  25.630  0.00  0.00    -0.310 NA
ATOM     19  H   UNL     1      -1.047  -1.502  26.261  0.00  0.00    +0.122 HD
BRANCH   3  13
ATOM     13  C   UNL     1      -3.064  -1.511  26.063  0.00  0.00    +0.084 C 
BRANCH  13   6
ATOM      6  C   UNL     1      -3.633  -2.546  25.146  0.00  0.00    +0.003 C 
ATOM      9  C   UNL     1      -2.954  -2.856  23.841  0.00  0.00    +0.005 C 
ATOM     10  C   UNL     1      -4.273  -2.136  23.848  0.00  0.00    +0.005 C 
ENDBRANCH  13   6
ENDBRANCH   3  13
ENDBRANCH   5   3
TORSDOF 6
ENDMDL
MODEL 4
REMARK VINA RESULT:      -6.0     16.490     18.654
REMARK  Name = 75536116
REMARK  6 active torsions:
REMARK  status: ('A' for Active; 'I' for Inactive)
REMARK    1  A    between atoms: O_1  and  C_8
REMARK    2  A    between atoms: O_2  and  C_12
REMARK    3  A    between atoms: N_3  and  C_5
REMARK    4  A    between atoms: N_3  and  C_13
REMARK    5  A    between atoms: C_6  and  C_13
REMARK    6  A    between atoms: C_7  and  C_14
REMARK                            x       y       z     vdW  Elec       q    Type
REMARK                         _______ _______ _______ _____ _____    ______ ____
ROOT
ATOM      5  C   UNL     1      13.277   7.579  21.194  0.00  0.00    +0.092 C 
ATOM      7  C   UNL     1      14.294   8.235  20.209  0.00  0.00    +0.042 C 
ATOM      8  C   UNL     1      12.015   7.325  20.354  0.00  0.00    +0.160 C 
ATOM     11  C   UNL     1      13.563   8.342  18.858  0.00  0.00    +0.043 C 
ATOM     12  C   UNL     1      12.092   8.370  19.246  0.00  0.00    +0.145 C 
ENDROOT
BRANCH   7  14
ATOM      4  N   UNL     1      17.844   7.146  20.988  0.00  0.00    -0.263 NA
ATOM     14  C   UNL     1      15.619   7.507  20.115  0.00  0.00    -0.025 A 
ATOM     15  C   UNL     1      15.848   6.564  19.119  0.00  0.00    +0.007 A 
ATOM     16  C   UNL     1      16.640   7.760  21.016  0.00  0.00    +0.114 A 
ATOM     17  C   UNL     1      17.074   5.911  19.057  0.00  0.00    +0.020 A 
ATOM     18  C   UNL     1      18.030   6.235  20.006  0.00  0.00    +0.111 A 
ENDBRANCH   7  14
BRANCH   8   1
ATOM      1  O   UNL     1      12.093   6.007  19.813  0.00  0.00    -0.388 OA
ATOM     20  H   UNL     1      12.913   5.954  19.292  0.00  0.00    +0.210 HD
ENDBRANCH   8   1
BRANCH  12   2
ATOM      2  O   UNL     1      11.261   8.059  18.146  0.00  0.00    -0.389 OA
ATOM     21  H   UNL     1      10.357   7.944  18.486  0.00  0.00    +0.210 HD
ENDBRANCH  12   2
BRANCH   5   3
ATOM      3  N   UNL     1      12.973   8.513  22.280  0.00  0.00    -0.310 NA
ATOM     19  H   UNL     1      13.243   8.094  23.169  0.00  0.00    +0.122 HD
BRANCH   3  13
ATOM     13  C   UNL     1      13.709   9.759  22.113  0.00  0.00    +0.084 C 
BRANCH  13   6
ATOM      6  C   UNL     1      12.814  10.944  22.282  0.00  0.00    +0.003 C 
ATOM      9  C   UNL     1      11.357  10.848  21.925  0.00  0.00    +0.005 C 
ATOM     10  C   UNL     1      12.285  11.670  21.075  0.00  0.00    +0.005 C 
ENDBRANCH  13   6
ENDBRANCH   3  13
ENDBRANCH   5   3
TORSDOF 6
ENDMDL
MODEL 5
REMARK VINA RESULT:      -5.9     15.769     18.316
REMARK  Name = 75536116
REMARK  6 active torsions:
REMARK  status: ('A' for Active; 'I' for Inactive)
REMARK    1  A    between atoms: O_1  and  C_8
REMARK    2  A    between atoms: O_2  and  C_12
REMARK    3  A    between atoms: N_3  and  C_5
REMARK    4  A    between atoms: N_3  and  C_13
REMARK    5  A    between atoms: C_6  and  C_13
REMARK    6  A    between atoms: C_7  and  C_14
REMARK                            x       y       z     vdW  Elec       q    Type
REMARK                         _______ _______ _______ _____ _____    ______ ____
ROOT
ATOM      5  C   UNL     1      12.223   8.263  19.439  0.00  0.00    +0.092 C 
ATOM      7  C   UNL     1      12.899   7.056  20.162  0.00  0.00    +0.042 C 
ATOM      8  C   UNL     1      11.102   8.720  20.386  0.00  0.00    +0.160 C 
ATOM     11  C   UNL     1      12.124   6.867  21.480  0.00  0.00    +0.043 C 
ATOM     12  C   UNL     1      10.757   7.465  21.182  0.00  0.00    +0.145 C 
ENDROOT
BRANCH   7  14
ATOM      4  N   UNL     1      16.213   8.135  21.661  0.00  0.00    -0.263 NA
ATOM     14  C   UNL     1      14.391   7.216  20.365  0.00  0.00    -0.025 A 
ATOM     15  C   UNL     1      15.299   6.626  19.492  0.00  0.00    +0.007 A 
ATOM     16  C   UNL     1      14.894   7.954  21.424  0.00  0.00    +0.114 A 
ATOM     17  C   UNL     1      16.664   6.790  19.703  0.00  0.00    +0.020 A 
ATOM     18  C   UNL     1      17.066   7.547  20.792  0.00  0.00    +0.111 A 
ENDBRANCH   7  14
BRANCH   8   1
ATOM      1  O   UNL     1      11.623   9.734  21.244  0.00  0.00    -0.388 OA
ATOM     20  H   UNL     1      11.564   9.403  22.156  0.00  0.00    +0.210 HD
ENDBRANCH   8   1
BRANCH  12   2
ATOM      2  O   UNL     1      10.048   7.752  22.370  0.00  0.00    -0.389 OA
ATOM     21  H   UNL     1      10.607   8.335  22.911  0.00  0.00    +0.210 HD
ENDBRANCH  12   2
BRANCH   5   3
ATOM      3  N   UNL     1      11.650   7.814  18.168  0.00  0.00    -0.310 NA
ATOM     19  H   UNL     1      10.633   7.818  18.238  0.00  0.00    +0.122 HD
BRANCH   3  13
ATOM     13  C   UNL     1      12.044   8.699  17.081  0.00  0.00    +0.084 C 
BRANCH  13   6
ATOM      6  C   UNL     1      13.530   8.844  17.010  0.00  0.00    +0.003 C 
ATOM      9  C   UNL     1      14.151  10.205  16.868  0.00  0.00    +0.005 C 
ATOM     10  C   UNL     1      14.191   9.238  15.718  0.00  0.00    +0.005 C 
ENDBRANCH  13   6
ENDBRANCH   3  13
ENDBRANCH   5   3
TORSDOF 6
ENDMDL
MODEL 6
REMARK VINA RESULT:      -5.8     15.542     17.915
REMARK  Name = 75536116
REMARK  6 active torsions:
REMARK  status: ('A' for Active; 'I' for Inactive)
REMARK    1  A    between atoms: O_1  and  C_8
REMARK    2  A    between atoms: O_2  and  C_12
REMARK    3  A    between atoms: N_3  and  C_5
REMARK    4  A    between atoms: N_3  and  C_13
REMARK    5  A    between atoms: C_6  and  C_13
REMARK    6  A    between atoms: C_7  and  C_14
REMARK                            x       y       z     vdW  Elec       q    Type
REMARK                         _______ _______ _______ _____ _____    ______ ____
ROOT
ATOM      5  C   UNL     1      13.135   7.564  20.582  0.00  0.00    +0.092 C 
ATOM      7  C   UNL     1      12.357   8.816  20.069  0.00  0.00    +0.042 C 
ATOM      8  C   UNL     1      12.073   6.681  21.256  0.00  0.00    +0.160 C 
ATOM     11  C   UNL     1      10.890   8.600  20.487  0.00  0.00    +0.043 C 
ATOM     12  C   UNL     1      10.991   7.667  21.685  0.00  0.00    +0.145 C 
ENDROOT
BRANCH   7  14
ATOM      4  N   UNL     1      11.894   8.556  16.313  0.00  0.00    -0.263 NA
ATOM     14  C   UNL     1      12.522   9.080  18.587  0.00  0.00    -0.025 A 
ATOM     15  C   UNL     1      13.413  10.044  18.127  0.00  0.00    +0.007 A 
ATOM     16  C   UNL     1      11.793   8.370  17.648  0.00  0.00    +0.114 A 
ATOM     17  C   UNL     1      13.544  10.265  16.761  0.00  0.00    +0.020 A 
ATOM     18  C   UNL     1      12.769   9.501  15.902  0.00  0.00    +0.111 A 
ENDBRANCH   7  14
BRANCH   8   1
ATOM      1  O   UNL     1      11.566   5.766  20.285  0.00  0.00    -0.388 OA
ATOM     20  H   UNL     1      11.497   6.246  19.442  0.00  0.00    +0.210 HD
ENDBRANCH   8   1
BRANCH  12   2
ATOM      2  O   UNL     1       9.756   7.037  21.955  0.00  0.00    -0.389 OA
ATOM     21  H   UNL     1       9.062   7.549  21.507  0.00  0.00    +0.210 HD
ENDBRANCH  12   2
BRANCH   5   3
ATOM      3  N   UNL     1      14.136   7.980  21.567  0.00  0.00    -0.310 NA
ATOM     19  H   UNL     1      14.973   7.408  21.457  0.00  0.00    +0.122 HD
BRANCH   3  13
ATOM     13  C   UNL     1      14.501   9.377  21.379  0.00  0.00    +0.084 C 
BRANCH  13   6
ATOM      6  C   UNL     1      14.406  10.140  22.660  0.00  0.00    +0.003 C 
ATOM      9  C   UNL     1      13.187  10.968  22.959  0.00  0.00    +0.005 C 
ATOM     10  C   UNL     1      14.496  11.641  22.655  0.00  0.00    +0.005 C 
ENDBRANCH  13   6
ENDBRANCH   3  13
ENDBRANCH   5   3
TORSDOF 6
ENDMDL
MODEL 7
REMARK VINA RESULT:      -5.7     13.128     14.524
REMARK  Name = 75536116
REMARK  6 active torsions:
REMARK  status: ('A' for Active; 'I' for Inactive)
REMARK    1  A    between atoms: O_1  and  C_8
REMARK    2  A    between atoms: O_2  and  C_12
REMARK    3  A    between atoms: N_3  and  C_5
REMARK    4  A    between atoms: N_3  and  C_13
REMARK    5  A    between atoms: C_6  and  C_13
REMARK    6  A    between atoms: C_7  and  C_14
REMARK                            x       y       z     vdW  Elec       q    Type
REMARK                         _______ _______ _______ _____ _____    ______ ____
ROOT
ATOM      5  C   UNL     1     -13.987   1.192  29.622  0.00  0.00    +0.092 C 
ATOM      7  C   UNL     1     -15.504   1.543  29.518  0.00  0.00    +0.042 C 
ATOM      8  C   UNL     1     -13.944  -0.219  30.228  0.00  0.00    +0.160 C 
ATOM     11  C   UNL     1     -16.258   0.325  30.084  0.00  0.00    +0.043 C 
ATOM     12  C   UNL     1     -15.245  -0.323  31.017  0.00  0.00    +0.145 C 
ENDROOT
BRANCH   7  14
ATOM      4  N   UNL     1     -16.220   3.639  26.438  0.00  0.00    -0.263 NA
ATOM     14  C   UNL     1     -15.954   1.928  28.124  0.00  0.00    -0.025 A 
ATOM     15  C   UNL     1     -16.500   0.983  27.262  0.00  0.00    +0.007 A 
ATOM     16  C   UNL     1     -15.837   3.230  27.669  0.00  0.00    +0.114 A 
ATOM     17  C   UNL     1     -16.905   1.364  25.988  0.00  0.00    +0.020 A 
ATOM     18  C   UNL     1     -16.745   2.693  25.627  0.00  0.00    +0.111 A 
ENDBRANCH   7  14
BRANCH   8   1
ATOM      1  O   UNL     1     -13.923  -1.167  29.161  0.00  0.00    -0.388 OA
ATOM     20  H   UNL     1     -13.026  -1.541  29.122  0.00  0.00    +0.210 HD
ENDBRANCH   8   1
BRANCH  12   2
ATOM      2  O   UNL     1     -15.596  -1.658  31.315  0.00  0.00    -0.389 OA
ATOM     21  H   UNL     1     -16.275  -1.634  32.011  0.00  0.00    +0.210 HD
ENDBRANCH  12   2
BRANCH   5   3
ATOM      3  N   UNL     1     -13.326   2.141  30.520  0.00  0.00    -0.310 NA
ATOM     19  H   UNL     1     -12.537   2.569  30.035  0.00  0.00    +0.122 HD
BRANCH   3  13
ATOM     13  C   UNL     1     -14.243   3.195  30.930  0.00  0.00    +0.084 C 
BRANCH  13   6
ATOM      6  C   UNL     1     -14.235   3.375  32.413  0.00  0.00    +0.003 C 
ATOM      9  C   UNL     1     -14.541   2.214  33.318  0.00  0.00    +0.005 C 
ATOM     10  C   UNL     1     -15.524   3.343  33.187  0.00  0.00    +0.005 C 
ENDBRANCH  13   6
ENDBRANCH   3  13
ENDBRANCH   5   3
TORSDOF 6
ENDMDL
MODEL 8
REMARK VINA RESULT:      -5.6      2.411      3.869
REMARK  Name = 75536116
REMARK  6 active torsions:
REMARK  status: ('A' for Active; 'I' for Inactive)
REMARK    1  A    between atoms: O_1  and  C_8
REMARK    2  A    between atoms: O_2  and  C_12
REMARK    3  A    between atoms: N_3  and  C_5
REMARK    4  A    between atoms: N_3  and  C_13
REMARK    5  A    between atoms: C_6  and  C_13
REMARK    6  A    between atoms: C_7  and  C_14
REMARK                            x       y       z     vdW  Elec       q    Type
REMARK                         _______ _______ _______ _____ _____    ______ ____
ROOT
ATOM      5  C   UNL     1      -3.217   2.322  24.512  0.00  0.00    +0.092 C 
ATOM      7  C   UNL     1      -4.337   1.279  24.205  0.00  0.00    +0.042 C 
ATOM      8  C   UNL     1      -3.904   3.414  25.348  0.00  0.00    +0.160 C 
ATOM     11  C   UNL     1      -5.616   1.829  24.864  0.00  0.00    +0.043 C 
ATOM     12  C   UNL     1      -5.369   3.330  24.931  0.00  0.00    +0.145 C 
ENDROOT
BRANCH   7  14
ATOM      4  N   UNL     1      -3.156  -1.622  26.345  0.00  0.00    -0.263 NA
ATOM     14  C   UNL     1      -4.001  -0.132  24.640  0.00  0.00    -0.025 A 
ATOM     15  C   UNL     1      -4.210  -1.212  23.789  0.00  0.00    +0.007 A 
ATOM     16  C   UNL     1      -3.477  -0.388  25.896  0.00  0.00    +0.114 A 
ATOM     17  C   UNL     1      -3.893  -2.497  24.215  0.00  0.00    +0.020 A 
ATOM     18  C   UNL     1      -3.372  -2.647  25.491  0.00  0.00    +0.111 A 
ENDBRANCH   7  14
BRANCH   8   1
ATOM      1  O   UNL     1      -3.752   3.086  26.728  0.00  0.00    -0.388 OA
ATOM     20  H   UNL     1      -4.243   3.751  27.241  0.00  0.00    +0.210 HD
ENDBRANCH   8   1
BRANCH  12   2
ATOM      2  O   UNL     1      -6.235   3.955  25.856  0.00  0.00    -0.389 OA
ATOM     21  H   UNL     1      -6.372   4.870  25.555  0.00  0.00    +0.210 HD
ENDBRANCH  12   2
BRANCH   5   3
ATOM      3  N   UNL     1      -2.721   2.892  23.258  0.00  0.00    -0.310 NA
ATOM     19  H   UNL     1      -2.505   3.879  23.399  0.00  0.00    +0.122 HD
BRANCH   3  13
ATOM     13  C   UNL     1      -1.511   2.211  22.820  0.00  0.00    +0.084 C 
BRANCH  13   6
ATOM      6  C   UNL     1      -0.763   1.635  23.979  0.00  0.00    +0.003 C 
ATOM      9  C   UNL     1       0.710   1.359  23.867  0.00  0.00    +0.005 C 
ATOM     10  C   UNL     1      -0.264   0.217  23.928  0.00  0.00    +0.005 C 
ENDBRANCH  13   6
ENDBRANCH   3  13
ENDBRANCH   5   3
TORSDOF 6
ENDMDL
MODEL 9
REMARK VINA RESULT:      -5.6     13.069     15.063
REMARK  Name = 75536116
REMARK  6 active torsions:
REMARK  status: ('A' for Active; 'I' for Inactive)
REMARK    1  A    between atoms: O_1  and  C_8
REMARK    2  A    between atoms: O_2  and  C_12
REMARK    3  A    between atoms: N_3  and  C_5
REMARK    4  A    between atoms: N_3  and  C_13
REMARK    5  A    between atoms: C_6  and  C_13
REMARK    6  A    between atoms: C_7  and  C_14
REMARK                            x       y       z     vdW  Elec       q    Type
REMARK                         _______ _______ _______ _____ _____    ______ ____
ROOT
ATOM      5  C   UNL     1     -15.942   0.774  30.001  0.00  0.00    +0.092 C 
ATOM      7  C   UNL     1     -14.904   1.939  30.028  0.00  0.00    +0.042 C 
ATOM      8  C   UNL     1     -15.110  -0.508  30.167  0.00  0.00    +0.160 C 
ATOM     11  C   UNL     1     -13.526   1.270  30.192  0.00  0.00    +0.043 C 
ATOM     12  C   UNL     1     -13.735  -0.128  29.627  0.00  0.00    +0.145 C 
ENDROOT
BRANCH   7  14
ATOM      4  N   UNL     1     -15.399   3.569  33.418  0.00  0.00    -0.263 NA
ATOM     14  C   UNL     1     -15.185   2.991  31.081  0.00  0.00    -0.025 A 
ATOM     15  C   UNL     1     -15.479   4.301  30.721  0.00  0.00    +0.007 A 
ATOM     16  C   UNL     1     -15.158   2.678  32.430  0.00  0.00    +0.114 A 
ATOM     17  C   UNL     1     -15.733   5.247  31.709  0.00  0.00    +0.020 A 
ATOM     18  C   UNL     1     -15.682   4.833  33.031  0.00  0.00    +0.111 A 
ENDBRANCH   7  14
BRANCH   8   1
ATOM      1  O   UNL     1     -15.038  -0.821  31.557  0.00  0.00    -0.388 OA
ATOM     20  H   UNL     1     -15.928  -0.693  31.931  0.00  0.00    +0.210 HD
ENDBRANCH   8   1
BRANCH  12   2
ATOM      2  O   UNL     1     -12.720  -1.014  30.052  0.00  0.00    -0.389 OA
ATOM     21  H   UNL     1     -12.403  -1.493  29.267  0.00  0.00    +0.210 HD
ENDBRANCH  12   2
BRANCH   5   3
ATOM      3  N   UNL     1     -16.628   0.759  28.708  0.00  0.00    -0.310 NA
ATOM     19  H   UNL     1     -17.115  -0.130  28.595  0.00  0.00    +0.122 HD
BRANCH   3  13
ATOM     13  C   UNL     1     -17.605   1.836  28.626  0.00  0.00    +0.084 C 
BRANCH  13   6
ATOM      6  C   UNL     1     -17.461   2.604  27.351  0.00  0.00    +0.003 C 
ATOM      9  C   UNL     1     -16.106   3.072  26.899  0.00  0.00    +0.005 C 
ATOM     10  C   UNL     1     -17.121   4.068  27.385  0.00  0.00    +0.005 C 
ENDBRANCH  13   6
ENDBRANCH   3  13
ENDBRANCH   5   3
TORSDOF 6
ENDMDL
MODEL 10
REMARK VINA RESULT:      -5.5     13.661     15.120
REMARK  Name = 75536116
REMARK  6 active torsions:
REMARK  status: ('A' for Active; 'I' for Inactive)
REMARK    1  A    between atoms: O_1  and  C_8
REMARK    2  A    between atoms: O_2  and  C_12
REMARK    3  A    between atoms: N_3  and  C_5
REMARK    4  A    between atoms: N_3  and  C_13
REMARK    5  A    between atoms: C_6  and  C_13
REMARK    6  A    between atoms: C_7  and  C_14
REMARK                            x       y       z     vdW  Elec       q    Type
REMARK                         _______ _______ _______ _____ _____    ______ ____
ROOT
ATOM      5  C   UNL     1     -14.879   2.312  31.174  0.00  0.00    +0.092 C 
ATOM      7  C   UNL     1     -16.160   2.005  30.337  0.00  0.00    +0.042 C 
ATOM      8  C   UNL     1     -13.949   1.112  30.938  0.00  0.00    +0.160 C 
ATOM     11  C   UNL     1     -15.911   0.637  29.675  0.00  0.00    +0.043 C 
ATOM     12  C   UNL     1     -14.901  -0.030  30.596  0.00  0.00    +0.145 C 
ENDROOT
BRANCH   7  14
ATOM      4  N   UNL     1     -16.415   3.947  27.088  0.00  0.00    -0.263 NA
ATOM     14  C   UNL     1     -16.524   3.091  29.346  0.00  0.00    -0.025 A 
ATOM     15  C   UNL     1     -17.269   4.198  29.738  0.00  0.00    +0.007 A 
ATOM     16  C   UNL     1     -16.125   3.014  28.022  0.00  0.00    +0.114 A 
ATOM     17  C   UNL     1     -17.588   5.179  28.807  0.00  0.00    +0.020 A 
ATOM     18  C   UNL     1     -17.141   5.009  27.506  0.00  0.00    +0.111 A 
ENDBRANCH   7  14
BRANCH   8   1
ATOM      1  O   UNL     1     -13.100   1.411  29.831  0.00  0.00    -0.388 OA
ATOM     20  H   UNL     1     -12.290   0.882  29.933  0.00  0.00    +0.210 HD
ENDBRANCH   8   1
BRANCH  12   2
ATOM      2  O   UNL     1     -14.249  -1.108  29.955  0.00  0.00    -0.389 OA
ATOM     21  H   UNL     1     -13.738  -1.584  30.631  0.00  0.00    +0.210 HD
ENDBRANCH  12   2
BRANCH   5   3
ATOM      3  N   UNL     1     -15.230   2.400  32.593  0.00  0.00    -0.310 NA
ATOM     19  H   UNL     1     -14.471   2.010  33.152  0.00  0.00    +0.122 HD
BRANCH   3  13
ATOM     13  C   UNL     1     -15.436   3.785  32.993  0.00  0.00    +0.084 C 
BRANCH  13   6
ATOM      6  C   UNL     1     -14.564   4.711  32.209  0.00  0.00    +0.003 C 
ATOM      9  C   UNL     1     -13.884   5.867  32.888  0.00  0.00    +0.005 C 
ATOM     10  C   UNL     1     -15.014   6.119  31.930  0.00  0.00    +0.005 C 
ENDBRANCH  13   6
ENDBRANCH   3  13
ENDBRANCH   5   3
TORSDOF 6
ENDMDL
