MODEL 1
REMARK VINA RESULT:      -6.6      0.000      0.000
REMARK  Name = 45783446
REMARK  11 active torsions:
REMARK  status: ('A' for Active; 'I' for Inactive)
REMARK    1  A    between atoms: O_2  and  C_19
REMARK    2  A    between atoms: O_2  and  C_26
REMARK    3  A    between atoms: O_3  and  C_24
REMARK    4  A    between atoms: O_3  and  C_28
REMARK    5  A    between atoms: O_4  and  C_29
REMARK    6  A    between atoms: O_4  and  C_30
REMARK    7  A    between atoms: N_5  and  C_13
REMARK    8  A    between atoms: C_9  and  C_14
REMARK    9  A    between atoms: C_13  and  C_15
REMARK   10  A    between atoms: C_18  and  C_22
REMARK   11  A    between atoms: C_28  and  C_29
REMARK                            x       y       z     vdW  Elec       q    Type
REMARK                         _______ _______ _______ _____ _____    ______ ____
ROOT
ATOM      1  O   UNL     1      13.966   6.581  20.022  0.00  0.00    -0.336 OA
ATOM      6  N   UNL     1      15.732   7.369  18.891  0.00  0.00    -0.189 NA
ATOM      7  N   UNL     1      15.084   6.347  20.833  0.00  0.00    -0.054 NA
ATOM     14  C   UNL     1      14.436   7.185  18.900  0.00  0.00    +0.245 A 
ATOM     18  C   UNL     1      16.086   6.839  20.098  0.00  0.00    +0.221 A 
ENDROOT
BRANCH  18  22
ATOM      8  N   UNL     1      17.806   7.796  21.397  0.00  0.00    -0.252 NA
ATOM     22  C   UNL     1      17.450   6.815  20.539  0.00  0.00    +0.115 A 
ATOM     23  C   UNL     1      18.313   5.829  20.089  0.00  0.00    +0.077 A 
ATOM     24  C   UNL     1      19.625   5.852  20.548  0.00  0.00    +0.124 A 
ATOM     25  C   UNL     1      19.089   7.788  21.822  0.00  0.00    +0.115 A 
ATOM     27  C   UNL     1      20.029   6.847  21.431  0.00  0.00    +0.065 A 
BRANCH  24   3
ATOM      3  O   UNL     1      20.511   4.906  20.134  0.00  0.00    -0.490 OA
BRANCH   3  28
ATOM     28  C   UNL     1      21.854   5.025  20.604  0.00  0.00    +0.257 C 
BRANCH  28  29
ATOM     29  C   UNL     1      22.218   3.775  21.383  0.00  0.00    +0.200 C 
BRANCH  29   4
ATOM      4  O   UNL     1      21.793   3.929  22.731  0.00  0.00    -0.380 OA
ATOM     30  C   UNL     1      22.545   4.930  23.403  0.00  0.00    +0.194 C 
ENDBRANCH  29   4
ENDBRANCH  28  29
ENDBRANCH   3  28
ENDBRANCH  24   3
ENDBRANCH  18  22
BRANCH  14   9
ATOM      5  N   UNL     1      12.503   8.629  18.288  0.00  0.00    -0.287 NA
ATOM      9  C   UNL     1      13.408   7.549  17.848  0.00  0.00    +0.146 C 
ATOM     10  C   UNL     1      14.048   8.079  16.551  0.00  0.00    +0.030 C 
ATOM     11  C   UNL     1      13.396   9.432  16.310  0.00  0.00    +0.017 C 
ATOM     12  C   UNL     1      12.093   9.343  17.078  0.00  0.00    +0.085 C 
BRANCH   5  13
ATOM     13  C   UNL     1      11.361   8.145  19.052  0.00  0.00    +0.120 C 
BRANCH  13  15
ATOM     15  C   UNL     1      11.286   8.785  20.414  0.00  0.00    -0.030 A 
ATOM     16  C   UNL     1      11.888  10.024  20.636  0.00  0.00    +0.050 A 
ATOM     17  C   UNL     1      10.615   8.139  21.452  0.00  0.00    +0.005 A 
ATOM     19  C   UNL     1      11.819  10.616  21.897  0.00  0.00    +0.120 A 
ATOM     20  C   UNL     1      10.546   8.731  22.713  0.00  0.00    +0.004 A 
ATOM     21  C   UNL     1      11.148   9.970  22.935  0.00  0.00    +0.045 A 
BRANCH  19   2
ATOM      2  O   UNL     1      12.407  11.824  22.114  0.00  0.00    -0.495 OA
ATOM     26  C   UNL     1      13.359  12.267  21.147  0.00  0.00    +0.277 C 
ENDBRANCH  19   2
ENDBRANCH  13  15
ENDBRANCH   5  13
ENDBRANCH  14   9
TORSDOF 9
ENDMDL
MODEL 2
REMARK VINA RESULT:      -6.3      3.604      7.293
REMARK  Name = 45783446
REMARK  11 active torsions:
REMARK  status: ('A' for Active; 'I' for Inactive)
REMARK    1  A    between atoms: O_2  and  C_19
REMARK    2  A    between atoms: O_2  and  C_26
REMARK    3  A    between atoms: O_3  and  C_24
REMARK    4  A    between atoms: O_3  and  C_28
REMARK    5  A    between atoms: O_4  and  C_29
REMARK    6  A    between atoms: O_4  and  C_30
REMARK    7  A    between atoms: N_5  and  C_13
REMARK    8  A    between atoms: C_9  and  C_14
REMARK    9  A    between atoms: C_13  and  C_15
REMARK   10  A    between atoms: C_18  and  C_22
REMARK   11  A    between atoms: C_28  and  C_29
REMARK                            x       y       z     vdW  Elec       q    Type
REMARK                         _______ _______ _______ _____ _____    ______ ____
ROOT
ATOM      1  O   UNL     1      12.048   8.168  16.709  0.00  0.00    -0.336 OA
ATOM      6  N   UNL     1      13.482   9.561  17.720  0.00  0.00    -0.189 NA
ATOM      7  N   UNL     1      12.614   8.948  15.693  0.00  0.00    -0.054 NA
ATOM     14  C   UNL     1      12.612   8.594  17.869  0.00  0.00    +0.245 A 
ATOM     18  C   UNL     1      13.449   9.744  16.367  0.00  0.00    +0.221 A 
ENDROOT
BRANCH  18  22
ATOM      8  N   UNL     1      13.924  11.027  14.446  0.00  0.00    -0.252 NA
ATOM     22  C   UNL     1      14.262  10.733  15.721  0.00  0.00    +0.115 A 
ATOM     23  C   UNL     1      15.316  11.324  16.399  0.00  0.00    +0.077 A 
ATOM     24  C   UNL     1      16.072  12.276  15.726  0.00  0.00    +0.124 A 
ATOM     25  C   UNL     1      14.681  11.957  13.822  0.00  0.00    +0.115 A 
ATOM     27  C   UNL     1      15.755  12.605  14.412  0.00  0.00    +0.065 A 
BRANCH  24   3
ATOM      3  O   UNL     1      17.117  12.885  16.348  0.00  0.00    -0.490 OA
BRANCH   3  28
ATOM     28  C   UNL     1      18.294  13.109  15.573  0.00  0.00    +0.257 C 
BRANCH  28  29
ATOM     29  C   UNL     1      19.510  12.724  16.395  0.00  0.00    +0.200 C 
BRANCH  29   4
ATOM      4  O   UNL     1      20.193  11.661  15.742  0.00  0.00    -0.380 OA
ATOM     30  C   UNL     1      19.594  11.347  14.492  0.00  0.00    +0.194 C 
ENDBRANCH  29   4
ENDBRANCH  28  29
ENDBRANCH   3  28
ENDBRANCH  24   3
ENDBRANCH  18  22
BRANCH  14   9
ATOM      5  N   UNL     1      13.194   7.910  20.191  0.00  0.00    -0.287 NA
ATOM      9  C   UNL     1      12.161   7.897  19.136  0.00  0.00    +0.146 C 
ATOM     10  C   UNL     1      10.935   8.571  19.780  0.00  0.00    +0.030 C 
ATOM     11  C   UNL     1      11.353   8.872  21.211  0.00  0.00    +0.017 C 
ATOM     12  C   UNL     1      12.480   7.891  21.468  0.00  0.00    +0.085 C 
BRANCH   5  13
ATOM     13  C   UNL     1      14.144   6.812  20.078  0.00  0.00    +0.120 C 
BRANCH  13  15
ATOM     15  C   UNL     1      15.552   7.256  20.378  0.00  0.00    -0.030 A 
ATOM     16  C   UNL     1      16.621   6.392  20.140  0.00  0.00    +0.050 A 
ATOM     17  C   UNL     1      15.785   8.530  20.895  0.00  0.00    +0.005 A 
ATOM     19  C   UNL     1      17.924   6.803  20.419  0.00  0.00    +0.120 A 
ATOM     20  C   UNL     1      17.089   8.942  21.174  0.00  0.00    +0.004 A 
ATOM     21  C   UNL     1      18.158   8.078  20.935  0.00  0.00    +0.045 A 
BRANCH  19   2
ATOM      2  O   UNL     1      18.967   5.961  20.188  0.00  0.00    -0.495 OA
ATOM     26  C   UNL     1      20.166   6.193  20.926  0.00  0.00    +0.277 C 
ENDBRANCH  19   2
ENDBRANCH  13  15
ENDBRANCH   5  13
ENDBRANCH  14   9
TORSDOF 9
ENDMDL
MODEL 3
REMARK VINA RESULT:      -6.3     26.081     29.654
REMARK  Name = 45783446
REMARK  11 active torsions:
REMARK  status: ('A' for Active; 'I' for Inactive)
REMARK    1  A    between atoms: O_2  and  C_19
REMARK    2  A    between atoms: O_2  and  C_26
REMARK    3  A    between atoms: O_3  and  C_24
REMARK    4  A    between atoms: O_3  and  C_28
REMARK    5  A    between atoms: O_4  and  C_29
REMARK    6  A    between atoms: O_4  and  C_30
REMARK    7  A    between atoms: N_5  and  C_13
REMARK    8  A    between atoms: C_9  and  C_14
REMARK    9  A    between atoms: C_13  and  C_15
REMARK   10  A    between atoms: C_18  and  C_22
REMARK   11  A    between atoms: C_28  and  C_29
REMARK                            x       y       z     vdW  Elec       q    Type
REMARK                         _______ _______ _______ _____ _____    ______ ____
ROOT
ATOM      1  O   UNL     1      -4.070 -11.219  17.905  0.00  0.00    -0.336 OA
ATOM      6  N   UNL     1      -5.465 -10.589  16.270  0.00  0.00    -0.189 NA
ATOM      7  N   UNL     1      -5.284 -10.905  18.529  0.00  0.00    -0.054 NA
ATOM     14  C   UNL     1      -4.263 -11.006  16.578  0.00  0.00    +0.245 A 
ATOM     18  C   UNL     1      -6.055 -10.542  17.500  0.00  0.00    +0.221 A 
ENDROOT
BRANCH  18  22
ATOM      8  N   UNL     1      -8.171 -10.898  18.482  0.00  0.00    -0.252 NA
ATOM     22  C   UNL     1      -7.418 -10.126  17.667  0.00  0.00    +0.115 A 
ATOM     23  C   UNL     1      -7.890  -8.998  17.015  0.00  0.00    +0.077 A 
ATOM     24  C   UNL     1      -9.218  -8.640  17.211  0.00  0.00    +0.124 A 
ATOM     25  C   UNL     1      -9.458 -10.520  18.649  0.00  0.00    +0.115 A 
ATOM     27  C   UNL     1     -10.024  -9.410  18.042  0.00  0.00    +0.065 A 
BRANCH  24   3
ATOM      3  O   UNL     1      -9.728  -7.541  16.593  0.00  0.00    -0.490 OA
BRANCH   3  28
ATOM     28  C   UNL     1     -11.139  -7.343  16.681  0.00  0.00    +0.257 C 
BRANCH  28  29
ATOM     29  C   UNL     1     -11.503  -6.053  15.969  0.00  0.00    +0.200 C 
BRANCH  29   4
ATOM      4  O   UNL     1     -12.148  -6.367  14.742  0.00  0.00    -0.380 OA
ATOM     30  C   UNL     1     -12.203  -5.239  13.879  0.00  0.00    +0.194 C 
ENDBRANCH  29   4
ENDBRANCH  28  29
ENDBRANCH   3  28
ENDBRANCH  24   3
ENDBRANCH  18  22
BRANCH  14   9
ATOM      5  N   UNL     1      -3.213 -10.627  14.353  0.00  0.00    -0.287 NA
ATOM      9  C   UNL     1      -3.082 -11.280  15.671  0.00  0.00    +0.146 C 
ATOM     10  C   UNL     1      -1.756 -10.743  16.243  0.00  0.00    +0.030 C 
ATOM     11  C   UNL     1      -1.188  -9.847  15.154  0.00  0.00    +0.017 C 
ATOM     12  C   UNL     1      -1.853 -10.354  13.890  0.00  0.00    +0.085 C 
BRANCH   5  13
ATOM     13  C   UNL     1      -3.971 -11.419  13.393  0.00  0.00    +0.120 C 
BRANCH  13  15
ATOM     15  C   UNL     1      -4.745 -10.551  12.437  0.00  0.00    -0.030 A 
ATOM     16  C   UNL     1      -4.457 -10.586  11.072  0.00  0.00    +0.050 A 
ATOM     17  C   UNL     1      -5.749  -9.709  12.916  0.00  0.00    +0.005 A 
ATOM     19  C   UNL     1      -5.173  -9.781  10.187  0.00  0.00    +0.120 A 
ATOM     20  C   UNL     1      -6.466  -8.904  12.031  0.00  0.00    +0.004 A 
ATOM     21  C   UNL     1      -6.178  -8.941  10.666  0.00  0.00    +0.045 A 
BRANCH  19   2
ATOM      2  O   UNL     1      -4.892  -9.816   8.857  0.00  0.00    -0.495 OA
ATOM     26  C   UNL     1      -4.555 -11.084   8.296  0.00  0.00    +0.277 C 
ENDBRANCH  19   2
ENDBRANCH  13  15
ENDBRANCH   5  13
ENDBRANCH  14   9
TORSDOF 9
ENDMDL
MODEL 4
REMARK VINA RESULT:      -6.1     26.069     29.426
REMARK  Name = 45783446
REMARK  11 active torsions:
REMARK  status: ('A' for Active; 'I' for Inactive)
REMARK    1  A    between atoms: O_2  and  C_19
REMARK    2  A    between atoms: O_2  and  C_26
REMARK    3  A    between atoms: O_3  and  C_24
REMARK    4  A    between atoms: O_3  and  C_28
REMARK    5  A    between atoms: O_4  and  C_29
REMARK    6  A    between atoms: O_4  and  C_30
REMARK    7  A    between atoms: N_5  and  C_13
REMARK    8  A    between atoms: C_9  and  C_14
REMARK    9  A    between atoms: C_13  and  C_15
REMARK   10  A    between atoms: C_18  and  C_22
REMARK   11  A    between atoms: C_28  and  C_29
REMARK                            x       y       z     vdW  Elec       q    Type
REMARK                         _______ _______ _______ _____ _____    ______ ____
ROOT
ATOM      1  O   UNL     1      -4.198 -13.298  15.486  0.00  0.00    -0.336 OA
ATOM      6  N   UNL     1      -4.458 -11.348  16.556  0.00  0.00    -0.189 NA
ATOM      7  N   UNL     1      -5.372 -13.421  16.240  0.00  0.00    -0.054 NA
ATOM     14  C   UNL     1      -3.724 -12.049  15.730  0.00  0.00    +0.245 A 
ATOM     18  C   UNL     1      -5.458 -12.232  16.842  0.00  0.00    +0.221 A 
ENDROOT
BRANCH  18  22
ATOM      8  N   UNL     1      -6.585 -12.615  18.879  0.00  0.00    -0.252 NA
ATOM     22  C   UNL     1      -6.528 -11.895  17.736  0.00  0.00    +0.115 A 
ATOM     23  C   UNL     1      -7.423 -10.890  17.409  0.00  0.00    +0.077 A 
ATOM     24  C   UNL     1      -8.441 -10.604  18.311  0.00  0.00    +0.124 A 
ATOM     25  C   UNL     1      -7.588 -12.310  19.732  0.00  0.00    +0.115 A 
ATOM     27  C   UNL     1      -8.532 -11.324  19.497  0.00  0.00    +0.065 A 
BRANCH  24   3
ATOM      3  O   UNL     1      -9.345  -9.626  18.034  0.00  0.00    -0.490 OA
BRANCH   3  28
ATOM     28  C   UNL     1      -9.135  -8.864  16.846  0.00  0.00    +0.257 C 
BRANCH  28  29
ATOM     29  C   UNL     1     -10.351  -7.993  16.595  0.00  0.00    +0.200 C 
BRANCH  29   4
ATOM      4  O   UNL     1     -10.018  -6.996  15.637  0.00  0.00    -0.380 OA
ATOM     30  C   UNL     1     -10.983  -5.953  15.614  0.00  0.00    +0.194 C 
ENDBRANCH  29   4
ENDBRANCH  28  29
ENDBRANCH   3  28
ENDBRANCH  24   3
ENDBRANCH  18  22
BRANCH  14   9
ATOM      5  N   UNL     1      -2.667 -10.697  13.926  0.00  0.00    -0.287 NA
ATOM      9  C   UNL     1      -2.442 -11.662  15.021  0.00  0.00    +0.146 C 
ATOM     10  C   UNL     1      -1.433 -10.968  15.954  0.00  0.00    +0.030 C 
ATOM     11  C   UNL     1      -1.105  -9.648  15.272  0.00  0.00    +0.017 C 
ATOM     12  C   UNL     1      -1.443  -9.904  13.817  0.00  0.00    +0.085 C 
BRANCH   5  13
ATOM     13  C   UNL     1      -3.023 -11.333  12.665  0.00  0.00    +0.120 C 
BRANCH  13  15
ATOM     15  C   UNL     1      -3.712 -10.375  11.729  0.00  0.00    -0.030 A 
ATOM     16  C   UNL     1      -5.034  -9.997  11.966  0.00  0.00    +0.050 A 
ATOM     17  C   UNL     1      -3.028  -9.865  10.625  0.00  0.00    +0.005 A 
ATOM     19  C   UNL     1      -5.672  -9.110  11.099  0.00  0.00    +0.120 A 
ATOM     20  C   UNL     1      -3.666  -8.978   9.758  0.00  0.00    +0.004 A 
ATOM     21  C   UNL     1      -4.988  -8.600   9.996  0.00  0.00    +0.045 A 
BRANCH  19   2
ATOM      2  O   UNL     1      -6.961  -8.743  11.330  0.00  0.00    -0.495 OA
ATOM     26  C   UNL     1      -7.808  -9.703  11.961  0.00  0.00    +0.277 C 
ENDBRANCH  19   2
ENDBRANCH  13  15
ENDBRANCH   5  13
ENDBRANCH  14   9
TORSDOF 9
ENDMDL
MODEL 5
REMARK VINA RESULT:      -6.1      4.215      8.206
REMARK  Name = 45783446
REMARK  11 active torsions:
REMARK  status: ('A' for Active; 'I' for Inactive)
REMARK    1  A    between atoms: O_2  and  C_19
REMARK    2  A    between atoms: O_2  and  C_26
REMARK    3  A    between atoms: O_3  and  C_24
REMARK    4  A    between atoms: O_3  and  C_28
REMARK    5  A    between atoms: O_4  and  C_29
REMARK    6  A    between atoms: O_4  and  C_30
REMARK    7  A    between atoms: N_5  and  C_13
REMARK    8  A    between atoms: C_9  and  C_14
REMARK    9  A    between atoms: C_13  and  C_15
REMARK   10  A    between atoms: C_18  and  C_22
REMARK   11  A    between atoms: C_28  and  C_29
REMARK                            x       y       z     vdW  Elec       q    Type
REMARK                         _______ _______ _______ _____ _____    ______ ____
ROOT
ATOM      1  O   UNL     1      13.448   7.698  16.425  0.00  0.00    -0.336 OA
ATOM      6  N   UNL     1      14.193   9.448  17.608  0.00  0.00    -0.189 NA
ATOM      7  N   UNL     1      13.849   8.659  15.488  0.00  0.00    -0.054 NA
ATOM     14  C   UNL     1      13.685   8.242  17.647  0.00  0.00    +0.245 A 
ATOM     18  C   UNL     1      14.276   9.661  16.262  0.00  0.00    +0.221 A 
ENDROOT
BRANCH  18  22
ATOM      8  N   UNL     1      14.356  12.017  16.326  0.00  0.00    -0.252 NA
ATOM     22  C   UNL     1      14.788  10.887  15.723  0.00  0.00    +0.115 A 
ATOM     23  C   UNL     1      15.668  10.867  14.653  0.00  0.00    +0.077 A 
ATOM     24  C   UNL     1      16.134  12.084  14.170  0.00  0.00    +0.124 A 
ATOM     25  C   UNL     1      14.830  13.182  15.830  0.00  0.00    +0.115 A 
ATOM     27  C   UNL     1      15.711  13.269  14.764  0.00  0.00    +0.065 A 
BRANCH  24   3
ATOM      3  O   UNL     1      16.999  12.118  13.121  0.00  0.00    -0.490 OA
BRANCH   3  28
ATOM     28  C   UNL     1      16.439  12.003  11.813  0.00  0.00    +0.257 C 
BRANCH  28  29
ATOM     29  C   UNL     1      17.465  12.459  10.793  0.00  0.00    +0.200 C 
BRANCH  29   4
ATOM      4  O   UNL     1      18.761  12.384  11.374  0.00  0.00    -0.380 OA
ATOM     30  C   UNL     1      19.585  11.450  10.690  0.00  0.00    +0.194 C 
ENDBRANCH  29   4
ENDBRANCH  28  29
ENDBRANCH   3  28
ENDBRANCH  24   3
ENDBRANCH  18  22
BRANCH  14   9
ATOM      5  N   UNL     1      14.320   7.506  19.938  0.00  0.00    -0.287 NA
ATOM      9  C   UNL     1      13.333   7.388  18.847  0.00  0.00    +0.146 C 
ATOM     10  C   UNL     1      11.991   7.788  19.488  0.00  0.00    +0.030 C 
ATOM     11  C   UNL     1      12.313   8.054  20.951  0.00  0.00    +0.017 C 
ATOM     12  C   UNL     1      13.589   7.271  21.183  0.00  0.00    +0.085 C 
BRANCH   5  13
ATOM     13  C   UNL     1      15.453   6.603  19.788  0.00  0.00    +0.120 C 
BRANCH  13  15
ATOM     15  C   UNL     1      16.711   7.178  20.383  0.00  0.00    -0.030 A 
ATOM     16  C   UNL     1      17.790   6.343  20.674  0.00  0.00    +0.050 A 
ATOM     17  C   UNL     1      16.797   8.546  20.644  0.00  0.00    +0.005 A 
ATOM     19  C   UNL     1      18.955   6.876  21.226  0.00  0.00    +0.120 A 
ATOM     20  C   UNL     1      17.961   9.079  21.196  0.00  0.00    +0.004 A 
ATOM     21  C   UNL     1      19.041   8.243  21.487  0.00  0.00    +0.045 A 
BRANCH  19   2
ATOM      2  O   UNL     1      20.007   6.061  21.511  0.00  0.00    -0.495 OA
ATOM     26  C   UNL     1      21.162   6.179  20.681  0.00  0.00    +0.277 C 
ENDBRANCH  19   2
ENDBRANCH  13  15
ENDBRANCH   5  13
ENDBRANCH  14   9
TORSDOF 9
ENDMDL
MODEL 6
REMARK VINA RESULT:      -6.0      3.198      7.126
REMARK  Name = 45783446
REMARK  11 active torsions:
REMARK  status: ('A' for Active; 'I' for Inactive)
REMARK    1  A    between atoms: O_2  and  C_19
REMARK    2  A    between atoms: O_2  and  C_26
REMARK    3  A    between atoms: O_3  and  C_24
REMARK    4  A    between atoms: O_3  and  C_28
REMARK    5  A    between atoms: O_4  and  C_29
REMARK    6  A    between atoms: O_4  and  C_30
REMARK    7  A    between atoms: N_5  and  C_13
REMARK    8  A    between atoms: C_9  and  C_14
REMARK    9  A    between atoms: C_13  and  C_15
REMARK   10  A    between atoms: C_18  and  C_22
REMARK   11  A    between atoms: C_28  and  C_29
REMARK                            x       y       z     vdW  Elec       q    Type
REMARK                         _______ _______ _______ _____ _____    ______ ____
ROOT
ATOM      1  O   UNL     1      12.917   7.782  16.664  0.00  0.00    -0.336 OA
ATOM      6  N   UNL     1      13.802   9.559  17.700  0.00  0.00    -0.189 NA
ATOM      7  N   UNL     1      13.568   8.527  15.671  0.00  0.00    -0.054 NA
ATOM     14  C   UNL     1      13.104   8.460  17.826  0.00  0.00    +0.245 A 
ATOM     18  C   UNL     1      14.064   9.559  16.360  0.00  0.00    +0.221 A 
ENDROOT
BRANCH  18  22
ATOM      8  N   UNL     1      14.954  10.518  14.398  0.00  0.00    -0.252 NA
ATOM     22  C   UNL     1      14.824  10.605  15.740  0.00  0.00    +0.115 A 
ATOM     23  C   UNL     1      15.372  11.621  16.508  0.00  0.00    +0.077 A 
ATOM     24  C   UNL     1      16.099  12.610  15.856  0.00  0.00    +0.124 A 
ATOM     25  C   UNL     1      15.668  11.497  13.798  0.00  0.00    +0.115 A 
ATOM     27  C   UNL     1      16.255  12.554  14.476  0.00  0.00    +0.065 A 
BRANCH  24   3
ATOM      3  O   UNL     1      16.656  13.628  16.566  0.00  0.00    -0.490 OA
BRANCH   3  28
ATOM     28  C   UNL     1      17.087  13.334  17.894  0.00  0.00    +0.257 C 
BRANCH  28  29
ATOM     29  C   UNL     1      16.359  14.246  18.864  0.00  0.00    +0.200 C 
BRANCH  29   4
ATOM      4  O   UNL     1      15.919  13.480  19.979  0.00  0.00    -0.380 OA
ATOM     30  C   UNL     1      15.092  14.247  20.843  0.00  0.00    +0.194 C 
ENDBRANCH  29   4
ENDBRANCH  28  29
ENDBRANCH   3  28
ENDBRANCH  24   3
ENDBRANCH  18  22
BRANCH  14   9
ATOM      5  N   UNL     1      13.371   7.957  20.249  0.00  0.00    -0.287 NA
ATOM      9  C   UNL     1      12.490   7.851  19.069  0.00  0.00    +0.146 C 
ATOM     10  C   UNL     1      11.184   8.551  19.491  0.00  0.00    +0.030 C 
ATOM     11  C   UNL     1      11.404   8.962  20.939  0.00  0.00    +0.017 C 
ATOM     12  C   UNL     1      12.492   8.021  21.417  0.00  0.00    +0.085 C 
BRANCH   5  13
ATOM     13  C   UNL     1      14.334   6.868  20.347  0.00  0.00    +0.120 C 
BRANCH  13  15
ATOM     15  C   UNL     1      15.718   7.371  20.662  0.00  0.00    -0.030 A 
ATOM     16  C   UNL     1      15.947   8.740  20.805  0.00  0.00    +0.050 A 
ATOM     17  C   UNL     1      16.771   6.467  20.811  0.00  0.00    +0.005 A 
ATOM     19  C   UNL     1      17.230   9.205  21.097  0.00  0.00    +0.120 A 
ATOM     20  C   UNL     1      18.053   6.933  21.102  0.00  0.00    +0.004 A 
ATOM     21  C   UNL     1      18.282   8.302  21.246  0.00  0.00    +0.045 A 
BRANCH  19   2
ATOM      2  O   UNL     1      17.453  10.539  21.235  0.00  0.00    -0.495 OA
ATOM     26  C   UNL     1      18.577  11.085  20.546  0.00  0.00    +0.277 C 
ENDBRANCH  19   2
ENDBRANCH  13  15
ENDBRANCH   5  13
ENDBRANCH  14   9
TORSDOF 9
ENDMDL
MODEL 7
REMARK VINA RESULT:      -5.9      3.229      8.234
REMARK  Name = 45783446
REMARK  11 active torsions:
REMARK  status: ('A' for Active; 'I' for Inactive)
REMARK    1  A    between atoms: O_2  and  C_19
REMARK    2  A    between atoms: O_2  and  C_26
REMARK    3  A    between atoms: O_3  and  C_24
REMARK    4  A    between atoms: O_3  and  C_28
REMARK    5  A    between atoms: O_4  and  C_29
REMARK    6  A    between atoms: O_4  and  C_30
REMARK    7  A    between atoms: N_5  and  C_13
REMARK    8  A    between atoms: C_9  and  C_14
REMARK    9  A    between atoms: C_13  and  C_15
REMARK   10  A    between atoms: C_18  and  C_22
REMARK   11  A    between atoms: C_28  and  C_29
REMARK                            x       y       z     vdW  Elec       q    Type
REMARK                         _______ _______ _______ _____ _____    ______ ____
ROOT
ATOM      1  O   UNL     1      16.892  11.565  20.568  0.00  0.00    -0.336 OA
ATOM      6  N   UNL     1      15.984  11.095  22.560  0.00  0.00    -0.189 NA
ATOM      7  N   UNL     1      15.523  11.834  20.444  0.00  0.00    -0.054 NA
ATOM     14  C   UNL     1      17.078  11.134  21.843  0.00  0.00    +0.245 A 
ATOM     18  C   UNL     1      15.056  11.533  21.660  0.00  0.00    +0.221 A 
ENDROOT
BRANCH  18  22
ATOM      8  N   UNL     1      13.291  12.863  22.482  0.00  0.00    -0.252 NA
ATOM     22  C   UNL     1      13.670  11.656  22.006  0.00  0.00    +0.115 A 
ATOM     23  C   UNL     1      12.810  10.581  21.845  0.00  0.00    +0.077 A 
ATOM     24  C   UNL     1      11.477  10.756  22.196  0.00  0.00    +0.124 A 
ATOM     25  C   UNL     1      11.987  12.996  22.813  0.00  0.00    +0.115 A 
ATOM     27  C   UNL     1      11.049  11.983  22.691  0.00  0.00    +0.065 A 
BRANCH  24   3
ATOM      3  O   UNL     1      10.594   9.731  22.057  0.00  0.00    -0.490 OA
BRANCH   3  28
ATOM     28  C   UNL     1      10.942   8.487  22.665  0.00  0.00    +0.257 C 
BRANCH  28  29
ATOM     29  C   UNL     1      10.239   7.362  21.929  0.00  0.00    +0.200 C 
BRANCH  29   4
ATOM      4  O   UNL     1      11.028   6.976  20.810  0.00  0.00    -0.380 OA
ATOM     30  C   UNL     1      12.376   6.727  21.186  0.00  0.00    +0.194 C 
ENDBRANCH  29   4
ENDBRANCH  28  29
ENDBRANCH   3  28
ENDBRANCH  24   3
ENDBRANCH  18  22
BRANCH  14   9
ATOM      5  N   UNL     1      19.043   9.663  21.432  0.00  0.00    -0.287 NA
ATOM      9  C   UNL     1      18.496  10.774  22.235  0.00  0.00    +0.146 C 
ATOM     10  C   UNL     1      19.484  11.936  22.021  0.00  0.00    +0.030 C 
ATOM     11  C   UNL     1      20.582  11.365  21.136  0.00  0.00    +0.017 C 
ATOM     12  C   UNL     1      20.490   9.871  21.371  0.00  0.00    +0.085 C 
BRANCH   5  13
ATOM     13  C   UNL     1      18.699   8.349  21.960  0.00  0.00    +0.120 C 
BRANCH  13  15
ATOM     15  C   UNL     1      18.085   7.465  20.907  0.00  0.00    -0.030 A 
ATOM     16  C   UNL     1      16.853   7.802  20.346  0.00  0.00    +0.050 A 
ATOM     17  C   UNL     1      18.747   6.309  20.494  0.00  0.00    +0.005 A 
ATOM     19  C   UNL     1      16.283   6.982  19.371  0.00  0.00    +0.120 A 
ATOM     20  C   UNL     1      18.178   5.490  19.519  0.00  0.00    +0.004 A 
ATOM     21  C   UNL     1      16.946   5.827  18.957  0.00  0.00    +0.045 A 
BRANCH  19   2
ATOM      2  O   UNL     1      15.082   7.310  18.824  0.00  0.00    -0.495 OA
ATOM     26  C   UNL     1      14.547   8.593  19.152  0.00  0.00    +0.277 C 
ENDBRANCH  19   2
ENDBRANCH  13  15
ENDBRANCH   5  13
ENDBRANCH  14   9
TORSDOF 9
ENDMDL
MODEL 8
REMARK VINA RESULT:      -5.8     26.194     29.033
REMARK  Name = 45783446
REMARK  11 active torsions:
REMARK  status: ('A' for Active; 'I' for Inactive)
REMARK    1  A    between atoms: O_2  and  C_19
REMARK    2  A    between atoms: O_2  and  C_26
REMARK    3  A    between atoms: O_3  and  C_24
REMARK    4  A    between atoms: O_3  and  C_28
REMARK    5  A    between atoms: O_4  and  C_29
REMARK    6  A    between atoms: O_4  and  C_30
REMARK    7  A    between atoms: N_5  and  C_13
REMARK    8  A    between atoms: C_9  and  C_14
REMARK    9  A    between atoms: C_13  and  C_15
REMARK   10  A    between atoms: C_18  and  C_22
REMARK   11  A    between atoms: C_28  and  C_29
REMARK                            x       y       z     vdW  Elec       q    Type
REMARK                         _______ _______ _______ _____ _____    ______ ____
ROOT
ATOM      1  O   UNL     1      -5.797 -12.640  17.616  0.00  0.00    -0.336 OA
ATOM      6  N   UNL     1      -5.158 -10.515  17.311  0.00  0.00    -0.189 NA
ATOM      7  N   UNL     1      -4.726 -12.681  16.714  0.00  0.00    -0.054 NA
ATOM     14  C   UNL     1      -5.986 -11.329  17.916  0.00  0.00    +0.245 A 
ATOM     18  C   UNL     1      -4.405 -11.391  16.584  0.00  0.00    +0.221 A 
ENDROOT
BRANCH  18  22
ATOM      8  N   UNL     1      -2.185 -10.623  16.365  0.00  0.00    -0.252 NA
ATOM     22  C   UNL     1      -3.338 -10.943  15.736  0.00  0.00    +0.115 A 
ATOM     23  C   UNL     1      -3.522 -10.858  14.366  0.00  0.00    +0.077 A 
ATOM     24  C   UNL     1      -2.456 -10.418  13.591  0.00  0.00    +0.124 A 
ATOM     25  C   UNL     1      -1.170 -10.198  15.580  0.00  0.00    +0.115 A 
ATOM     27  C   UNL     1      -1.253 -10.079  14.202  0.00  0.00    +0.065 A 
BRANCH  24   3
ATOM      3  O   UNL     1      -2.587 -10.318  12.241  0.00  0.00    -0.490 OA
BRANCH   3  28
ATOM     28  C   UNL     1      -3.915 -10.267  11.719  0.00  0.00    +0.257 C 
BRANCH  28  29
ATOM     29  C   UNL     1      -3.851 -10.256  10.204  0.00  0.00    +0.200 C 
BRANCH  29   4
ATOM      4  O   UNL     1      -3.860  -8.909   9.749  0.00  0.00    -0.380 OA
ATOM     30  C   UNL     1      -5.077  -8.255  10.083  0.00  0.00    +0.194 C 
ENDBRANCH  29   4
ENDBRANCH  28  29
ENDBRANCH   3  28
ENDBRANCH  24   3
ENDBRANCH  18  22
BRANCH  14   9
ATOM      5  N   UNL     1      -8.336 -10.566  18.213  0.00  0.00    -0.287 NA
ATOM      9  C   UNL     1      -7.103 -11.013  18.889  0.00  0.00    +0.146 C 
ATOM     10  C   UNL     1      -7.532 -12.238  19.718  0.00  0.00    +0.030 C 
ATOM     11  C   UNL     1      -9.032 -12.364  19.493  0.00  0.00    +0.017 C 
ATOM     12  C   UNL     1      -9.449 -10.968  19.074  0.00  0.00    +0.085 C 
BRANCH   5  13
ATOM     13  C   UNL     1      -8.351  -9.137  17.930  0.00  0.00    +0.120 C 
BRANCH  13  15
ATOM     15  C   UNL     1      -9.241  -8.806  16.761  0.00  0.00    -0.030 A 
ATOM     16  C   UNL     1     -10.169  -7.770  16.863  0.00  0.00    +0.050 A 
ATOM     17  C   UNL     1      -9.137  -9.537  15.577  0.00  0.00    +0.005 A 
ATOM     19  C   UNL     1     -10.994  -7.464  15.780  0.00  0.00    +0.120 A 
ATOM     20  C   UNL     1      -9.962  -9.231  14.495  0.00  0.00    +0.004 A 
ATOM     21  C   UNL     1     -10.890  -8.194  14.596  0.00  0.00    +0.045 A 
BRANCH  19   2
ATOM      2  O   UNL     1     -11.900  -6.454  15.880  0.00  0.00    -0.495 OA
ATOM     26  C   UNL     1     -12.092  -5.637  14.725  0.00  0.00    +0.277 C 
ENDBRANCH  19   2
ENDBRANCH  13  15
ENDBRANCH   5  13
ENDBRANCH  14   9
TORSDOF 9
ENDMDL
MODEL 9
REMARK VINA RESULT:      -5.8     27.028     29.345
REMARK  Name = 45783446
REMARK  11 active torsions:
REMARK  status: ('A' for Active; 'I' for Inactive)
REMARK    1  A    between atoms: O_2  and  C_19
REMARK    2  A    between atoms: O_2  and  C_26
REMARK    3  A    between atoms: O_3  and  C_24
REMARK    4  A    between atoms: O_3  and  C_28
REMARK    5  A    between atoms: O_4  and  C_29
REMARK    6  A    between atoms: O_4  and  C_30
REMARK    7  A    between atoms: N_5  and  C_13
REMARK    8  A    between atoms: C_9  and  C_14
REMARK    9  A    between atoms: C_13  and  C_15
REMARK   10  A    between atoms: C_18  and  C_22
REMARK   11  A    between atoms: C_28  and  C_29
REMARK                            x       y       z     vdW  Elec       q    Type
REMARK                         _______ _______ _______ _____ _____    ______ ____
ROOT
ATOM      1  O   UNL     1      -4.538 -12.356  16.503  0.00  0.00    -0.336 OA
ATOM      6  N   UNL     1      -4.678 -10.283  15.668  0.00  0.00    -0.189 NA
ATOM      7  N   UNL     1      -3.940 -12.405  15.237  0.00  0.00    -0.054 NA
ATOM     14  C   UNL     1      -4.945 -11.072  16.677  0.00  0.00    +0.245 A 
ATOM     18  C   UNL     1      -4.061 -11.146  14.808  0.00  0.00    +0.221 A 
ENDROOT
BRANCH  18  22
ATOM      8  N   UNL     1      -2.236 -10.727  13.373  0.00  0.00    -0.252 NA
ATOM     22  C   UNL     1      -3.579 -10.717  13.527  0.00  0.00    +0.115 A 
ATOM     23  C   UNL     1      -4.469 -10.327  12.540  0.00  0.00    +0.077 A 
ATOM     24  C   UNL     1      -3.949  -9.921  11.317  0.00  0.00    +0.124 A 
ATOM     25  C   UNL     1      -1.766 -10.325  12.172  0.00  0.00    +0.115 A 
ATOM     27  C   UNL     1      -2.572  -9.916  11.121  0.00  0.00    +0.065 A 
BRANCH  24   3
ATOM      3  O   UNL     1      -4.781  -9.528  10.316  0.00  0.00    -0.490 OA
BRANCH   3  28
ATOM     28  C   UNL     1      -5.751  -8.529  10.632  0.00  0.00    +0.257 C 
BRANCH  28  29
ATOM     29  C   UNL     1      -7.025  -8.813   9.858  0.00  0.00    +0.200 C 
BRANCH  29   4
ATOM      4  O   UNL     1      -7.043  -8.011   8.684  0.00  0.00    -0.380 OA
ATOM     30  C   UNL     1      -8.022  -8.465   7.759  0.00  0.00    +0.194 C 
ENDBRANCH  29   4
ENDBRANCH  28  29
ENDBRANCH   3  28
ENDBRANCH  24   3
ENDBRANCH  18  22
BRANCH  14   9
ATOM      5  N   UNL     1      -7.083 -10.538  17.834  0.00  0.00    -0.287 NA
ATOM      9  C   UNL     1      -5.631 -10.753  17.989  0.00  0.00    +0.146 C 
ATOM     10  C   UNL     1      -5.511 -11.895  19.015  0.00  0.00    +0.030 C 
ATOM     11  C   UNL     1      -6.942 -12.214  19.423  0.00  0.00    +0.017 C 
ATOM     12  C   UNL     1      -7.698 -10.941  19.099  0.00  0.00    +0.085 C 
BRANCH   5  13
ATOM     13  C   UNL     1      -7.426  -9.170  17.469  0.00  0.00    +0.120 C 
BRANCH  13  15
ATOM     15  C   UNL     1      -8.448  -9.124  16.364  0.00  0.00    -0.030 A 
ATOM     16  C   UNL     1      -9.537  -8.257  16.457  0.00  0.00    +0.050 A 
ATOM     17  C   UNL     1      -8.307  -9.950  15.248  0.00  0.00    +0.005 A 
ATOM     19  C   UNL     1     -10.485  -8.216  15.434  0.00  0.00    +0.120 A 
ATOM     20  C   UNL     1      -9.254  -9.909  14.225  0.00  0.00    +0.004 A 
ATOM     21  C   UNL     1     -10.343  -9.041  14.318  0.00  0.00    +0.045 A 
BRANCH  19   2
ATOM      2  O   UNL     1     -11.547  -7.371  15.525  0.00  0.00    -0.495 OA
ATOM     26  C   UNL     1     -11.265  -5.972  15.542  0.00  0.00    +0.277 C 
ENDBRANCH  19   2
ENDBRANCH  13  15
ENDBRANCH   5  13
ENDBRANCH  14   9
TORSDOF 9
ENDMDL
MODEL 10
REMARK VINA RESULT:      -5.7     16.475     20.387
REMARK  Name = 45783446
REMARK  11 active torsions:
REMARK  status: ('A' for Active; 'I' for Inactive)
REMARK    1  A    between atoms: O_2  and  C_19
REMARK    2  A    between atoms: O_2  and  C_26
REMARK    3  A    between atoms: O_3  and  C_24
REMARK    4  A    between atoms: O_3  and  C_28
REMARK    5  A    between atoms: O_4  and  C_29
REMARK    6  A    between atoms: O_4  and  C_30
REMARK    7  A    between atoms: N_5  and  C_13
REMARK    8  A    between atoms: C_9  and  C_14
REMARK    9  A    between atoms: C_13  and  C_15
REMARK   10  A    between atoms: C_18  and  C_22
REMARK   11  A    between atoms: C_28  and  C_29
REMARK                            x       y       z     vdW  Elec       q    Type
REMARK                         _______ _______ _______ _____ _____    ______ ____
ROOT
ATOM      1  O   UNL     1      13.285   5.734   2.251  0.00  0.00    -0.336 OA
ATOM      6  N   UNL     1      11.220   4.868   2.233  0.00  0.00    -0.189 NA
ATOM      7  N   UNL     1      12.542   6.482   3.172  0.00  0.00    -0.054 NA
ATOM     14  C   UNL     1      12.432   4.806   1.744  0.00  0.00    +0.245 A 
ATOM     18  C   UNL     1      11.335   5.912   3.105  0.00  0.00    +0.221 A 
ENDROOT
BRANCH  18  22
ATOM      8  N   UNL     1       9.362   7.193   3.270  0.00  0.00    -0.252 NA
ATOM     22  C   UNL     1      10.225   6.361   3.894  0.00  0.00    +0.115 A 
ATOM     23  C   UNL     1      10.085   5.943   5.208  0.00  0.00    +0.077 A 
ATOM     24  C   UNL     1       8.991   6.409   5.926  0.00  0.00    +0.124 A 
ATOM     25  C   UNL     1       8.310   7.626   3.999  0.00  0.00    +0.115 A 
ATOM     27  C   UNL     1       8.081   7.267   5.319  0.00  0.00    +0.065 A 
BRANCH  24   3
ATOM      3  O   UNL     1       8.810   6.028   7.220  0.00  0.00    -0.490 OA
BRANCH   3  28
ATOM     28  C   UNL     1       9.979   5.697   7.969  0.00  0.00    +0.257 C 
BRANCH  28  29
ATOM     29  C   UNL     1       9.878   4.256   8.433  0.00  0.00    +0.200 C 
BRANCH  29   4
ATOM      4  O   UNL     1       9.971   4.218   9.851  0.00  0.00    -0.380 OA
ATOM     30  C   UNL     1       8.760   4.637  10.464  0.00  0.00    +0.194 C 
ENDBRANCH  29   4
ENDBRANCH  28  29
ENDBRANCH   3  28
ENDBRANCH  24   3
ENDBRANCH  18  22
BRANCH  14   9
ATOM      5  N   UNL     1      12.612   4.214  -0.667  0.00  0.00    -0.287 NA
ATOM      9  C   UNL     1      13.002   3.856   0.711  0.00  0.00    +0.146 C 
ATOM     10  C   UNL     1      14.542   3.853   0.694  0.00  0.00    +0.030 C 
ATOM     11  C   UNL     1      14.924   4.159  -0.747  0.00  0.00    +0.017 C 
ATOM     12  C   UNL     1      13.695   3.753  -1.536  0.00  0.00    +0.085 C 
BRANCH   5  13
ATOM     13  C   UNL     1      11.322   3.663  -1.059  0.00  0.00    +0.120 C 
BRANCH  13  15
ATOM     15  C   UNL     1      10.420   4.714  -1.652  0.00  0.00    -0.030 A 
ATOM     16  C   UNL     1       9.637   4.414  -2.766  0.00  0.00    +0.050 A 
ATOM     17  C   UNL     1      10.370   5.989  -1.085  0.00  0.00    +0.005 A 
ATOM     19  C   UNL     1       8.803   5.389  -3.315  0.00  0.00    +0.120 A 
ATOM     20  C   UNL     1       9.536   6.963  -1.634  0.00  0.00    +0.004 A 
ATOM     21  C   UNL     1       8.752   6.662  -2.748  0.00  0.00    +0.045 A 
BRANCH  19   2
ATOM      2  O   UNL     1       8.040   5.096  -4.402  0.00  0.00    -0.495 OA
ATOM     26  C   UNL     1       6.841   5.851  -4.577  0.00  0.00    +0.277 C 
ENDBRANCH  19   2
ENDBRANCH  13  15
ENDBRANCH   5  13
ENDBRANCH  14   9
TORSDOF 9
ENDMDL
