MODEL 1
REMARK VINA RESULT:      -6.6      0.000      0.000
REMARK  Name = 26742618
REMARK  10 active torsions:
REMARK  status: ('A' for Active; 'I' for Inactive)
REMARK    1  A    between atoms: O_4  and  C_28
REMARK    2  A    between atoms: O_4  and  C_29
REMARK    3  A    between atoms: N_6  and  C_20
REMARK    4  A    between atoms: N_6  and  C_21
REMARK    5  A    between atoms: C_9  and  C_14
REMARK    6  A    between atoms: C_10  and  C_15
REMARK    7  A    between atoms: C_14  and  C_17
REMARK    8  A    between atoms: C_15  and  C_16
REMARK    9  A    between atoms: C_19  and  C_22
REMARK   10  A    between atoms: C_20  and  C_23
REMARK                            x       y       z     vdW  Elec       q    Type
REMARK                         _______ _______ _______ _____ _____    ______ ____
ROOT
ATOM      5  N   UNL     1     -18.744   2.383  24.296  0.00  0.00    -0.316 NA
ATOM      9  C   UNL     1     -17.051   3.788  26.263  0.00  0.00    +0.004 C 
ATOM     10  C   UNL     1     -16.722   3.751  24.751  0.00  0.00    +0.012 C 
ATOM     11  C   UNL     1     -18.562   3.574  26.453  0.00  0.00    +0.019 C 
ATOM     12  C   UNL     1     -17.302   2.498  24.074  0.00  0.00    +0.085 C 
ATOM     13  C   UNL     1     -19.072   2.334  25.720  0.00  0.00    +0.081 C 
ATOM     30  H   UNL     1     -19.090   1.539  23.842  0.00  0.00    +0.122 HD
ENDROOT
BRANCH   9  14
ATOM     14  C   UNL     1     -16.248   2.786  27.100  0.00  0.00    +0.100 C 
BRANCH  14  17
ATOM      1  O   UNL     1     -16.103   4.443  28.826  0.00  0.00    -0.276 OA
ATOM      6  N   UNL     1     -15.867   2.230  29.481  0.00  0.00    -0.296 N 
ATOM     17  C   UNL     1     -16.069   3.243  28.538  0.00  0.00    +0.216 C 
ATOM     21  C   UNL     1     -15.679   2.510  30.900  0.00  0.00    +0.132 C 
BRANCH   6  20
ATOM     20  C   UNL     1     -15.829   0.816  29.116  0.00  0.00    +0.202 C 
BRANCH  20  23
ATOM      3  O   UNL     1     -13.563   0.395  29.858  0.00  0.00    -0.274 OA
ATOM      8  N   UNL     1     -15.263  -0.919  30.675  0.00  0.00    -0.328 N 
ATOM     23  C   UNL     1     -14.757   0.112  29.914  0.00  0.00    +0.228 C 
ATOM     31  H   UNL     1     -16.252  -1.145  30.695  0.00  0.00    +0.145 HD
ATOM     32  H   UNL     1     -14.653  -1.490  31.252  0.00  0.00    +0.145 HD
ENDBRANCH  20  23
ENDBRANCH   6  20
ENDBRANCH  14  17
ENDBRANCH   9  14
BRANCH  10  15
ATOM     15  C   UNL     1     -15.226   3.875  24.460  0.00  0.00    +0.064 C 
BRANCH  15  16
ATOM      2  O   UNL     1     -15.324   6.619  22.130  0.00  0.00    -0.354 OA
ATOM      7  N   UNL     1     -15.891   5.826  23.121  0.00  0.00    -0.083 NA
ATOM     16  C   UNL     1     -14.957   4.916  23.412  0.00  0.00    +0.085 A 
ATOM     18  C   UNL     1     -13.792   5.081  22.643  0.00  0.00    +0.076 A 
ATOM     19  C   UNL     1     -14.074   6.165  21.854  0.00  0.00    +0.167 A 
BRANCH  19  22
ATOM     22  C   UNL     1     -13.360   6.890  20.843  0.00  0.00    +0.020 A 
ATOM     24  C   UNL     1     -11.966   6.925  20.864  0.00  0.00    +0.015 A 
ATOM     25  C   UNL     1     -14.060   7.559  19.839  0.00  0.00    +0.015 A 
ATOM     26  C   UNL     1     -11.271   7.630  19.881  0.00  0.00    +0.046 A 
ATOM     27  C   UNL     1     -13.366   8.263  18.856  0.00  0.00    +0.046 A 
ATOM     28  C   UNL     1     -11.971   8.299  18.877  0.00  0.00    +0.120 A 
BRANCH  28   4
ATOM      4  O   UNL     1     -11.294   8.986  17.916  0.00  0.00    -0.495 OA
ATOM     29  C   UNL     1     -10.577   8.218  16.952  0.00  0.00    +0.277 C 
ENDBRANCH  28   4
ENDBRANCH  19  22
ENDBRANCH  15  16
ENDBRANCH  10  15
TORSDOF 8
ENDMDL
MODEL 2
REMARK VINA RESULT:      -6.5      8.574     11.781
REMARK  Name = 26742618
REMARK  10 active torsions:
REMARK  status: ('A' for Active; 'I' for Inactive)
REMARK    1  A    between atoms: O_4  and  C_28
REMARK    2  A    between atoms: O_4  and  C_29
REMARK    3  A    between atoms: N_6  and  C_20
REMARK    4  A    between atoms: N_6  and  C_21
REMARK    5  A    between atoms: C_9  and  C_14
REMARK    6  A    between atoms: C_10  and  C_15
REMARK    7  A    between atoms: C_14  and  C_17
REMARK    8  A    between atoms: C_15  and  C_16
REMARK    9  A    between atoms: C_19  and  C_22
REMARK   10  A    between atoms: C_20  and  C_23
REMARK                            x       y       z     vdW  Elec       q    Type
REMARK                         _______ _______ _______ _____ _____    ______ ____
ROOT
ATOM      5  N   UNL     1     -14.310  10.045  30.932  0.00  0.00    -0.316 NA
ATOM      9  C   UNL     1     -12.028   9.030  32.503  0.00  0.00    +0.004 C 
ATOM     10  C   UNL     1     -13.418   8.350  32.512  0.00  0.00    +0.012 C 
ATOM     11  C   UNL     1     -11.864   9.819  31.193  0.00  0.00    +0.019 C 
ATOM     12  C   UNL     1     -14.542   9.352  32.199  0.00  0.00    +0.085 C 
ATOM     13  C   UNL     1     -13.036  10.763  30.930  0.00  0.00    +0.081 C 
ATOM     30  H   UNL     1     -15.068  10.705  30.763  0.00  0.00    +0.122 HD
ENDROOT
BRANCH   9  14
ATOM     14  C   UNL     1     -11.765   9.928  33.718  0.00  0.00    +0.100 C 
BRANCH  14  17
ATOM      1  O   UNL     1      -9.388   9.742  33.476  0.00  0.00    -0.276 OA
ATOM      6  N   UNL     1     -10.222   9.705  35.640  0.00  0.00    -0.296 N 
ATOM     17  C   UNL     1     -10.348   9.784  34.249  0.00  0.00    +0.216 C 
ATOM     21  C   UNL     1      -8.930   9.566  36.301  0.00  0.00    +0.132 C 
BRANCH   6  20
ATOM     20  C   UNL     1     -11.376   9.757  36.535  0.00  0.00    +0.202 C 
BRANCH  20  23
ATOM      3  O   UNL     1     -11.851   7.389  36.712  0.00  0.00    -0.274 OA
ATOM      8  N   UNL     1     -11.286   8.555  38.611  0.00  0.00    -0.328 N 
ATOM     23  C   UNL     1     -11.519   8.438  37.258  0.00  0.00    +0.228 C 
ATOM     31  H   UNL     1     -11.027   9.435  39.043  0.00  0.00    +0.145 HD
ATOM     32  H   UNL     1     -11.362   7.750  39.225  0.00  0.00    +0.145 HD
ENDBRANCH  20  23
ENDBRANCH   6  20
ENDBRANCH  14  17
ENDBRANCH   9  14
BRANCH  10  15
ATOM     15  C   UNL     1     -13.712   7.603  33.814  0.00  0.00    +0.064 C 
BRANCH  15  16
ATOM      2  O   UNL     1     -14.336   4.063  34.019  0.00  0.00    -0.354 OA
ATOM      7  N   UNL     1     -14.195   5.322  34.591  0.00  0.00    -0.083 NA
ATOM     16  C   UNL     1     -13.928   6.138  33.567  0.00  0.00    +0.085 A 
ATOM     18  C   UNL     1     -13.888   5.458  32.338  0.00  0.00    +0.076 A 
ATOM     19  C   UNL     1     -14.150   4.157  32.677  0.00  0.00    +0.167 A 
BRANCH  19  22
ATOM     22  C   UNL     1     -14.267   2.928  31.946  0.00  0.00    +0.020 A 
ATOM     24  C   UNL     1     -14.053   2.914  30.568  0.00  0.00    +0.015 A 
ATOM     25  C   UNL     1     -14.593   1.748  32.614  0.00  0.00    +0.015 A 
ATOM     26  C   UNL     1     -14.166   1.719  29.857  0.00  0.00    +0.046 A 
ATOM     27  C   UNL     1     -14.706   0.554  31.904  0.00  0.00    +0.046 A 
ATOM     28  C   UNL     1     -14.492   0.539  30.526  0.00  0.00    +0.120 A 
BRANCH  28   4
ATOM      4  O   UNL     1     -14.602  -0.628  29.832  0.00  0.00    -0.495 OA
ATOM     29  C   UNL     1     -13.392  -1.222  29.366  0.00  0.00    +0.277 C 
ENDBRANCH  28   4
ENDBRANCH  19  22
ENDBRANCH  15  16
ENDBRANCH  10  15
TORSDOF 8
ENDMDL
MODEL 3
REMARK VINA RESULT:      -6.4     20.206     22.625
REMARK  Name = 26742618
REMARK  10 active torsions:
REMARK  status: ('A' for Active; 'I' for Inactive)
REMARK    1  A    between atoms: O_4  and  C_28
REMARK    2  A    between atoms: O_4  and  C_29
REMARK    3  A    between atoms: N_6  and  C_20
REMARK    4  A    between atoms: N_6  and  C_21
REMARK    5  A    between atoms: C_9  and  C_14
REMARK    6  A    between atoms: C_10  and  C_15
REMARK    7  A    between atoms: C_14  and  C_17
REMARK    8  A    between atoms: C_15  and  C_16
REMARK    9  A    between atoms: C_19  and  C_22
REMARK   10  A    between atoms: C_20  and  C_23
REMARK                            x       y       z     vdW  Elec       q    Type
REMARK                         _______ _______ _______ _____ _____    ______ ____
ROOT
ATOM      5  N   UNL     1      -3.171 -13.726  11.989  0.00  0.00    -0.316 NA
ATOM      9  C   UNL     1      -3.145 -10.918  11.085  0.00  0.00    +0.004 C 
ATOM     10  C   UNL     1      -2.157 -11.465  12.142  0.00  0.00    +0.012 C 
ATOM     11  C   UNL     1      -3.634 -12.081  10.206  0.00  0.00    +0.019 C 
ATOM     12  C   UNL     1      -2.745 -12.665  12.902  0.00  0.00    +0.085 C 
ATOM     13  C   UNL     1      -4.167 -13.251  11.031  0.00  0.00    +0.081 C 
ATOM     30  H   UNL     1      -3.563 -14.499  12.527  0.00  0.00    +0.122 HD
ENDROOT
BRANCH   9  14
ATOM     14  C   UNL     1      -4.330 -10.147  11.679  0.00  0.00    +0.100 C 
BRANCH  14  17
ATOM      1  O   UNL     1      -4.376  -8.426  10.011  0.00  0.00    -0.276 OA
ATOM      6  N   UNL     1      -6.394  -9.459  10.501  0.00  0.00    -0.296 N 
ATOM     17  C   UNL     1      -5.018  -9.261  10.654  0.00  0.00    +0.216 C 
ATOM     21  C   UNL     1      -7.194  -8.687   9.557  0.00  0.00    +0.132 C 
BRANCH   6  20
ATOM     20  C   UNL     1      -7.133 -10.454  11.274  0.00  0.00    +0.202 C 
BRANCH  20  23
ATOM      3  O   UNL     1      -9.258  -9.661  12.122  0.00  0.00    -0.274 OA
ATOM      8  N   UNL     1      -7.345  -9.203  13.312  0.00  0.00    -0.328 N 
ATOM     23  C   UNL     1      -8.042  -9.760  12.261  0.00  0.00    +0.228 C 
ATOM     31  H   UNL     1      -6.338  -9.285  13.399  0.00  0.00    +0.145 HD
ATOM     32  H   UNL     1      -7.827  -8.692  14.045  0.00  0.00    +0.145 HD
ENDBRANCH  20  23
ENDBRANCH   6  20
ENDBRANCH  14  17
ENDBRANCH   9  14
BRANCH  10  15
ATOM     15  C   UNL     1      -1.672 -10.394  13.121  0.00  0.00    +0.064 C 
BRANCH  15  16
ATOM      2  O   UNL     1      -2.383 -10.977  16.602  0.00  0.00    -0.354 OA
ATOM      7  N   UNL     1      -1.511 -10.881  15.525  0.00  0.00    -0.083 NA
ATOM     16  C   UNL     1      -2.285 -10.578  14.479  0.00  0.00    +0.085 A 
ATOM     18  C   UNL     1      -3.641 -10.471  14.832  0.00  0.00    +0.076 A 
ATOM     19  C   UNL     1      -3.649 -10.731  16.178  0.00  0.00    +0.167 A 
BRANCH  19  22
ATOM     22  C   UNL     1      -4.666 -10.794  17.187  0.00  0.00    +0.020 A 
ATOM     24  C   UNL     1      -5.892 -10.161  16.982  0.00  0.00    +0.015 A 
ATOM     25  C   UNL     1      -4.429 -11.488  18.374  0.00  0.00    +0.015 A 
ATOM     26  C   UNL     1      -6.881 -10.222  17.963  0.00  0.00    +0.046 A 
ATOM     27  C   UNL     1      -5.418 -11.549  19.354  0.00  0.00    +0.046 A 
ATOM     28  C   UNL     1      -6.644 -10.916  19.149  0.00  0.00    +0.120 A 
BRANCH  28   4
ATOM      4  O   UNL     1      -7.610 -10.976  20.108  0.00  0.00    -0.495 OA
ATOM     29  C   UNL     1      -8.938 -11.263  19.673  0.00  0.00    +0.277 C 
ENDBRANCH  28   4
ENDBRANCH  19  22
ENDBRANCH  15  16
ENDBRANCH  10  15
TORSDOF 8
ENDMDL
MODEL 4
REMARK VINA RESULT:      -6.3     33.384     36.655
REMARK  Name = 26742618
REMARK  10 active torsions:
REMARK  status: ('A' for Active; 'I' for Inactive)
REMARK    1  A    between atoms: O_4  and  C_28
REMARK    2  A    between atoms: O_4  and  C_29
REMARK    3  A    between atoms: N_6  and  C_20
REMARK    4  A    between atoms: N_6  and  C_21
REMARK    5  A    between atoms: C_9  and  C_14
REMARK    6  A    between atoms: C_10  and  C_15
REMARK    7  A    between atoms: C_14  and  C_17
REMARK    8  A    between atoms: C_15  and  C_16
REMARK    9  A    between atoms: C_19  and  C_22
REMARK   10  A    between atoms: C_20  and  C_23
REMARK                            x       y       z     vdW  Elec       q    Type
REMARK                         _______ _______ _______ _____ _____    ______ ____
ROOT
ATOM      5  N   UNL     1      24.678   3.764  19.475  0.00  0.00    -0.316 NA
ATOM      9  C   UNL     1      22.987   3.103  21.801  0.00  0.00    +0.004 C 
ATOM     10  C   UNL     1      22.969   4.494  21.121  0.00  0.00    +0.012 C 
ATOM     11  C   UNL     1      23.469   2.054  20.785  0.00  0.00    +0.019 C 
ATOM     12  C   UNL     1      24.307   4.807  20.432  0.00  0.00    +0.085 C 
ATOM     13  C   UNL     1      24.782   2.453  20.113  0.00  0.00    +0.081 C 
ATOM     30  H   UNL     1      25.572   4.001  19.046  0.00  0.00    +0.122 HD
ENDROOT
BRANCH   9  14
ATOM     14  C   UNL     1      23.827   3.047  23.083  0.00  0.00    +0.100 C 
BRANCH  14  17
ATOM      1  O   UNL     1      22.169   3.173  24.808  0.00  0.00    -0.276 OA
ATOM      6  N   UNL     1      23.391   1.206  24.677  0.00  0.00    -0.296 N 
ATOM     17  C   UNL     1      23.047   2.497  24.264  0.00  0.00    +0.216 C 
ATOM     21  C   UNL     1      22.733   0.541  25.795  0.00  0.00    +0.132 C 
BRANCH   6  20
ATOM     20  C   UNL     1      24.436   0.425  24.017  0.00  0.00    +0.202 C 
BRANCH  20  23
ATOM      3  O   UNL     1      26.249   1.285  25.373  0.00  0.00    -0.274 OA
ATOM      8  N   UNL     1      26.010  -0.991  25.149  0.00  0.00    -0.328 N 
ATOM     23  C   UNL     1      25.639   0.318  24.923  0.00  0.00    +0.228 C 
ATOM     31  H   UNL     1      25.500  -1.775  24.755  0.00  0.00    +0.145 HD
ATOM     32  H   UNL     1      26.813  -1.213  25.728  0.00  0.00    +0.145 HD
ENDBRANCH  20  23
ENDBRANCH   6  20
ENDBRANCH  14  17
ENDBRANCH   9  14
BRANCH  10  15
ATOM     15  C   UNL     1      22.579   5.623  22.076  0.00  0.00    +0.064 C 
BRANCH  15  16
ATOM      2  O   UNL     1      19.120   6.494  22.569  0.00  0.00    -0.354 OA
ATOM      7  N   UNL     1      20.395   6.208  23.041  0.00  0.00    -0.083 NA
ATOM     16  C   UNL     1      21.124   5.971  21.947  0.00  0.00    +0.085 A 
ATOM     18  C   UNL     1      20.371   6.091  20.767  0.00  0.00    +0.076 A 
ATOM     19  C   UNL     1      19.118   6.421  21.213  0.00  0.00    +0.167 A 
BRANCH  19  22
ATOM     22  C   UNL     1      17.861   6.695  20.579  0.00  0.00    +0.020 A 
ATOM     24  C   UNL     1      17.045   7.718  21.060  0.00  0.00    +0.015 A 
ATOM     25  C   UNL     1      17.455   5.937  19.480  0.00  0.00    +0.015 A 
ATOM     26  C   UNL     1      15.822   7.984  20.443  0.00  0.00    +0.046 A 
ATOM     27  C   UNL     1      16.233   6.203  18.863  0.00  0.00    +0.046 A 
ATOM     28  C   UNL     1      15.417   7.227  19.345  0.00  0.00    +0.120 A 
BRANCH  28   4
ATOM      4  O   UNL     1      14.224   7.487  18.742  0.00  0.00    -0.495 OA
ATOM     29  C   UNL     1      14.153   8.651  17.920  0.00  0.00    +0.277 C 
ENDBRANCH  28   4
ENDBRANCH  19  22
ENDBRANCH  15  16
ENDBRANCH  10  15
TORSDOF 8
ENDMDL
MODEL 5
REMARK VINA RESULT:      -6.3     21.651     23.605
REMARK  Name = 26742618
REMARK  10 active torsions:
REMARK  status: ('A' for Active; 'I' for Inactive)
REMARK    1  A    between atoms: O_4  and  C_28
REMARK    2  A    between atoms: O_4  and  C_29
REMARK    3  A    between atoms: N_6  and  C_20
REMARK    4  A    between atoms: N_6  and  C_21
REMARK    5  A    between atoms: C_9  and  C_14
REMARK    6  A    between atoms: C_10  and  C_15
REMARK    7  A    between atoms: C_14  and  C_17
REMARK    8  A    between atoms: C_15  and  C_16
REMARK    9  A    between atoms: C_19  and  C_22
REMARK   10  A    between atoms: C_20  and  C_23
REMARK                            x       y       z     vdW  Elec       q    Type
REMARK                         _______ _______ _______ _____ _____    ______ ____
ROOT
ATOM      5  N   UNL     1      -3.524  -9.145   9.772  0.00  0.00    -0.316 NA
ATOM      9  C   UNL     1      -4.174 -11.455  11.489  0.00  0.00    +0.004 C 
ATOM     10  C   UNL     1      -3.268 -10.291  11.960  0.00  0.00    +0.012 C 
ATOM     11  C   UNL     1      -5.102 -10.948  10.372  0.00  0.00    +0.019 C 
ATOM     12  C   UNL     1      -2.565  -9.605  10.777  0.00  0.00    +0.085 C 
ATOM     13  C   UNL     1      -4.337 -10.243   9.253  0.00  0.00    +0.081 C 
ATOM     30  H   UNL     1      -3.023  -8.704   9.002  0.00  0.00    +0.122 HD
ENDROOT
BRANCH   9  14
ATOM     14  C   UNL     1      -3.403 -12.700  11.035  0.00  0.00    +0.100 C 
BRANCH  14  17
ATOM      1  O   UNL     1      -5.204 -14.281  11.018  0.00  0.00    -0.276 OA
ATOM      6  N   UNL     1      -3.376 -14.797  12.349  0.00  0.00    -0.296 N 
ATOM     17  C   UNL     1      -4.088 -13.990  11.455  0.00  0.00    +0.216 C 
ATOM     21  C   UNL     1      -3.899 -16.065  12.843  0.00  0.00    +0.132 C 
BRANCH   6  20
ATOM     20  C   UNL     1      -2.054 -14.431  12.853  0.00  0.00    +0.202 C 
BRANCH  20  23
ATOM      3  O   UNL     1      -0.633 -16.189  13.721  0.00  0.00    -0.274 OA
ATOM      8  N   UNL     1      -0.845 -15.951  11.444  0.00  0.00    -0.328 N 
ATOM     23  C   UNL     1      -1.124 -15.616  12.751  0.00  0.00    +0.228 C 
ATOM     31  H   UNL     1      -1.250 -15.454  10.658  0.00  0.00    +0.145 HD
ATOM     32  H   UNL     1      -0.220 -16.721  11.225  0.00  0.00    +0.145 HD
ENDBRANCH  20  23
ENDBRANCH   6  20
ENDBRANCH  14  17
ENDBRANCH   9  14
BRANCH  10  15
ATOM     15  C   UNL     1      -2.249 -10.715  13.018  0.00  0.00    +0.064 C 
BRANCH  15  16
ATOM      2  O   UNL     1      -2.949 -10.721  16.549  0.00  0.00    -0.354 OA
ATOM      7  N   UNL     1      -2.076 -10.685  15.469  0.00  0.00    -0.083 NA
ATOM     16  C   UNL     1      -2.860 -10.736  14.389  0.00  0.00    +0.085 A 
ATOM     18  C   UNL     1      -4.224 -10.806  14.721  0.00  0.00    +0.076 A 
ATOM     19  C   UNL     1      -4.225 -10.794  16.091  0.00  0.00    +0.167 A 
BRANCH  19  22
ATOM     22  C   UNL     1      -5.245 -10.838  17.099  0.00  0.00    +0.020 A 
ATOM     24  C   UNL     1      -4.892 -10.937  18.445  0.00  0.00    +0.015 A 
ATOM     25  C   UNL     1      -6.590 -10.783  16.733  0.00  0.00    +0.015 A 
ATOM     26  C   UNL     1      -5.884 -10.980  19.425  0.00  0.00    +0.046 A 
ATOM     27  C   UNL     1      -7.581 -10.826  17.712  0.00  0.00    +0.046 A 
ATOM     28  C   UNL     1      -7.228 -10.925  19.058  0.00  0.00    +0.120 A 
BRANCH  28   4
ATOM      4  O   UNL     1      -8.197 -10.966  20.014  0.00  0.00    -0.495 OA
ATOM     29  C   UNL     1      -9.544 -10.785  19.581  0.00  0.00    +0.277 C 
ENDBRANCH  28   4
ENDBRANCH  19  22
ENDBRANCH  15  16
ENDBRANCH  10  15
TORSDOF 8
ENDMDL
MODEL 6
REMARK VINA RESULT:      -6.3     32.608     36.059
REMARK  Name = 26742618
REMARK  10 active torsions:
REMARK  status: ('A' for Active; 'I' for Inactive)
REMARK    1  A    between atoms: O_4  and  C_28
REMARK    2  A    between atoms: O_4  and  C_29
REMARK    3  A    between atoms: N_6  and  C_20
REMARK    4  A    between atoms: N_6  and  C_21
REMARK    5  A    between atoms: C_9  and  C_14
REMARK    6  A    between atoms: C_10  and  C_15
REMARK    7  A    between atoms: C_14  and  C_17
REMARK    8  A    between atoms: C_15  and  C_16
REMARK    9  A    between atoms: C_19  and  C_22
REMARK   10  A    between atoms: C_20  and  C_23
REMARK                            x       y       z     vdW  Elec       q    Type
REMARK                         _______ _______ _______ _____ _____    ______ ____
ROOT
ATOM      5  N   UNL     1      24.631   3.579  19.317  0.00  0.00    -0.316 NA
ATOM      9  C   UNL     1      23.178   3.093  21.839  0.00  0.00    +0.004 C 
ATOM     10  C   UNL     1      22.761   4.192  20.832  0.00  0.00    +0.012 C 
ATOM     11  C   UNL     1      23.959   1.999  21.093  0.00  0.00    +0.019 C 
ATOM     12  C   UNL     1      23.957   4.684  20.001  0.00  0.00    +0.085 C 
ATOM     13  C   UNL     1      25.106   2.567  20.258  0.00  0.00    +0.081 C 
ATOM     30  H   UNL     1      25.421   3.942  18.785  0.00  0.00    +0.122 HD
ENDROOT
BRANCH   9  14
ATOM     14  C   UNL     1      23.981   3.617  23.036  0.00  0.00    +0.100 C 
BRANCH  14  17
ATOM      1  O   UNL     1      23.223   1.957  24.590  0.00  0.00    -0.276 OA
ATOM      6  N   UNL     1      23.111   4.167  25.286  0.00  0.00    -0.296 N 
ATOM     17  C   UNL     1      23.407   3.156  24.365  0.00  0.00    +0.216 C 
ATOM     21  C   UNL     1      22.555   3.884  26.604  0.00  0.00    +0.132 C 
BRANCH   6  20
ATOM     20  C   UNL     1      23.336   5.581  24.997  0.00  0.00    +0.202 C 
BRANCH  20  23
ATOM      3  O   UNL     1      21.020   6.221  24.702  0.00  0.00    -0.274 OA
ATOM      8  N   UNL     1      22.281   7.310  26.286  0.00  0.00    -0.328 N 
ATOM     23  C   UNL     1      22.083   6.369  25.298  0.00  0.00    +0.228 C 
ATOM     31  H   UNL     1      23.174   7.424  26.755  0.00  0.00    +0.145 HD
ATOM     32  H   UNL     1      21.528   7.923  26.581  0.00  0.00    +0.145 HD
ENDBRANCH  20  23
ENDBRANCH   6  20
ENDBRANCH  14  17
ENDBRANCH   9  14
BRANCH  10  15
ATOM     15  C   UNL     1      22.045   5.371  21.493  0.00  0.00    +0.064 C 
BRANCH  15  16
ATOM      2  O   UNL     1      18.874   5.082  19.812  0.00  0.00    -0.354 OA
ATOM      7  N   UNL     1      20.166   4.649  20.082  0.00  0.00    -0.083 NA
ATOM     16  C   UNL     1      20.648   5.528  20.966  0.00  0.00    +0.085 A 
ATOM     18  C   UNL     1      19.715   6.528  21.287  0.00  0.00    +0.076 A 
ATOM     19  C   UNL     1      18.617   6.203  20.535  0.00  0.00    +0.167 A 
BRANCH  19  22
ATOM     22  C   UNL     1      17.311   6.769  20.359  0.00  0.00    +0.020 A 
ATOM     24  C   UNL     1      16.477   6.297  19.346  0.00  0.00    +0.015 A 
ATOM     25  C   UNL     1      16.875   7.792  21.202  0.00  0.00    +0.015 A 
ATOM     26  C   UNL     1      15.206   6.848  19.175  0.00  0.00    +0.046 A 
ATOM     27  C   UNL     1      15.606   8.342  21.031  0.00  0.00    +0.046 A 
ATOM     28  C   UNL     1      14.771   7.870  20.018  0.00  0.00    +0.120 A 
BRANCH  28   4
ATOM      4  O   UNL     1      13.531   8.407  19.852  0.00  0.00    -0.495 OA
ATOM     29  C   UNL     1      12.481   7.514  19.486  0.00  0.00    +0.277 C 
ENDBRANCH  28   4
ENDBRANCH  19  22
ENDBRANCH  15  16
ENDBRANCH  10  15
TORSDOF 8
ENDMDL
MODEL 7
REMARK VINA RESULT:      -6.2     21.193     23.112
REMARK  Name = 26742618
REMARK  10 active torsions:
REMARK  status: ('A' for Active; 'I' for Inactive)
REMARK    1  A    between atoms: O_4  and  C_28
REMARK    2  A    between atoms: O_4  and  C_29
REMARK    3  A    between atoms: N_6  and  C_20
REMARK    4  A    between atoms: N_6  and  C_21
REMARK    5  A    between atoms: C_9  and  C_14
REMARK    6  A    between atoms: C_10  and  C_15
REMARK    7  A    between atoms: C_14  and  C_17
REMARK    8  A    between atoms: C_15  and  C_16
REMARK    9  A    between atoms: C_19  and  C_22
REMARK   10  A    between atoms: C_20  and  C_23
REMARK                            x       y       z     vdW  Elec       q    Type
REMARK                         _______ _______ _______ _____ _____    ______ ____
ROOT
ATOM      5  N   UNL     1      -3.688 -10.205   9.937  0.00  0.00    -0.316 NA
ATOM      9  C   UNL     1      -3.769 -12.128  12.174  0.00  0.00    +0.004 C 
ATOM     10  C   UNL     1      -3.329 -10.655  12.352  0.00  0.00    +0.012 C 
ATOM     11  C   UNL     1      -4.681 -12.232  10.940  0.00  0.00    +0.019 C 
ATOM     12  C   UNL     1      -2.750 -10.074  11.052  0.00  0.00    +0.085 C 
ATOM     13  C   UNL     1      -4.056 -11.599   9.697  0.00  0.00    +0.081 C 
ATOM     30  H   UNL     1      -3.267  -9.818   9.093  0.00  0.00    +0.122 HD
ENDROOT
BRANCH   9  14
ATOM     14  C   UNL     1      -2.605 -13.120  12.078  0.00  0.00    +0.100 C 
BRANCH  14  17
ATOM      1  O   UNL     1      -3.271 -15.137  10.968  0.00  0.00    -0.276 OA
ATOM      6  N   UNL     1      -3.262 -15.176  13.287  0.00  0.00    -0.296 N 
ATOM     17  C   UNL     1      -3.074 -14.564  12.043  0.00  0.00    +0.216 C 
ATOM     21  C   UNL     1      -3.710 -16.558  13.419  0.00  0.00    +0.132 C 
BRANCH   6  20
ATOM     20  C   UNL     1      -3.023 -14.477  14.548  0.00  0.00    +0.202 C 
BRANCH  20  23
ATOM      3  O   UNL     1      -5.346 -13.825  14.749  0.00  0.00    -0.274 OA
ATOM      8  N   UNL     1      -4.246 -14.609  16.610  0.00  0.00    -0.328 N 
ATOM     23  C   UNL     1      -4.332 -14.276  15.275  0.00  0.00    +0.228 C 
ATOM     31  H   UNL     1      -3.393 -14.967  17.026  0.00  0.00    +0.145 HD
ATOM     32  H   UNL     1      -5.047 -14.509  17.224  0.00  0.00    +0.145 HD
ENDBRANCH  20  23
ENDBRANCH   6  20
ENDBRANCH  14  17
ENDBRANCH   9  14
BRANCH  10  15
ATOM     15  C   UNL     1      -2.350 -10.458  13.511  0.00  0.00    +0.064 C 
BRANCH  15  16
ATOM      2  O   UNL     1      -3.232 -11.079  16.946  0.00  0.00    -0.354 OA
ATOM      7  N   UNL     1      -2.311 -10.992  15.910  0.00  0.00    -0.083 NA
ATOM     16  C   UNL     1      -3.028 -10.646  14.837  0.00  0.00    +0.085 A 
ATOM     18  C   UNL     1      -4.395 -10.502  15.132  0.00  0.00    +0.076 A 
ATOM     19  C   UNL     1      -4.470 -10.785  16.471  0.00  0.00    +0.167 A 
BRANCH  19  22
ATOM     22  C   UNL     1      -5.533 -10.834  17.433  0.00  0.00    +0.020 A 
ATOM     24  C   UNL     1      -6.796 -10.342  17.103  0.00  0.00    +0.015 A 
ATOM     25  C   UNL     1      -5.303 -11.373  18.699  0.00  0.00    +0.015 A 
ATOM     26  C   UNL     1      -7.829 -10.389  18.038  0.00  0.00    +0.046 A 
ATOM     27  C   UNL     1      -6.336 -11.420  19.634  0.00  0.00    +0.046 A 
ATOM     28  C   UNL     1      -7.599 -10.928  19.304  0.00  0.00    +0.120 A 
BRANCH  28   4
ATOM      4  O   UNL     1      -8.608 -10.975  20.218  0.00  0.00    -0.495 OA
ATOM     29  C   UNL     1      -9.937 -10.819  19.725  0.00  0.00    +0.277 C 
ENDBRANCH  28   4
ENDBRANCH  19  22
ENDBRANCH  15  16
ENDBRANCH  10  15
TORSDOF 8
ENDMDL
MODEL 8
REMARK VINA RESULT:      -6.2      6.772      9.887
REMARK  Name = 26742618
REMARK  10 active torsions:
REMARK  status: ('A' for Active; 'I' for Inactive)
REMARK    1  A    between atoms: O_4  and  C_28
REMARK    2  A    between atoms: O_4  and  C_29
REMARK    3  A    between atoms: N_6  and  C_20
REMARK    4  A    between atoms: N_6  and  C_21
REMARK    5  A    between atoms: C_9  and  C_14
REMARK    6  A    between atoms: C_10  and  C_15
REMARK    7  A    between atoms: C_14  and  C_17
REMARK    8  A    between atoms: C_15  and  C_16
REMARK    9  A    between atoms: C_19  and  C_22
REMARK   10  A    between atoms: C_20  and  C_23
REMARK                            x       y       z     vdW  Elec       q    Type
REMARK                         _______ _______ _______ _____ _____    ______ ____
ROOT
ATOM      5  N   UNL     1     -14.286   3.286  35.095  0.00  0.00    -0.316 NA
ATOM      9  C   UNL     1     -14.290   3.663  32.168  0.00  0.00    +0.004 C 
ATOM     10  C   UNL     1     -14.028   4.822  33.160  0.00  0.00    +0.012 C 
ATOM     11  C   UNL     1     -13.927   2.331  32.845  0.00  0.00    +0.019 C 
ATOM     12  C   UNL     1     -14.699   4.567  34.520  0.00  0.00    +0.085 C 
ATOM     13  C   UNL     1     -14.598   2.168  34.208  0.00  0.00    +0.081 C 
ATOM     30  H   UNL     1     -14.757   3.149  35.988  0.00  0.00    +0.122 HD
ENDROOT
BRANCH   9  14
ATOM     14  C   UNL     1     -15.720   3.624  31.619  0.00  0.00    +0.100 C 
BRANCH  14  17
ATOM      1  O   UNL     1     -15.716   4.826  29.545  0.00  0.00    -0.276 OA
ATOM      6  N   UNL     1     -15.858   2.514  29.411  0.00  0.00    -0.296 N 
ATOM     17  C   UNL     1     -15.763   3.726  30.103  0.00  0.00    +0.216 C 
ATOM     21  C   UNL     1     -15.909   2.448  27.955  0.00  0.00    +0.132 C 
BRANCH   6  20
ATOM     20  C   UNL     1     -15.914   1.224  30.095  0.00  0.00    +0.202 C 
BRANCH  20  23
ATOM      3  O   UNL     1     -13.517   1.052  29.798  0.00  0.00    -0.274 OA
ATOM      8  N   UNL     1     -14.774  -0.872  29.829  0.00  0.00    -0.328 N 
ATOM     23  C   UNL     1     -14.605   0.493  29.910  0.00  0.00    +0.228 C 
ATOM     31  H   UNL     1     -15.685  -1.312  29.910  0.00  0.00    +0.145 HD
ATOM     32  H   UNL     1     -13.981  -1.489  29.690  0.00  0.00    +0.145 HD
ENDBRANCH  20  23
ENDBRANCH   6  20
ENDBRANCH  14  17
ENDBRANCH   9  14
BRANCH  10  15
ATOM     15  C   UNL     1     -14.436   6.188  32.608  0.00  0.00    +0.064 C 
BRANCH  15  16
ATOM      2  O   UNL     1     -12.272   8.547  34.256  0.00  0.00    -0.354 OA
ATOM      7  N   UNL     1     -13.234   7.546  34.268  0.00  0.00    -0.083 NA
ATOM     16  C   UNL     1     -13.441   7.249  32.982  0.00  0.00    +0.085 A 
ATOM     18  C   UNL     1     -12.645   8.023  32.120  0.00  0.00    +0.076 A 
ATOM     19  C   UNL     1     -11.928   8.823  32.971  0.00  0.00    +0.167 A 
BRANCH  19  22
ATOM     22  C   UNL     1     -10.936   9.845  32.799  0.00  0.00    +0.020 A 
ATOM     24  C   UNL     1      -9.837   9.900  33.656  0.00  0.00    +0.015 A 
ATOM     25  C   UNL     1     -11.070  10.782  31.774  0.00  0.00    +0.015 A 
ATOM     26  C   UNL     1      -8.872  10.894  33.489  0.00  0.00    +0.046 A 
ATOM     27  C   UNL     1     -10.106  11.775  31.607  0.00  0.00    +0.046 A 
ATOM     28  C   UNL     1      -9.006  11.830  32.464  0.00  0.00    +0.120 A 
BRANCH  28   4
ATOM      4  O   UNL     1      -8.064  12.800  32.300  0.00  0.00    -0.495 OA
ATOM     29  C   UNL     1      -6.980  12.508  31.420  0.00  0.00    +0.277 C 
ENDBRANCH  28   4
ENDBRANCH  19  22
ENDBRANCH  15  16
ENDBRANCH  10  15
TORSDOF 8
ENDMDL
MODEL 9
REMARK VINA RESULT:      -6.1      5.800      9.583
REMARK  Name = 26742618
REMARK  10 active torsions:
REMARK  status: ('A' for Active; 'I' for Inactive)
REMARK    1  A    between atoms: O_4  and  C_28
REMARK    2  A    between atoms: O_4  and  C_29
REMARK    3  A    between atoms: N_6  and  C_20
REMARK    4  A    between atoms: N_6  and  C_21
REMARK    5  A    between atoms: C_9  and  C_14
REMARK    6  A    between atoms: C_10  and  C_15
REMARK    7  A    between atoms: C_14  and  C_17
REMARK    8  A    between atoms: C_15  and  C_16
REMARK    9  A    between atoms: C_19  and  C_22
REMARK   10  A    between atoms: C_20  and  C_23
REMARK                            x       y       z     vdW  Elec       q    Type
REMARK                         _______ _______ _______ _____ _____    ______ ____
ROOT
ATOM      5  N   UNL     1     -14.687   1.321  33.007  0.00  0.00    -0.316 NA
ATOM      9  C   UNL     1     -14.865   2.910  30.526  0.00  0.00    +0.004 C 
ATOM     10  C   UNL     1     -15.019   3.536  31.934  0.00  0.00    +0.012 C 
ATOM     11  C   UNL     1     -14.042   1.615  30.641  0.00  0.00    +0.019 C 
ATOM     12  C   UNL     1     -15.536   2.512  32.957  0.00  0.00    +0.085 C 
ATOM     13  C   UNL     1     -14.593   0.666  31.704  0.00  0.00    +0.081 C 
ATOM     30  H   UNL     1     -15.065   0.664  33.688  0.00  0.00    +0.122 HD
ENDROOT
BRANCH   9  14
ATOM     14  C   UNL     1     -16.196   2.649  29.811  0.00  0.00    +0.100 C 
BRANCH  14  17
ATOM      1  O   UNL     1     -16.261   4.616  28.444  0.00  0.00    -0.276 OA
ATOM      6  N   UNL     1     -16.426   2.578  27.349  0.00  0.00    -0.296 N 
ATOM     17  C   UNL     1     -16.295   3.383  28.485  0.00  0.00    +0.216 C 
ATOM     21  C   UNL     1     -16.533   3.134  26.005  0.00  0.00    +0.132 C 
BRANCH   6  20
ATOM     20  C   UNL     1     -16.466   1.119  27.423  0.00  0.00    +0.202 C 
BRANCH  20  23
ATOM      3  O   UNL     1     -17.983   0.160  25.797  0.00  0.00    -0.274 OA
ATOM      8  N   UNL     1     -18.804   0.785  27.851  0.00  0.00    -0.328 N 
ATOM     23  C   UNL     1     -17.800   0.619  26.921  0.00  0.00    +0.228 C 
ATOM     31  H   UNL     1     -18.633   1.181  28.770  0.00  0.00    +0.145 HD
ATOM     32  H   UNL     1     -19.758   0.508  27.644  0.00  0.00    +0.145 HD
ENDBRANCH  20  23
ENDBRANCH   6  20
ENDBRANCH  14  17
ENDBRANCH   9  14
BRANCH  10  15
ATOM     15  C   UNL     1     -15.894   4.790  31.939  0.00  0.00    +0.064 C 
BRANCH  15  16
ATOM      2  O   UNL     1     -14.502   8.109  31.830  0.00  0.00    -0.354 OA
ATOM      7  N   UNL     1     -15.489   7.179  31.527  0.00  0.00    -0.083 NA
ATOM     16  C   UNL     1     -15.064   6.035  32.070  0.00  0.00    +0.085 A 
ATOM     18  C   UNL     1     -13.827   6.179  32.720  0.00  0.00    +0.076 A 
ATOM     19  C   UNL     1     -13.517   7.502  32.540  0.00  0.00    +0.167 A 
BRANCH  19  22
ATOM     22  C   UNL     1     -12.421   8.342  32.927  0.00  0.00    +0.020 A 
ATOM     24  C   UNL     1     -11.472   8.730  31.981  0.00  0.00    +0.015 A 
ATOM     25  C   UNL     1     -12.306   8.773  34.249  0.00  0.00    +0.015 A 
ATOM     26  C   UNL     1     -10.406   9.548  32.358  0.00  0.00    +0.046 A 
ATOM     27  C   UNL     1     -11.241   9.590  34.625  0.00  0.00    +0.046 A 
ATOM     28  C   UNL     1     -10.291   9.978  33.679  0.00  0.00    +0.120 A 
BRANCH  28   4
ATOM      4  O   UNL     1      -9.252  10.777  34.047  0.00  0.00    -0.495 OA
ATOM     29  C   UNL     1      -8.505  11.394  33.000  0.00  0.00    +0.277 C 
ENDBRANCH  28   4
ENDBRANCH  19  22
ENDBRANCH  15  16
ENDBRANCH  10  15
TORSDOF 8
ENDMDL
MODEL 10
REMARK VINA RESULT:      -6.0     21.353     22.746
REMARK  Name = 26742618
REMARK  10 active torsions:
REMARK  status: ('A' for Active; 'I' for Inactive)
REMARK    1  A    between atoms: O_4  and  C_28
REMARK    2  A    between atoms: O_4  and  C_29
REMARK    3  A    between atoms: N_6  and  C_20
REMARK    4  A    between atoms: N_6  and  C_21
REMARK    5  A    between atoms: C_9  and  C_14
REMARK    6  A    between atoms: C_10  and  C_15
REMARK    7  A    between atoms: C_14  and  C_17
REMARK    8  A    between atoms: C_15  and  C_16
REMARK    9  A    between atoms: C_19  and  C_22
REMARK   10  A    between atoms: C_20  and  C_23
REMARK                            x       y       z     vdW  Elec       q    Type
REMARK                         _______ _______ _______ _____ _____    ______ ____
ROOT
ATOM      5  N   UNL     1      -1.466 -14.963  13.609  0.00  0.00    -0.316 NA
ATOM      9  C   UNL     1      -3.519 -12.874  13.966  0.00  0.00    +0.004 C 
ATOM     10  C   UNL     1      -2.292 -12.691  13.041  0.00  0.00    +0.012 C 
ATOM     11  C   UNL     1      -3.809 -14.376  14.123  0.00  0.00    +0.019 C 
ATOM     12  C   UNL     1      -1.102 -13.550  13.500  0.00  0.00    +0.085 C 
ATOM     13  C   UNL     1      -2.572 -15.169  14.541  0.00  0.00    +0.081 C 
ATOM     30  H   UNL     1      -0.657 -15.498  13.923  0.00  0.00    +0.122 HD
ENDROOT
BRANCH   9  14
ATOM     14  C   UNL     1      -3.374 -12.201  15.336  0.00  0.00    +0.100 C 
BRANCH  14  17
ATOM      1  O   UNL     1      -4.771 -10.315  14.853  0.00  0.00    -0.276 OA
ATOM      6  N   UNL     1      -5.213 -11.465  16.818  0.00  0.00    -0.296 N 
ATOM     17  C   UNL     1      -4.510 -11.236  15.631  0.00  0.00    +0.216 C 
ATOM     21  C   UNL     1      -6.329 -10.626  17.240  0.00  0.00    +0.132 C 
BRANCH   6  20
ATOM     20  C   UNL     1      -4.884 -12.563  17.725  0.00  0.00    +0.202 C 
BRANCH  20  23
ATOM      3  O   UNL     1      -5.263 -11.454  19.844  0.00  0.00    -0.274 OA
ATOM      8  N   UNL     1      -3.136 -12.149  19.318  0.00  0.00    -0.328 N 
ATOM     23  C   UNL     1      -4.485 -12.008  19.072  0.00  0.00    +0.228 C 
ATOM     31  H   UNL     1      -2.508 -12.598  18.659  0.00  0.00    +0.145 HD
ATOM     32  H   UNL     1      -2.724 -11.807  20.180  0.00  0.00    +0.145 HD
ENDBRANCH  20  23
ENDBRANCH   6  20
ENDBRANCH  14  17
ENDBRANCH   9  14
BRANCH  10  15
ATOM     15  C   UNL     1      -1.871 -11.229  12.886  0.00  0.00    +0.064 C 
BRANCH  15  16
ATOM      2  O   UNL     1      -2.816  -9.211  10.058  0.00  0.00    -0.354 OA
ATOM      7  N   UNL     1      -1.961  -9.540  11.103  0.00  0.00    -0.083 NA
ATOM     16  C   UNL     1      -2.529 -10.594  11.696  0.00  0.00    +0.085 A 
ATOM     18  C   UNL     1      -3.733 -10.970  11.077  0.00  0.00    +0.076 A 
ATOM     19  C   UNL     1      -3.868 -10.069  10.053  0.00  0.00    +0.167 A 
BRANCH  19  22
ATOM     22  C   UNL     1      -4.842  -9.852   9.023  0.00  0.00    +0.020 A 
ATOM     24  C   UNL     1      -4.765 -10.568   7.828  0.00  0.00    +0.015 A 
ATOM     25  C   UNL     1      -5.867  -8.925   9.216  0.00  0.00    +0.015 A 
ATOM     26  C   UNL     1      -5.712 -10.357   6.826  0.00  0.00    +0.046 A 
ATOM     27  C   UNL     1      -6.813  -8.714   8.214  0.00  0.00    +0.046 A 
ATOM     28  C   UNL     1      -6.736  -9.431   7.019  0.00  0.00    +0.120 A 
BRANCH  28   4
ATOM      4  O   UNL     1      -7.661  -9.225   6.041  0.00  0.00    -0.495 OA
ATOM     29  C   UNL     1      -7.302  -8.336   4.985  0.00  0.00    +0.277 C 
ENDBRANCH  28   4
ENDBRANCH  19  22
ENDBRANCH  15  16
ENDBRANCH  10  15
TORSDOF 8
ENDMDL
