MODEL 1
REMARK VINA RESULT:      -7.9      0.000      0.000
REMARK  Name = 51137535
REMARK  7 active torsions:
REMARK  status: ('A' for Active; 'I' for Inactive)
REMARK    1  A    between atoms: N_2  and  C_7
REMARK    2  A    between atoms: N_3  and  C_17
REMARK    3  A    between atoms: N_6  and  C_24
REMARK    4  A    between atoms: N_6  and  C_25
REMARK    5  A    between atoms: N_6  and  C_26
REMARK    6  A    between atoms: C_9  and  C_16
REMARK    7  A    between atoms: C_18  and  C_19
REMARK                            x       y       z     vdW  Elec       q    Type
REMARK                         _______ _______ _______ _____ _____    ______ ____
ROOT
ATOM      1  O   UNL     1      13.973   7.962  19.925  0.00  0.00    -0.420 OA
ATOM      4  N   UNL     1      13.031   7.733  17.910  0.00  0.00    -0.112 NA
ATOM      5  N   UNL     1      14.305   7.199  17.849  0.00  0.00    -0.107 NA
ATOM     16  C   UNL     1      12.881   8.166  19.140  0.00  0.00    +0.222 A 
ATOM     18  C   UNL     1      14.817   7.355  19.048  0.00  0.00    +0.248 A 
ENDROOT
BRANCH  18  19
ATOM     19  C   UNL     1      16.105   6.990  19.565  0.00  0.00    +0.039 A 
ATOM     20  C   UNL     1      16.606   7.625  20.701  0.00  0.00    +0.015 A 
ATOM     21  C   UNL     1      16.855   5.999  18.931  0.00  0.00    +0.015 A 
ATOM     22  C   UNL     1      17.857   7.270  21.204  0.00  0.00    +0.024 A 
ATOM     23  C   UNL     1      18.106   5.644  19.434  0.00  0.00    +0.024 A 
ATOM     24  C   UNL     1      18.608   6.279  20.570  0.00  0.00    +0.029 A 
BRANCH  24   6
ATOM      6  N   UNL     1      19.873   5.920  21.078  0.00  0.00    -0.336 N 
ATOM     25  C   UNL     1      20.413   6.590  22.244  0.00  0.00    +0.129 C 
ATOM     26  C   UNL     1      20.649   4.872  20.445  0.00  0.00    +0.129 C 
ENDBRANCH  24   6
ENDBRANCH  18  19
BRANCH  16   9
ATOM      2  N   UNL     1      11.071  10.202  21.590  0.00  0.00    -0.299 NA
ATOM      8  C   UNL     1      12.066  10.137  20.518  0.00  0.00    +0.097 C 
ATOM      9  C   UNL     1      11.693   8.842  19.783  0.00  0.00    +0.092 C 
ATOM     10  C   UNL     1      10.983   8.836  22.107  0.00  0.00    +0.085 C 
ATOM     11  C   UNL     1      10.960   7.994  20.837  0.00  0.00    +0.029 C 
BRANCH   2   7
ATOM      3  N   UNL     1      10.609  13.071  24.692  0.00  0.00    -0.305 NA
ATOM      7  C   UNL     1      11.430  11.166  22.627  0.00  0.00    +0.059 C 
ATOM     12  C   UNL     1      10.896  12.561  22.287  0.00  0.00    +0.034 C 
ATOM     13  C   UNL     1      10.884  10.715  23.984  0.00  0.00    +0.034 C 
ATOM     14  C   UNL     1      11.177  13.548  23.423  0.00  0.00    +0.085 C 
ATOM     15  C   UNL     1      11.164  11.762  25.065  0.00  0.00    +0.085 C 
ATOM     17  C   UNL     1      10.841  14.047  25.755  0.00  0.00    +0.104 C 
ENDBRANCH   2   7
ENDBRANCH  16   9
TORSDOF 4
ENDMDL
MODEL 2
REMARK VINA RESULT:      -7.0     26.625     30.192
REMARK  Name = 51137535
REMARK  7 active torsions:
REMARK  status: ('A' for Active; 'I' for Inactive)
REMARK    1  A    between atoms: N_2  and  C_7
REMARK    2  A    between atoms: N_3  and  C_17
REMARK    3  A    between atoms: N_6  and  C_24
REMARK    4  A    between atoms: N_6  and  C_25
REMARK    5  A    between atoms: N_6  and  C_26
REMARK    6  A    between atoms: C_9  and  C_16
REMARK    7  A    between atoms: C_18  and  C_19
REMARK                            x       y       z     vdW  Elec       q    Type
REMARK                         _______ _______ _______ _____ _____    ______ ____
ROOT
ATOM      1  O   UNL     1      -8.005  -9.663  18.130  0.00  0.00    -0.420 OA
ATOM      4  N   UNL     1      -8.246 -11.232  19.706  0.00  0.00    -0.112 NA
ATOM      5  N   UNL     1      -9.505 -10.778  19.358  0.00  0.00    -0.107 NA
ATOM     16  C   UNL     1      -7.402 -10.554  18.964  0.00  0.00    +0.222 A 
ATOM     18  C   UNL     1      -9.315  -9.864  18.436  0.00  0.00    +0.248 A 
ENDROOT
BRANCH  18  19
ATOM     19  C   UNL     1     -10.259  -9.059  17.714  0.00  0.00    +0.039 A 
ATOM     20  C   UNL     1      -9.845  -7.871  17.111  0.00  0.00    +0.015 A 
ATOM     21  C   UNL     1     -11.589  -9.467  17.613  0.00  0.00    +0.015 A 
ATOM     22  C   UNL     1     -10.762  -7.090  16.409  0.00  0.00    +0.024 A 
ATOM     23  C   UNL     1     -12.506  -8.685  16.910  0.00  0.00    +0.024 A 
ATOM     24  C   UNL     1     -12.093  -7.496  16.309  0.00  0.00    +0.029 A 
BRANCH  24   6
ATOM      6  N   UNL     1     -13.020  -6.706  15.600  0.00  0.00    -0.336 N 
ATOM     25  C   UNL     1     -12.562  -5.696  14.667  0.00  0.00    +0.129 C 
ATOM     26  C   UNL     1     -14.444  -6.897  15.789  0.00  0.00    +0.129 C 
ENDBRANCH  24   6
ENDBRANCH  18  19
BRANCH  16   9
ATOM      2  N   UNL     1      -4.098 -11.193  17.515  0.00  0.00    -0.299 NA
ATOM      8  C   UNL     1      -5.331 -10.404  17.503  0.00  0.00    +0.097 C 
ATOM      9  C   UNL     1      -5.894 -10.626  18.913  0.00  0.00    +0.092 C 
ATOM     10  C   UNL     1      -4.459 -12.445  18.182  0.00  0.00    +0.085 C 
ATOM     11  C   UNL     1      -5.296 -11.971  19.363  0.00  0.00    +0.029 C 
BRANCH   2   7
ATOM      3  N   UNL     1      -2.473 -10.324  13.685  0.00  0.00    -0.305 NA
ATOM      7  C   UNL     1      -3.563 -11.413  16.173  0.00  0.00    +0.059 C 
ATOM     12  C   UNL     1      -4.449 -10.750  15.114  0.00  0.00    +0.034 C 
ATOM     13  C   UNL     1      -2.136 -10.867  16.076  0.00  0.00    +0.034 C 
ATOM     14  C   UNL     1      -3.832 -10.885  13.720  0.00  0.00    +0.085 C 
ATOM     15  C   UNL     1      -1.594 -10.998  14.650  0.00  0.00    +0.085 C 
ATOM     17  C   UNL     1      -1.918 -10.415  12.336  0.00  0.00    +0.104 C 
ENDBRANCH   2   7
ENDBRANCH  16   9
TORSDOF 4
ENDMDL
MODEL 3
REMARK VINA RESULT:      -6.8      1.756      2.679
REMARK  Name = 51137535
REMARK  7 active torsions:
REMARK  status: ('A' for Active; 'I' for Inactive)
REMARK    1  A    between atoms: N_2  and  C_7
REMARK    2  A    between atoms: N_3  and  C_17
REMARK    3  A    between atoms: N_6  and  C_24
REMARK    4  A    between atoms: N_6  and  C_25
REMARK    5  A    between atoms: N_6  and  C_26
REMARK    6  A    between atoms: C_9  and  C_16
REMARK    7  A    between atoms: C_18  and  C_19
REMARK                            x       y       z     vdW  Elec       q    Type
REMARK                         _______ _______ _______ _____ _____    ______ ____
ROOT
ATOM      1  O   UNL     1      16.505   7.207  20.004  0.00  0.00    -0.420 OA
ATOM      4  N   UNL     1      15.793   6.094  18.200  0.00  0.00    -0.112 NA
ATOM      5  N   UNL     1      17.011   5.560  18.578  0.00  0.00    -0.107 NA
ATOM     16  C   UNL     1      15.537   7.052  19.061  0.00  0.00    +0.222 A 
ATOM     18  C   UNL     1      17.388   6.241  19.635  0.00  0.00    +0.248 A 
ENDROOT
BRANCH  18  19
ATOM     19  C   UNL     1      18.566   6.125  20.446  0.00  0.00    +0.039 A 
ATOM     20  C   UNL     1      18.701   6.903  21.596  0.00  0.00    +0.015 A 
ATOM     21  C   UNL     1      19.576   5.232  20.084  0.00  0.00    +0.015 A 
ATOM     22  C   UNL     1      19.846   6.788  22.384  0.00  0.00    +0.024 A 
ATOM     23  C   UNL     1      20.721   5.118  20.873  0.00  0.00    +0.024 A 
ATOM     24  C   UNL     1      20.856   5.897  22.022  0.00  0.00    +0.029 A 
BRANCH  24   6
ATOM      6  N   UNL     1      22.014   5.782  22.819  0.00  0.00    -0.336 N 
ATOM     25  C   UNL     1      22.719   6.968  23.264  0.00  0.00    +0.129 C 
ATOM     26  C   UNL     1      22.512   4.478  23.208  0.00  0.00    +0.129 C 
ENDBRANCH  24   6
ENDBRANCH  18  19
BRANCH  16   9
ATOM      2  N   UNL     1      12.917   9.053  20.659  0.00  0.00    -0.299 NA
ATOM      8  C   UNL     1      14.344   8.840  20.412  0.00  0.00    +0.097 C 
ATOM      9  C   UNL     1      14.347   7.979  19.141  0.00  0.00    +0.092 C 
ATOM     10  C   UNL     1      12.295   7.750  20.422  0.00  0.00    +0.085 C 
ATOM     11  C   UNL     1      12.979   7.275  19.146  0.00  0.00    +0.029 C 
BRANCH   2   7
ATOM      3  N   UNL     1      11.666  11.692  23.746  0.00  0.00    -0.305 NA
ATOM      7  C   UNL     1      12.653   9.558  22.004  0.00  0.00    +0.059 C 
ATOM     12  C   UNL     1      13.464  10.827  22.281  0.00  0.00    +0.034 C 
ATOM     13  C   UNL     1      11.159   9.845  22.179  0.00  0.00    +0.034 C 
ATOM     14  C   UNL     1      13.107  11.419  23.648  0.00  0.00    +0.085 C 
ATOM     15  C   UNL     1      10.877  10.469  23.549  0.00  0.00    +0.085 C 
ATOM     17  C   UNL     1      11.348  12.303  25.036  0.00  0.00    +0.104 C 
ENDBRANCH   2   7
ENDBRANCH  16   9
TORSDOF 4
ENDMDL
MODEL 4
REMARK VINA RESULT:      -6.8      2.892     10.395
REMARK  Name = 51137535
REMARK  7 active torsions:
REMARK  status: ('A' for Active; 'I' for Inactive)
REMARK    1  A    between atoms: N_2  and  C_7
REMARK    2  A    between atoms: N_3  and  C_17
REMARK    3  A    between atoms: N_6  and  C_24
REMARK    4  A    between atoms: N_6  and  C_25
REMARK    5  A    between atoms: N_6  and  C_26
REMARK    6  A    between atoms: C_9  and  C_16
REMARK    7  A    between atoms: C_18  and  C_19
REMARK                            x       y       z     vdW  Elec       q    Type
REMARK                         _______ _______ _______ _____ _____    ______ ____
ROOT
ATOM      1  O   UNL     1      17.513   6.866  20.685  0.00  0.00    -0.420 OA
ATOM      4  N   UNL     1      17.920   5.523  18.944  0.00  0.00    -0.112 NA
ATOM      5  N   UNL     1      16.564   5.790  18.969  0.00  0.00    -0.107 NA
ATOM     16  C   UNL     1      18.434   6.172  19.963  0.00  0.00    +0.222 A 
ATOM     18  C   UNL     1      16.373   6.577  20.003  0.00  0.00    +0.248 A 
ENDROOT
BRANCH  18  19
ATOM     19  C   UNL     1      15.169   7.169  20.512  0.00  0.00    +0.039 A 
ATOM     20  C   UNL     1      13.943   6.885  19.910  0.00  0.00    +0.015 A 
ATOM     21  C   UNL     1      15.225   8.027  21.611  0.00  0.00    +0.015 A 
ATOM     22  C   UNL     1      12.774   7.460  20.406  0.00  0.00    +0.024 A 
ATOM     23  C   UNL     1      14.055   8.602  22.106  0.00  0.00    +0.024 A 
ATOM     24  C   UNL     1      12.829   8.319  21.504  0.00  0.00    +0.029 A 
BRANCH  24   6
ATOM      6  N   UNL     1      11.646   8.901  22.005  0.00  0.00    -0.336 N 
ATOM     25  C   UNL     1      11.497  10.341  22.044  0.00  0.00    +0.129 C 
ATOM     26  C   UNL     1      10.562   8.066  22.481  0.00  0.00    +0.129 C 
ENDBRANCH  24   6
ENDBRANCH  18  19
BRANCH  16   9
ATOM      2  N   UNL     1      21.532   5.039  21.557  0.00  0.00    -0.299 NA
ATOM      8  C   UNL     1      20.556   4.877  20.478  0.00  0.00    +0.097 C 
ATOM      9  C   UNL     1      19.869   6.248  20.429  0.00  0.00    +0.092 C 
ATOM     10  C   UNL     1      20.812   5.753  22.613  0.00  0.00    +0.085 C 
ATOM     11  C   UNL     1      20.059   6.830  21.840  0.00  0.00    +0.029 C 
BRANCH   2   7
ATOM      3  N   UNL     1      24.343   2.182  22.970  0.00  0.00    -0.305 NA
ATOM      7  C   UNL     1      22.071   3.762  22.019  0.00  0.00    +0.059 C 
ATOM     12  C   UNL     1      23.168   3.258  21.076  0.00  0.00    +0.034 C 
ATOM     13  C   UNL     1      22.627   3.902  23.438  0.00  0.00    +0.034 C 
ATOM     14  C   UNL     1      23.810   1.977  21.615  0.00  0.00    +0.085 C 
ATOM     15  C   UNL     1      23.287   2.601  23.901  0.00  0.00    +0.085 C 
ATOM     17  C   UNL     1      24.997   0.965  23.451  0.00  0.00    +0.104 C 
ENDBRANCH   2   7
ENDBRANCH  16   9
TORSDOF 4
ENDMDL
MODEL 5
REMARK VINA RESULT:      -6.7     26.273     28.790
REMARK  Name = 51137535
REMARK  7 active torsions:
REMARK  status: ('A' for Active; 'I' for Inactive)
REMARK    1  A    between atoms: N_2  and  C_7
REMARK    2  A    between atoms: N_3  and  C_17
REMARK    3  A    between atoms: N_6  and  C_24
REMARK    4  A    between atoms: N_6  and  C_25
REMARK    5  A    between atoms: N_6  and  C_26
REMARK    6  A    between atoms: C_9  and  C_16
REMARK    7  A    between atoms: C_18  and  C_19
REMARK                            x       y       z     vdW  Elec       q    Type
REMARK                         _______ _______ _______ _____ _____    ______ ____
ROOT
ATOM      1  O   UNL     1      -3.643 -10.554  12.012  0.00  0.00    -0.420 OA
ATOM      4  N   UNL     1      -1.473 -10.016  12.074  0.00  0.00    -0.112 NA
ATOM      5  N   UNL     1      -2.009  -9.493  10.912  0.00  0.00    -0.107 NA
ATOM     16  C   UNL     1      -2.463 -10.626  12.684  0.00  0.00    +0.222 A 
ATOM     18  C   UNL     1      -3.278  -9.832  10.918  0.00  0.00    +0.248 A 
ENDROOT
BRANCH  18  19
ATOM     19  C   UNL     1      -4.318  -9.563   9.967  0.00  0.00    +0.039 A 
ATOM     20  C   UNL     1      -4.381 -10.290   8.778  0.00  0.00    +0.015 A 
ATOM     21  C   UNL     1      -5.266  -8.574  10.232  0.00  0.00    +0.015 A 
ATOM     22  C   UNL     1      -5.393 -10.029   7.855  0.00  0.00    +0.024 A 
ATOM     23  C   UNL     1      -6.277  -8.313   9.308  0.00  0.00    +0.024 A 
ATOM     24  C   UNL     1      -6.341  -9.040   8.119  0.00  0.00    +0.029 A 
BRANCH  24   6
ATOM      6  N   UNL     1      -7.363  -8.775   7.184  0.00  0.00    -0.336 N 
ATOM     25  C   UNL     1      -7.115  -8.924   5.764  0.00  0.00    +0.129 C 
ATOM     26  C   UNL     1      -8.676  -8.356   7.631  0.00  0.00    +0.129 C 
ENDBRANCH  24   6
ENDBRANCH  18  19
BRANCH  16   9
ATOM      2  N   UNL     1      -3.350 -11.335  16.167  0.00  0.00    -0.299 NA
ATOM      8  C   UNL     1      -3.780 -11.216  14.773  0.00  0.00    +0.097 C 
ATOM      9  C   UNL     1      -2.467 -11.377  13.995  0.00  0.00    +0.092 C 
ATOM     10  C   UNL     1      -2.120 -10.547  16.252  0.00  0.00    +0.085 C 
ATOM     11  C   UNL     1      -1.372 -10.950  14.988  0.00  0.00    +0.029 C 
BRANCH   2   7
ATOM      3  N   UNL     1      -6.972 -11.263  18.390  0.00  0.00    -0.305 NA
ATOM      7  C   UNL     1      -4.370 -10.877  17.107  0.00  0.00    +0.059 C 
ATOM     12  C   UNL     1      -5.689 -10.585  16.385  0.00  0.00    +0.034 C 
ATOM     13  C   UNL     1      -4.595 -11.925  18.200  0.00  0.00    +0.034 C 
ATOM     14  C   UNL     1      -6.789 -10.209  17.381  0.00  0.00    +0.085 C 
ATOM     15  C   UNL     1      -5.730 -11.507  19.137  0.00  0.00    +0.085 C 
ATOM     17  C   UNL     1      -8.059 -10.913  19.303  0.00  0.00    +0.104 C 
ENDBRANCH   2   7
ENDBRANCH  16   9
TORSDOF 4
ENDMDL
MODEL 6
REMARK VINA RESULT:      -6.5     26.937     29.179
REMARK  Name = 51137535
REMARK  7 active torsions:
REMARK  status: ('A' for Active; 'I' for Inactive)
REMARK    1  A    between atoms: N_2  and  C_7
REMARK    2  A    between atoms: N_3  and  C_17
REMARK    3  A    between atoms: N_6  and  C_24
REMARK    4  A    between atoms: N_6  and  C_25
REMARK    5  A    between atoms: N_6  and  C_26
REMARK    6  A    between atoms: C_9  and  C_16
REMARK    7  A    between atoms: C_18  and  C_19
REMARK                            x       y       z     vdW  Elec       q    Type
REMARK                         _______ _______ _______ _____ _____    ______ ____
ROOT
ATOM      1  O   UNL     1      -3.509 -11.456  14.992  0.00  0.00    -0.420 OA
ATOM      4  N   UNL     1      -1.441 -10.796  15.529  0.00  0.00    -0.112 NA
ATOM      5  N   UNL     1      -2.208 -10.774  16.679  0.00  0.00    -0.107 NA
ATOM     16  C   UNL     1      -2.241 -11.200  14.570  0.00  0.00    +0.222 A 
ATOM     18  C   UNL     1      -3.407 -11.167  16.318  0.00  0.00    +0.248 A 
ENDROOT
BRANCH  18  19
ATOM     19  C   UNL     1      -4.604 -11.335  17.091  0.00  0.00    +0.039 A 
ATOM     20  C   UNL     1      -4.608 -12.192  18.191  0.00  0.00    +0.015 A 
ATOM     21  C   UNL     1      -5.762 -10.639  16.744  0.00  0.00    +0.015 A 
ATOM     22  C   UNL     1      -5.771 -12.355  18.943  0.00  0.00    +0.024 A 
ATOM     23  C   UNL     1      -6.925 -10.802  17.496  0.00  0.00    +0.024 A 
ATOM     24  C   UNL     1      -6.930 -11.660  18.596  0.00  0.00    +0.029 A 
BRANCH  24   6
ATOM      6  N   UNL     1      -8.106 -11.826  19.356  0.00  0.00    -0.336 N 
ATOM     25  C   UNL     1      -9.121 -10.791  19.372  0.00  0.00    +0.129 C 
ATOM     26  C   UNL     1      -8.319 -13.035  20.125  0.00  0.00    +0.129 C 
ENDBRANCH  24   6
ENDBRANCH  18  19
BRANCH  16   9
ATOM      2  N   UNL     1      -2.920 -11.270  10.970  0.00  0.00    -0.299 NA
ATOM      8  C   UNL     1      -2.762 -10.479  12.192  0.00  0.00    +0.097 C 
ATOM      9  C   UNL     1      -1.953 -11.412  13.102  0.00  0.00    +0.092 C 
ATOM     10  C   UNL     1      -3.243 -12.619  11.434  0.00  0.00    +0.085 C 
ATOM     11  C   UNL     1      -2.262 -12.827  12.581  0.00  0.00    +0.029 C 
BRANCH   2   7
ATOM      3  N   UNL     1      -6.067  -8.775   9.578  0.00  0.00    -0.305 NA
ATOM      7  C   UNL     1      -3.946 -10.727  10.083  0.00  0.00    +0.059 C 
ATOM     12  C   UNL     1      -5.337 -10.850  10.713  0.00  0.00    +0.034 C 
ATOM     13  C   UNL     1      -3.647  -9.261   9.760  0.00  0.00    +0.034 C 
ATOM     14  C   UNL     1      -6.398 -10.184   9.834  0.00  0.00    +0.085 C 
ATOM     15  C   UNL     1      -4.763  -8.647   8.912  0.00  0.00    +0.085 C 
ATOM     17  C   UNL     1      -7.114  -8.140   8.780  0.00  0.00    +0.104 C 
ENDBRANCH   2   7
ENDBRANCH  16   9
TORSDOF 4
ENDMDL
MODEL 7
REMARK VINA RESULT:      -6.4     30.353     31.892
REMARK  Name = 51137535
REMARK  7 active torsions:
REMARK  status: ('A' for Active; 'I' for Inactive)
REMARK    1  A    between atoms: N_2  and  C_7
REMARK    2  A    between atoms: N_3  and  C_17
REMARK    3  A    between atoms: N_6  and  C_24
REMARK    4  A    between atoms: N_6  and  C_25
REMARK    5  A    between atoms: N_6  and  C_26
REMARK    6  A    between atoms: C_9  and  C_16
REMARK    7  A    between atoms: C_18  and  C_19
REMARK                            x       y       z     vdW  Elec       q    Type
REMARK                         _______ _______ _______ _____ _____    ______ ____
ROOT
ATOM      1  O   UNL     1     -12.162  -5.448  12.282  0.00  0.00    -0.420 OA
ATOM      4  N   UNL     1     -12.966  -3.364  12.372  0.00  0.00    -0.112 NA
ATOM      5  N   UNL     1     -12.955  -3.872  13.657  0.00  0.00    -0.107 NA
ATOM     16  C   UNL     1     -12.495  -4.317  11.603  0.00  0.00    +0.222 A 
ATOM     18  C   UNL     1     -12.478  -5.091  13.556  0.00  0.00    +0.248 A 
ENDROOT
BRANCH  18  19
ATOM     19  C   UNL     1     -12.243  -6.085  14.564  0.00  0.00    +0.039 A 
ATOM     20  C   UNL     1     -12.959  -7.282  14.543  0.00  0.00    +0.015 A 
ATOM     21  C   UNL     1     -11.297  -5.855  15.563  0.00  0.00    +0.015 A 
ATOM     22  C   UNL     1     -12.730  -8.248  15.522  0.00  0.00    +0.024 A 
ATOM     23  C   UNL     1     -11.068  -6.822  16.542  0.00  0.00    +0.024 A 
ATOM     24  C   UNL     1     -11.784  -8.018  16.522  0.00  0.00    +0.029 A 
BRANCH  24   6
ATOM      6  N   UNL     1     -11.553  -8.995  17.512  0.00  0.00    -0.336 N 
ATOM     25  C   UNL     1     -12.662  -9.578  18.241  0.00  0.00    +0.129 C 
ATOM     26  C   UNL     1     -10.205  -9.433  17.811  0.00  0.00    +0.129 C 
ENDBRANCH  24   6
ENDBRANCH  18  19
BRANCH  16   9
ATOM      2  N   UNL     1     -11.025  -5.352   8.411  0.00  0.00    -0.299 NA
ATOM      8  C   UNL     1     -11.838  -5.699   9.577  0.00  0.00    +0.097 C 
ATOM      9  C   UNL     1     -12.279  -4.329  10.107  0.00  0.00    +0.092 C 
ATOM     10  C   UNL     1     -10.206  -4.220   8.846  0.00  0.00    +0.085 C 
ATOM     11  C   UNL     1     -11.203  -3.352   9.603  0.00  0.00    +0.029 C 
BRANCH   2   7
ATOM      3  N   UNL     1      -8.159  -7.518   6.139  0.00  0.00    -0.305 NA
ATOM      7  C   UNL     1     -10.216  -6.474   7.939  0.00  0.00    +0.059 C 
ATOM     12  C   UNL     1     -10.496  -6.768   6.462  0.00  0.00    +0.034 C 
ATOM     13  C   UNL     1      -8.728  -6.177   8.140  0.00  0.00    +0.034 C 
ATOM     14  C   UNL     1      -9.572  -7.871   5.938  0.00  0.00    +0.085 C 
ATOM     15  C   UNL     1      -7.862  -7.299   7.561  0.00  0.00    +0.085 C 
ATOM     17  C   UNL     1      -7.289  -8.557   5.588  0.00  0.00    +0.104 C 
ENDBRANCH   2   7
ENDBRANCH  16   9
TORSDOF 4
ENDMDL
MODEL 8
REMARK VINA RESULT:      -6.3     28.043     31.547
REMARK  Name = 51137535
REMARK  7 active torsions:
REMARK  status: ('A' for Active; 'I' for Inactive)
REMARK    1  A    between atoms: N_2  and  C_7
REMARK    2  A    between atoms: N_3  and  C_17
REMARK    3  A    between atoms: N_6  and  C_24
REMARK    4  A    between atoms: N_6  and  C_25
REMARK    5  A    between atoms: N_6  and  C_26
REMARK    6  A    between atoms: C_9  and  C_16
REMARK    7  A    between atoms: C_18  and  C_19
REMARK                            x       y       z     vdW  Elec       q    Type
REMARK                         _______ _______ _______ _____ _____    ______ ____
ROOT
ATOM      1  O   UNL     1      -8.826 -10.908  19.754  0.00  0.00    -0.420 OA
ATOM      4  N   UNL     1      -7.896 -12.924  19.490  0.00  0.00    -0.112 NA
ATOM      5  N   UNL     1      -9.229 -13.107  19.805  0.00  0.00    -0.107 NA
ATOM     16  C   UNL     1      -7.705 -11.625  19.471  0.00  0.00    +0.222 A 
ATOM     18  C   UNL     1      -9.732 -11.903  19.950  0.00  0.00    +0.248 A 
ENDROOT
BRANCH  18  19
ATOM     19  C   UNL     1     -11.065 -11.484  20.277  0.00  0.00    +0.039 A 
ATOM     20  C   UNL     1     -11.986 -12.410  20.769  0.00  0.00    +0.015 A 
ATOM     21  C   UNL     1     -11.439 -10.152  20.104  0.00  0.00    +0.015 A 
ATOM     22  C   UNL     1     -13.281 -12.002  21.087  0.00  0.00    +0.024 A 
ATOM     23  C   UNL     1     -12.735  -9.744  20.422  0.00  0.00    +0.024 A 
ATOM     24  C   UNL     1     -13.656 -10.669  20.913  0.00  0.00    +0.029 A 
BRANCH  24   6
ATOM      6  N   UNL     1     -14.966 -10.257  21.234  0.00  0.00    -0.336 N 
ATOM     25  C   UNL     1     -15.786 -11.051  22.127  0.00  0.00    +0.129 C 
ATOM     26  C   UNL     1     -15.507  -9.032  20.681  0.00  0.00    +0.129 C 
ENDBRANCH  24   6
ENDBRANCH  18  19
BRANCH  16   9
ATOM      2  N   UNL     1      -4.670 -10.651  17.666  0.00  0.00    -0.299 NA
ATOM      8  C   UNL     1      -6.131 -10.738  17.688  0.00  0.00    +0.097 C 
ATOM      9  C   UNL     1      -6.445 -10.842  19.186  0.00  0.00    +0.092 C 
ATOM     10  C   UNL     1      -4.218 -11.645  18.640  0.00  0.00    +0.085 C 
ATOM     11  C   UNL     1      -5.167 -11.426  19.812  0.00  0.00    +0.029 C 
BRANCH   2   7
ATOM      3  N   UNL     1      -2.278 -12.354  14.592  0.00  0.00    -0.305 NA
ATOM      7  C   UNL     1      -4.116 -10.887  16.335  0.00  0.00    +0.059 C 
ATOM     12  C   UNL     1      -2.612 -10.601  16.308  0.00  0.00    +0.034 C 
ATOM     13  C   UNL     1      -4.380 -12.330  15.898  0.00  0.00    +0.034 C 
ATOM     14  C   UNL     1      -2.010 -10.952  14.944  0.00  0.00    +0.085 C 
ATOM     15  C   UNL     1      -3.722 -12.626  14.548  0.00  0.00    +0.085 C 
ATOM     17  C   UNL     1      -1.655 -12.687  13.312  0.00  0.00    +0.104 C 
ENDBRANCH   2   7
ENDBRANCH  16   9
TORSDOF 4
ENDMDL
MODEL 9
REMARK VINA RESULT:      -6.2      3.714      7.215
REMARK  Name = 51137535
REMARK  7 active torsions:
REMARK  status: ('A' for Active; 'I' for Inactive)
REMARK    1  A    between atoms: N_2  and  C_7
REMARK    2  A    between atoms: N_3  and  C_17
REMARK    3  A    between atoms: N_6  and  C_24
REMARK    4  A    between atoms: N_6  and  C_25
REMARK    5  A    between atoms: N_6  and  C_26
REMARK    6  A    between atoms: C_9  and  C_16
REMARK    7  A    between atoms: C_18  and  C_19
REMARK                            x       y       z     vdW  Elec       q    Type
REMARK                         _______ _______ _______ _____ _____    ______ ____
ROOT
ATOM      1  O   UNL     1      20.842   5.625  21.368  0.00  0.00    -0.420 OA
ATOM      4  N   UNL     1      19.770   6.623  23.057  0.00  0.00    -0.112 NA
ATOM      5  N   UNL     1      20.819   5.896  23.588  0.00  0.00    -0.107 NA
ATOM     16  C   UNL     1      19.822   6.436  21.759  0.00  0.00    +0.222 A 
ATOM     18  C   UNL     1      21.417   5.330  22.565  0.00  0.00    +0.248 A 
ENDROOT
BRANCH  18  19
ATOM     19  C   UNL     1      22.561   4.465  22.517  0.00  0.00    +0.039 A 
ATOM     20  C   UNL     1      23.846   5.008  22.531  0.00  0.00    +0.015 A 
ATOM     21  C   UNL     1      22.387   3.082  22.458  0.00  0.00    +0.015 A 
ATOM     22  C   UNL     1      24.957   4.167  22.485  0.00  0.00    +0.024 A 
ATOM     23  C   UNL     1      23.500   2.242  22.412  0.00  0.00    +0.024 A 
ATOM     24  C   UNL     1      24.785   2.784  22.425  0.00  0.00    +0.029 A 
BRANCH  24   6
ATOM      6  N   UNL     1      25.909   1.934  22.378  0.00  0.00    -0.336 N 
ATOM     25  C   UNL     1      27.240   2.467  22.588  0.00  0.00    +0.129 C 
ATOM     26  C   UNL     1      25.748   0.517  22.125  0.00  0.00    +0.129 C 
ENDBRANCH  24   6
ENDBRANCH  18  19
BRANCH  16   9
ATOM      2  N   UNL     1      16.698   7.525  20.186  0.00  0.00    -0.299 NA
ATOM      8  C   UNL     1      17.710   7.738  21.222  0.00  0.00    +0.097 C 
ATOM      9  C   UNL     1      18.928   6.983  20.671  0.00  0.00    +0.092 C 
ATOM     10  C   UNL     1      16.825   6.115  19.819  0.00  0.00    +0.085 C 
ATOM     11  C   UNL     1      18.334   5.922  19.729  0.00  0.00    +0.029 C 
BRANCH   2   7
ATOM      3  N   UNL     1      12.516   8.269  20.048  0.00  0.00    -0.305 NA
ATOM      7  C   UNL     1      15.352   7.862  20.643  0.00  0.00    +0.059 C 
ATOM     12  C   UNL     1      14.836   9.124  19.945  0.00  0.00    +0.034 C 
ATOM     13  C   UNL     1      14.396   6.695  20.384  0.00  0.00    +0.034 C 
ATOM     14  C   UNL     1      13.386   9.417  20.341  0.00  0.00    +0.085 C 
ATOM     15  C   UNL     1      12.961   7.066  20.765  0.00  0.00    +0.085 C 
ATOM     17  C   UNL     1      11.127   8.581  20.384  0.00  0.00    +0.104 C 
ENDBRANCH   2   7
ENDBRANCH  16   9
TORSDOF 4
ENDMDL
MODEL 10
REMARK VINA RESULT:      -6.1      2.869      8.917
REMARK  Name = 51137535
REMARK  7 active torsions:
REMARK  status: ('A' for Active; 'I' for Inactive)
REMARK    1  A    between atoms: N_2  and  C_7
REMARK    2  A    between atoms: N_3  and  C_17
REMARK    3  A    between atoms: N_6  and  C_24
REMARK    4  A    between atoms: N_6  and  C_25
REMARK    5  A    between atoms: N_6  and  C_26
REMARK    6  A    between atoms: C_9  and  C_16
REMARK    7  A    between atoms: C_18  and  C_19
REMARK                            x       y       z     vdW  Elec       q    Type
REMARK                         _______ _______ _______ _____ _____    ______ ____
ROOT
ATOM      1  O   UNL     1      17.943   7.036  21.047  0.00  0.00    -0.420 OA
ATOM      4  N   UNL     1      18.408   5.670  19.338  0.00  0.00    -0.112 NA
ATOM      5  N   UNL     1      17.045   5.900  19.342  0.00  0.00    -0.107 NA
ATOM     16  C   UNL     1      18.891   6.353  20.350  0.00  0.00    +0.222 A 
ATOM     18  C   UNL     1      16.819   6.701  20.357  0.00  0.00    +0.248 A 
ENDROOT
BRANCH  18  19
ATOM     19  C   UNL     1      15.593   7.270  20.839  0.00  0.00    +0.039 A 
ATOM     20  C   UNL     1      14.370   6.721  20.452  0.00  0.00    +0.015 A 
ATOM     21  C   UNL     1      15.625   8.369  21.697  0.00  0.00    +0.015 A 
ATOM     22  C   UNL     1      13.179   7.273  20.922  0.00  0.00    +0.024 A 
ATOM     23  C   UNL     1      14.433   8.921  22.167  0.00  0.00    +0.024 A 
ATOM     24  C   UNL     1      13.210   8.373  21.779  0.00  0.00    +0.029 A 
BRANCH  24   6
ATOM      6  N   UNL     1      12.005   8.932  22.253  0.00  0.00    -0.336 N 
ATOM     25  C   UNL     1      10.801   8.128  22.323  0.00  0.00    +0.129 C 
ATOM     26  C   UNL     1      11.956  10.315  22.684  0.00  0.00    +0.129 C 
ENDBRANCH  24   6
ENDBRANCH  18  19
BRANCH  16   9
ATOM      2  N   UNL     1      21.613   6.867  22.748  0.00  0.00    -0.299 NA
ATOM      8  C   UNL     1      20.498   6.036  22.289  0.00  0.00    +0.097 C 
ATOM      9  C   UNL     1      20.318   6.479  20.832  0.00  0.00    +0.092 C 
ATOM     10  C   UNL     1      21.335   8.200  22.213  0.00  0.00    +0.085 C 
ATOM     11  C   UNL     1      20.891   7.906  20.785  0.00  0.00    +0.029 C 
BRANCH   2   7
ATOM      3  N   UNL     1      21.031   5.728  26.801  0.00  0.00    -0.305 NA
ATOM      7  C   UNL     1      21.747   6.868  24.203  0.00  0.00    +0.059 C 
ATOM     12  C   UNL     1      20.400   7.150  24.876  0.00  0.00    +0.034 C 
ATOM     13  C   UNL     1      22.301   5.526  24.686  0.00  0.00    +0.034 C 
ATOM     14  C   UNL     1      20.516   7.045  26.399  0.00  0.00    +0.085 C 
ATOM     15  C   UNL     1      22.354   5.473  26.215  0.00  0.00    +0.085 C 
ATOM     17  C   UNL     1      21.088   5.624  28.258  0.00  0.00    +0.104 C 
ENDBRANCH   2   7
ENDBRANCH  16   9
TORSDOF 4
ENDMDL
