MODEL 1
REMARK VINA RESULT:      -6.5      0.000      0.000
REMARK  Name = 45783355
REMARK  10 active torsions:
REMARK  status: ('A' for Active; 'I' for Inactive)
REMARK    1  A    between atoms: O_2  and  C_20
REMARK    2  A    between atoms: O_2  and  C_22
REMARK    3  A    between atoms: O_3  and  C_23
REMARK    4  A    between atoms: O_3  and  C_24
REMARK    5  A    between atoms: N_4  and  C_12
REMARK    6  A    between atoms: C_8  and  C_13
REMARK    7  A    between atoms: C_12  and  C_14
REMARK    8  A    between atoms: C_14  and  C_15
REMARK    9  A    between atoms: C_16  and  C_17
REMARK   10  A    between atoms: C_22  and  C_23
REMARK                            x       y       z     vdW  Elec       q    Type
REMARK                         _______ _______ _______ _____ _____    ______ ____
ROOT
ATOM      1  O   UNL     1      17.938   5.717  19.289  0.00  0.00    -0.336 OA
ATOM      5  N   UNL     1      16.659   7.135  20.460  0.00  0.00    -0.190 NA
ATOM      6  N   UNL     1      16.699   5.756  18.634  0.00  0.00    -0.056 NA
ATOM     13  C   UNL     1      17.828   6.556  20.352  0.00  0.00    +0.245 A 
ATOM     16  C   UNL     1      16.000   6.614  19.384  0.00  0.00    +0.202 A 
ENDROOT
BRANCH  16  17
ATOM      7  N   UNL     1      11.997   7.663  18.507  0.00  0.00    -0.221 NA
ATOM     17  C   UNL     1      14.643   6.969  19.087  0.00  0.00    +0.029 A 
ATOM     18  C   UNL     1      13.646   6.774  20.037  0.00  0.00    +0.079 A 
ATOM     19  C   UNL     1      14.318   7.511  17.848  0.00  0.00    +0.031 A 
ATOM     20  C   UNL     1      12.351   7.134  19.700  0.00  0.00    +0.215 A 
ATOM     21  C   UNL     1      12.994   7.838  17.610  0.00  0.00    +0.115 A 
BRANCH  20   2
ATOM      2  O   UNL     1      11.350   6.952  20.619  0.00  0.00    -0.474 OA
BRANCH   2  22
ATOM     22  C   UNL     1      10.621   8.109  21.009  0.00  0.00    +0.258 C 
BRANCH  22  23
ATOM     23  C   UNL     1      10.791   8.320  22.502  0.00  0.00    +0.200 C 
BRANCH  23   3
ATOM      3  O   UNL     1      10.939   9.711  22.759  0.00  0.00    -0.380 OA
ATOM     24  C   UNL     1      11.538  10.383  21.660  0.00  0.00    +0.194 C 
ENDBRANCH  23   3
ENDBRANCH  22  23
ENDBRANCH   2  22
ENDBRANCH  20   2
ENDBRANCH  16  17
BRANCH  13   8
ATOM      4  N   UNL     1      20.306   6.406  20.511  0.00  0.00    -0.291 NA
ATOM      8  C   UNL     1      19.052   6.693  21.234  0.00  0.00    +0.146 C 
ATOM      9  C   UNL     1      19.233   8.120  21.782  0.00  0.00    +0.030 C 
ATOM     10  C   UNL     1      21.348   7.204  21.158  0.00  0.00    +0.085 C 
ATOM     11  C   UNL     1      20.642   8.528  21.369  0.00  0.00    +0.017 C 
BRANCH   4  12
ATOM     12  C   UNL     1      20.642   4.987  20.483  0.00  0.00    +0.085 C 
BRANCH  12  14
ATOM     14  C   UNL     1      21.860   4.713  21.361  0.00  0.00    +0.012 C 
ATOM     15  C   UNL     1      22.153   3.223  21.451  0.00  0.00    +0.005 C 
ENDBRANCH  12  14
ENDBRANCH   4  12
ENDBRANCH  13   8
TORSDOF 8
ENDMDL
MODEL 2
REMARK VINA RESULT:      -6.2      2.367      8.814
REMARK  Name = 45783355
REMARK  10 active torsions:
REMARK  status: ('A' for Active; 'I' for Inactive)
REMARK    1  A    between atoms: O_2  and  C_20
REMARK    2  A    between atoms: O_2  and  C_22
REMARK    3  A    between atoms: O_3  and  C_23
REMARK    4  A    between atoms: O_3  and  C_24
REMARK    5  A    between atoms: N_4  and  C_12
REMARK    6  A    between atoms: C_8  and  C_13
REMARK    7  A    between atoms: C_12  and  C_14
REMARK    8  A    between atoms: C_14  and  C_15
REMARK    9  A    between atoms: C_16  and  C_17
REMARK   10  A    between atoms: C_22  and  C_23
REMARK                            x       y       z     vdW  Elec       q    Type
REMARK                         _______ _______ _______ _____ _____    ______ ____
ROOT
ATOM      1  O   UNL     1      16.193   5.899  18.490  0.00  0.00    -0.336 OA
ATOM      5  N   UNL     1      16.581   7.014  20.394  0.00  0.00    -0.190 NA
ATOM      6  N   UNL     1      17.511   5.596  18.857  0.00  0.00    -0.056 NA
ATOM     13  C   UNL     1      15.719   6.739  19.447  0.00  0.00    +0.245 A 
ATOM     16  C   UNL     1      17.665   6.289  19.989  0.00  0.00    +0.202 A 
ENDROOT
BRANCH  16  17
ATOM      7  N   UNL     1      21.274   6.269  22.196  0.00  0.00    -0.221 NA
ATOM     17  C   UNL     1      18.888   6.282  20.738  0.00  0.00    +0.029 A 
ATOM     18  C   UNL     1      19.939   5.457  20.350  0.00  0.00    +0.079 A 
ATOM     19  C   UNL     1      19.030   7.101  21.852  0.00  0.00    +0.031 A 
ATOM     20  C   UNL     1      21.099   5.487  21.107  0.00  0.00    +0.215 A 
ATOM     21  C   UNL     1      20.231   7.058  22.541  0.00  0.00    +0.115 A 
BRANCH  20   2
ATOM      2  O   UNL     1      22.149   4.682  20.747  0.00  0.00    -0.474 OA
BRANCH   2  22
ATOM     22  C   UNL     1      22.163   3.368  21.289  0.00  0.00    +0.258 C 
BRANCH  22  23
ATOM     23  C   UNL     1      23.600   2.951  21.537  0.00  0.00    +0.200 C 
BRANCH  23   3
ATOM      3  O   UNL     1      24.063   2.196  20.424  0.00  0.00    -0.380 OA
ATOM     24  C   UNL     1      25.005   2.929  19.653  0.00  0.00    +0.194 C 
ENDBRANCH  23   3
ENDBRANCH  22  23
ENDBRANCH   2  22
ENDBRANCH  20   2
ENDBRANCH  16  17
BRANCH  13   8
ATOM      4  N   UNL     1      13.881   8.157  20.341  0.00  0.00    -0.291 NA
ATOM      8  C   UNL     1      14.294   7.220  19.278  0.00  0.00    +0.146 C 
ATOM      9  C   UNL     1      14.080   7.998  17.966  0.00  0.00    +0.030 C 
ATOM     10  C   UNL     1      12.881   9.044  19.746  0.00  0.00    +0.085 C 
ATOM     11  C   UNL     1      13.490   9.336  18.389  0.00  0.00    +0.017 C 
BRANCH   4  12
ATOM     12  C   UNL     1      13.379   7.488  21.535  0.00  0.00    +0.085 C 
BRANCH  12  14
ATOM     14  C   UNL     1      11.852   7.488  21.540  0.00  0.00    +0.012 C 
ATOM     15  C   UNL     1      11.299   6.073  21.478  0.00  0.00    +0.005 C 
ENDBRANCH  12  14
ENDBRANCH   4  12
ENDBRANCH  13   8
TORSDOF 8
ENDMDL
MODEL 3
REMARK VINA RESULT:      -6.1     16.440     19.708
REMARK  Name = 45783355
REMARK  10 active torsions:
REMARK  status: ('A' for Active; 'I' for Inactive)
REMARK    1  A    between atoms: O_2  and  C_20
REMARK    2  A    between atoms: O_2  and  C_22
REMARK    3  A    between atoms: O_3  and  C_23
REMARK    4  A    between atoms: O_3  and  C_24
REMARK    5  A    between atoms: N_4  and  C_12
REMARK    6  A    between atoms: C_8  and  C_13
REMARK    7  A    between atoms: C_12  and  C_14
REMARK    8  A    between atoms: C_14  and  C_15
REMARK    9  A    between atoms: C_16  and  C_17
REMARK   10  A    between atoms: C_22  and  C_23
REMARK                            x       y       z     vdW  Elec       q    Type
REMARK                         _______ _______ _______ _____ _____    ______ ____
ROOT
ATOM      1  O   UNL     1      11.407   6.575   4.732  0.00  0.00    -0.336 OA
ATOM      5  N   UNL     1      10.330   4.870   3.756  0.00  0.00    -0.190 NA
ATOM      6  N   UNL     1      12.158   6.238   3.598  0.00  0.00    -0.056 NA
ATOM     13  C   UNL     1      10.349   5.722   4.750  0.00  0.00    +0.245 A 
ATOM     16  C   UNL     1      11.459   5.225   3.076  0.00  0.00    +0.202 A 
ENDROOT
BRANCH  16  17
ATOM      7  N   UNL     1      12.647   3.226  -0.458  0.00  0.00    -0.221 NA
ATOM     17  C   UNL     1      11.861   4.547   1.878  0.00  0.00    +0.029 A 
ATOM     18  C   UNL     1      10.986   4.454   0.800  0.00  0.00    +0.079 A 
ATOM     19  C   UNL     1      13.128   3.981   1.788  0.00  0.00    +0.031 A 
ATOM     20  C   UNL     1      11.424   3.789  -0.333  0.00  0.00    +0.215 A 
ATOM     21  C   UNL     1      13.469   3.338   0.610  0.00  0.00    +0.115 A 
BRANCH  20   2
ATOM      2  O   UNL     1      10.580   3.683  -1.409  0.00  0.00    -0.474 OA
BRANCH   2  22
ATOM     22  C   UNL     1      10.311   4.878  -2.131  0.00  0.00    +0.258 C 
BRANCH  22  23
ATOM     23  C   UNL     1       9.310   4.577  -3.230  0.00  0.00    +0.200 C 
BRANCH  23   3
ATOM      3  O   UNL     1      10.007   4.120  -4.381  0.00  0.00    -0.380 OA
ATOM     24  C   UNL     1       9.646   2.787  -4.714  0.00  0.00    +0.194 C 
ENDBRANCH  23   3
ENDBRANCH  22  23
ENDBRANCH   2  22
ENDBRANCH  20   2
ENDBRANCH  16  17
BRANCH  13   8
ATOM      4  N   UNL     1       9.969   6.567   7.059  0.00  0.00    -0.291 NA
ATOM      8  C   UNL     1       9.372   5.883   5.896  0.00  0.00    +0.146 C 
ATOM      9  C   UNL     1       8.151   6.743   5.519  0.00  0.00    +0.030 C 
ATOM     10  C   UNL     1       8.876   7.267   7.733  0.00  0.00    +0.085 C 
ATOM     11  C   UNL     1       8.109   7.851   6.563  0.00  0.00    +0.017 C 
BRANCH   4  12
ATOM     12  C   UNL     1      10.676   5.662   7.957  0.00  0.00    +0.085 C 
BRANCH  12  14
ATOM     14  C   UNL     1       9.799   4.459   8.297  0.00  0.00    +0.012 C 
ATOM     15  C   UNL     1       9.383   4.473   9.759  0.00  0.00    +0.005 C 
ENDBRANCH  12  14
ENDBRANCH   4  12
ENDBRANCH  13   8
TORSDOF 8
ENDMDL
MODEL 4
REMARK VINA RESULT:      -6.0      2.783      7.943
REMARK  Name = 45783355
REMARK  10 active torsions:
REMARK  status: ('A' for Active; 'I' for Inactive)
REMARK    1  A    between atoms: O_2  and  C_20
REMARK    2  A    between atoms: O_2  and  C_22
REMARK    3  A    between atoms: O_3  and  C_23
REMARK    4  A    between atoms: O_3  and  C_24
REMARK    5  A    between atoms: N_4  and  C_12
REMARK    6  A    between atoms: C_8  and  C_13
REMARK    7  A    between atoms: C_12  and  C_14
REMARK    8  A    between atoms: C_14  and  C_15
REMARK    9  A    between atoms: C_16  and  C_17
REMARK   10  A    between atoms: C_22  and  C_23
REMARK                            x       y       z     vdW  Elec       q    Type
REMARK                         _______ _______ _______ _____ _____    ______ ____
ROOT
ATOM      1  O   UNL     1      16.293   5.850  18.510  0.00  0.00    -0.336 OA
ATOM      5  N   UNL     1      16.554   6.938  20.450  0.00  0.00    -0.190 NA
ATOM      6  N   UNL     1      17.613   5.612  18.915  0.00  0.00    -0.056 NA
ATOM     13  C   UNL     1      15.741   6.639  19.469  0.00  0.00    +0.245 A 
ATOM     16  C   UNL     1      17.690   6.285  20.067  0.00  0.00    +0.202 A 
ENDROOT
BRANCH  16  17
ATOM      7  N   UNL     1      21.218   6.410  22.398  0.00  0.00    -0.221 NA
ATOM     17  C   UNL     1      18.886   6.328  20.857  0.00  0.00    +0.029 A 
ATOM     18  C   UNL     1      18.955   7.152  21.976  0.00  0.00    +0.079 A 
ATOM     19  C   UNL     1      19.981   5.545  20.509  0.00  0.00    +0.031 A 
ATOM     20  C   UNL     1      20.133   7.156  22.705  0.00  0.00    +0.215 A 
ATOM     21  C   UNL     1      21.112   5.621  21.305  0.00  0.00    +0.115 A 
BRANCH  20   2
ATOM      2  O   UNL     1      20.227   7.960  23.812  0.00  0.00    -0.474 OA
BRANCH   2  22
ATOM     22  C   UNL     1      21.106   7.530  24.843  0.00  0.00    +0.258 C 
BRANCH  22  23
ATOM     23  C   UNL     1      20.287   7.091  26.041  0.00  0.00    +0.200 C 
BRANCH  23   3
ATOM      3  O   UNL     1      20.830   5.882  26.558  0.00  0.00    -0.380 OA
ATOM     24  C   UNL     1      22.172   5.691  26.133  0.00  0.00    +0.194 C 
ENDBRANCH  23   3
ENDBRANCH  22  23
ENDBRANCH   2  22
ENDBRANCH  20   2
ENDBRANCH  16  17
BRANCH  13   8
ATOM      4  N   UNL     1      13.836   8.032  20.255  0.00  0.00    -0.291 NA
ATOM      8  C   UNL     1      14.297   7.044  19.261  0.00  0.00    +0.146 C 
ATOM      9  C   UNL     1      14.059   7.720  17.898  0.00  0.00    +0.030 C 
ATOM     10  C   UNL     1      12.802   8.830  19.597  0.00  0.00    +0.085 C 
ATOM     11  C   UNL     1      13.407   9.056  18.225  0.00  0.00    +0.017 C 
BRANCH   4  12
ATOM     12  C   UNL     1      13.355   7.424  21.490  0.00  0.00    +0.085 C 
BRANCH  12  14
ATOM     14  C   UNL     1      11.829   7.414  21.516  0.00  0.00    +0.012 C 
ATOM     15  C   UNL     1      11.285   5.994  21.514  0.00  0.00    +0.005 C 
ENDBRANCH  12  14
ENDBRANCH   4  12
ENDBRANCH  13   8
TORSDOF 8
ENDMDL
MODEL 5
REMARK VINA RESULT:      -5.9      2.206      3.987
REMARK  Name = 45783355
REMARK  10 active torsions:
REMARK  status: ('A' for Active; 'I' for Inactive)
REMARK    1  A    between atoms: O_2  and  C_20
REMARK    2  A    between atoms: O_2  and  C_22
REMARK    3  A    between atoms: O_3  and  C_23
REMARK    4  A    between atoms: O_3  and  C_24
REMARK    5  A    between atoms: N_4  and  C_12
REMARK    6  A    between atoms: C_8  and  C_13
REMARK    7  A    between atoms: C_12  and  C_14
REMARK    8  A    between atoms: C_14  and  C_15
REMARK    9  A    between atoms: C_16  and  C_17
REMARK   10  A    between atoms: C_22  and  C_23
REMARK                            x       y       z     vdW  Elec       q    Type
REMARK                         _______ _______ _______ _____ _____    ______ ____
ROOT
ATOM      1  O   UNL     1      20.724   6.099  23.052  0.00  0.00    -0.336 OA
ATOM      5  N   UNL     1      20.539   5.755  20.846  0.00  0.00    -0.190 NA
ATOM      6  N   UNL     1      19.385   6.355  22.729  0.00  0.00    -0.056 NA
ATOM     13  C   UNL     1      21.333   5.752  21.888  0.00  0.00    +0.245 A 
ATOM     16  C   UNL     1      19.355   6.130  21.412  0.00  0.00    +0.202 A 
ENDROOT
BRANCH  16  17
ATOM      7  N   UNL     1      15.830   6.554  19.112  0.00  0.00    -0.221 NA
ATOM     17  C   UNL     1      18.160   6.273  20.632  0.00  0.00    +0.029 A 
ATOM     18  C   UNL     1      17.094   7.024  21.119  0.00  0.00    +0.079 A 
ATOM     19  C   UNL     1      18.061   5.664  19.387  0.00  0.00    +0.031 A 
ATOM     20  C   UNL     1      15.963   7.132  20.327  0.00  0.00    +0.215 A 
ATOM     21  C   UNL     1      16.887   5.833  18.672  0.00  0.00    +0.115 A 
BRANCH  20   2
ATOM      2  O   UNL     1      14.899   7.866  20.784  0.00  0.00    -0.474 OA
BRANCH   2  22
ATOM     22  C   UNL     1      13.735   7.140  21.158  0.00  0.00    +0.258 C 
BRANCH  22  23
ATOM     23  C   UNL     1      12.520   7.797  20.531  0.00  0.00    +0.200 C 
BRANCH  23   3
ATOM      3  O   UNL     1      11.520   6.811  20.312  0.00  0.00    -0.380 OA
ATOM     24  C   UNL     1      11.302   6.023  21.474  0.00  0.00    +0.194 C 
ENDBRANCH  23   3
ENDBRANCH  22  23
ENDBRANCH   2  22
ENDBRANCH  20   2
ENDBRANCH  16  17
BRANCH  13   8
ATOM      4  N   UNL     1      23.206   4.363  21.020  0.00  0.00    -0.291 NA
ATOM      8  C   UNL     1      22.808   5.421  21.969  0.00  0.00    +0.146 C 
ATOM      9  C   UNL     1      23.707   6.621  21.616  0.00  0.00    +0.030 C 
ATOM     10  C   UNL     1      24.605   4.617  20.679  0.00  0.00    +0.085 C 
ATOM     11  C   UNL     1      24.615   6.123  20.500  0.00  0.00    +0.017 C 
BRANCH   4  12
ATOM     12  C   UNL     1      23.005   3.017  21.543  0.00  0.00    +0.085 C 
BRANCH  12  14
ATOM     14  C   UNL     1      23.821   2.009  20.739  0.00  0.00    +0.012 C 
ATOM     15  C   UNL     1      24.476   0.978  21.646  0.00  0.00    +0.005 C 
ENDBRANCH  12  14
ENDBRANCH   4  12
ENDBRANCH  13   8
TORSDOF 8
ENDMDL
MODEL 6
REMARK VINA RESULT:      -5.9     26.575     28.443
REMARK  Name = 45783355
REMARK  10 active torsions:
REMARK  status: ('A' for Active; 'I' for Inactive)
REMARK    1  A    between atoms: O_2  and  C_20
REMARK    2  A    between atoms: O_2  and  C_22
REMARK    3  A    between atoms: O_3  and  C_23
REMARK    4  A    between atoms: O_3  and  C_24
REMARK    5  A    between atoms: N_4  and  C_12
REMARK    6  A    between atoms: C_8  and  C_13
REMARK    7  A    between atoms: C_12  and  C_14
REMARK    8  A    between atoms: C_14  and  C_15
REMARK    9  A    between atoms: C_16  and  C_17
REMARK   10  A    between atoms: C_22  and  C_23
REMARK                            x       y       z     vdW  Elec       q    Type
REMARK                         _______ _______ _______ _____ _____    ______ ____
ROOT
ATOM      1  O   UNL     1      -2.515 -10.680  14.777  0.00  0.00    -0.336 OA
ATOM      5  N   UNL     1      -4.751 -10.736  14.657  0.00  0.00    -0.190 NA
ATOM      6  N   UNL     1      -2.978 -10.594  16.096  0.00  0.00    -0.056 NA
ATOM     13  C   UNL     1      -3.623 -10.760  13.993  0.00  0.00    +0.245 A 
ATOM     16  C   UNL     1      -4.305 -10.635  15.943  0.00  0.00    +0.202 A 
ENDROOT
BRANCH  16  17
ATOM      7  N   UNL     1      -6.981 -10.453  19.214  0.00  0.00    -0.221 NA
ATOM     17  C   UNL     1      -5.212 -10.573  17.052  0.00  0.00    +0.029 A 
ATOM     18  C   UNL     1      -6.496 -10.065  16.877  0.00  0.00    +0.079 A 
ATOM     19  C   UNL     1      -4.813 -11.021  18.306  0.00  0.00    +0.031 A 
ATOM     20  C   UNL     1      -7.333 -10.027  17.981  0.00  0.00    +0.215 A 
ATOM     21  C   UNL     1      -5.726 -10.941  19.344  0.00  0.00    +0.115 A 
BRANCH  20   2
ATOM      2  O   UNL     1      -8.602  -9.531  17.835  0.00  0.00    -0.474 OA
BRANCH   2  22
ATOM     22  C   UNL     1      -8.868  -8.792  16.649  0.00  0.00    +0.258 C 
BRANCH  22  23
ATOM     23  C   UNL     1      -9.925  -7.745  16.946  0.00  0.00    +0.200 C 
BRANCH  23   3
ATOM      3  O   UNL     1      -9.970  -6.814  15.872  0.00  0.00    -0.380 OA
ATOM     24  C   UNL     1     -11.192  -6.088  15.863  0.00  0.00    +0.194 C 
ENDBRANCH  23   3
ENDBRANCH  22  23
ENDBRANCH   2  22
ENDBRANCH  20   2
ENDBRANCH  16  17
BRANCH  13   8
ATOM      4  N   UNL     1      -4.123  -9.835  11.739  0.00  0.00    -0.291 NA
ATOM      8  C   UNL     1      -3.389 -10.863  12.501  0.00  0.00    +0.146 C 
ATOM      9  C   UNL     1      -1.912 -10.657  12.115  0.00  0.00    +0.030 C 
ATOM     10  C   UNL     1      -3.334  -9.569  10.536  0.00  0.00    +0.085 C 
ATOM     11  C   UNL     1      -1.923  -9.533  11.088  0.00  0.00    +0.017 C 
BRANCH   4  12
ATOM     12  C   UNL     1      -5.492 -10.222  11.422  0.00  0.00    +0.085 C 
BRANCH  12  14
ATOM     14  C   UNL     1      -6.455  -9.086  11.758  0.00  0.00    +0.012 C 
ATOM     15  C   UNL     1      -7.484  -9.520  12.790  0.00  0.00    +0.005 C 
ENDBRANCH  12  14
ENDBRANCH   4  12
ENDBRANCH  13   8
TORSDOF 8
ENDMDL
MODEL 7
REMARK VINA RESULT:      -5.6      1.994      8.700
REMARK  Name = 45783355
REMARK  10 active torsions:
REMARK  status: ('A' for Active; 'I' for Inactive)
REMARK    1  A    between atoms: O_2  and  C_20
REMARK    2  A    between atoms: O_2  and  C_22
REMARK    3  A    between atoms: O_3  and  C_23
REMARK    4  A    between atoms: O_3  and  C_24
REMARK    5  A    between atoms: N_4  and  C_12
REMARK    6  A    between atoms: C_8  and  C_13
REMARK    7  A    between atoms: C_12  and  C_14
REMARK    8  A    between atoms: C_14  and  C_15
REMARK    9  A    between atoms: C_16  and  C_17
REMARK   10  A    between atoms: C_22  and  C_23
REMARK                            x       y       z     vdW  Elec       q    Type
REMARK                         _______ _______ _______ _____ _____    ______ ____
ROOT
ATOM      1  O   UNL     1      14.329   6.550  20.488  0.00  0.00    -0.336 OA
ATOM      5  N   UNL     1      15.959   7.488  19.272  0.00  0.00    -0.190 NA
ATOM      6  N   UNL     1      15.508   6.387  21.227  0.00  0.00    -0.056 NA
ATOM     13  C   UNL     1      14.683   7.207  19.353  0.00  0.00    +0.245 A 
ATOM     16  C   UNL     1      16.424   6.967  20.445  0.00  0.00    +0.202 A 
ENDROOT
BRANCH  16  17
ATOM      7  N   UNL     1      20.514   7.181  21.504  0.00  0.00    -0.221 NA
ATOM     17  C   UNL     1      17.810   7.039  20.804  0.00  0.00    +0.029 A 
ATOM     18  C   UNL     1      18.697   6.059  20.370  0.00  0.00    +0.079 A 
ATOM     19  C   UNL     1      18.275   8.090  21.587  0.00  0.00    +0.031 A 
ATOM     20  C   UNL     1      20.025   6.175  20.745  0.00  0.00    +0.215 A 
ATOM     21  C   UNL     1      19.622   8.116  21.906  0.00  0.00    +0.115 A 
BRANCH  20   2
ATOM      2  O   UNL     1      20.919   5.221  20.331  0.00  0.00    -0.474 OA
BRANCH   2  22
ATOM     22  C   UNL     1      21.372   4.299  21.313  0.00  0.00    +0.258 C 
BRANCH  22  23
ATOM     23  C   UNL     1      22.845   4.017  21.084  0.00  0.00    +0.200 C 
BRANCH  23   3
ATOM      3  O   UNL     1      23.169   2.753  21.649  0.00  0.00    -0.380 OA
ATOM     24  C   UNL     1      24.022   2.004  20.795  0.00  0.00    +0.194 C 
ENDBRANCH  23   3
ENDBRANCH  22  23
ENDBRANCH   2  22
ENDBRANCH  20   2
ENDBRANCH  16  17
BRANCH  13   8
ATOM      4  N   UNL     1      12.849   8.754  18.696  0.00  0.00    -0.291 NA
ATOM      8  C   UNL     1      13.570   7.508  18.371  0.00  0.00    +0.146 C 
ATOM      9  C   UNL     1      14.084   7.716  16.935  0.00  0.00    +0.030 C 
ATOM     10  C   UNL     1      12.358   9.291  17.427  0.00  0.00    +0.085 C 
ATOM     11  C   UNL     1      13.551   9.079  16.516  0.00  0.00    +0.017 C 
BRANCH   4  12
ATOM     12  C   UNL     1      11.774   8.561  19.661  0.00  0.00    +0.085 C 
BRANCH  12  14
ATOM     14  C   UNL     1      12.068   9.333  20.945  0.00  0.00    +0.012 C 
ATOM     15  C   UNL     1      12.490  10.763  20.646  0.00  0.00    +0.005 C 
ENDBRANCH  12  14
ENDBRANCH   4  12
ENDBRANCH  13   8
TORSDOF 8
ENDMDL
MODEL 8
REMARK VINA RESULT:      -5.6     28.344     31.724
REMARK  Name = 45783355
REMARK  10 active torsions:
REMARK  status: ('A' for Active; 'I' for Inactive)
REMARK    1  A    between atoms: O_2  and  C_20
REMARK    2  A    between atoms: O_2  and  C_22
REMARK    3  A    between atoms: O_3  and  C_23
REMARK    4  A    between atoms: O_3  and  C_24
REMARK    5  A    between atoms: N_4  and  C_12
REMARK    6  A    between atoms: C_8  and  C_13
REMARK    7  A    between atoms: C_12  and  C_14
REMARK    8  A    between atoms: C_14  and  C_15
REMARK    9  A    between atoms: C_16  and  C_17
REMARK   10  A    between atoms: C_22  and  C_23
REMARK                            x       y       z     vdW  Elec       q    Type
REMARK                         _______ _______ _______ _____ _____    ______ ____
ROOT
ATOM      1  O   UNL     1     -13.783   9.439  31.317  0.00  0.00    -0.336 OA
ATOM      5  N   UNL     1     -12.288   8.096  32.307  0.00  0.00    -0.190 NA
ATOM      6  N   UNL     1     -14.520   8.407  31.913  0.00  0.00    -0.056 NA
ATOM     13  C   UNL     1     -12.479   9.179  31.597  0.00  0.00    +0.245 A 
ATOM     16  C   UNL     1     -13.569   7.657  32.477  0.00  0.00    +0.202 A 
ENDROOT
BRANCH  16  17
ATOM      7  N   UNL     1     -14.439   4.134  34.651  0.00  0.00    -0.221 NA
ATOM     17  C   UNL     1     -13.864   6.462  33.214  0.00  0.00    +0.029 A 
ATOM     18  C   UNL     1     -14.166   5.283  32.541  0.00  0.00    +0.079 A 
ATOM     19  C   UNL     1     -13.849   6.478  34.604  0.00  0.00    +0.031 A 
ATOM     20  C   UNL     1     -14.444   4.157  33.300  0.00  0.00    +0.215 A 
ATOM     21  C   UNL     1     -14.140   5.299  35.270  0.00  0.00    +0.115 A 
BRANCH  20   2
ATOM      2  O   UNL     1     -14.744   2.983  32.661  0.00  0.00    -0.474 OA
BRANCH   2  22
ATOM     22  C   UNL     1     -13.719   2.410  31.859  0.00  0.00    +0.258 C 
BRANCH  22  23
ATOM     23  C   UNL     1     -14.238   1.129  31.233  0.00  0.00    +0.200 C 
BRANCH  23   3
ATOM      3  O   UNL     1     -13.571   0.914  29.996  0.00  0.00    -0.380 OA
ATOM     24  C   UNL     1     -13.488  -0.469  29.682  0.00  0.00    +0.194 C 
ENDBRANCH  23   3
ENDBRANCH  22  23
ENDBRANCH   2  22
ENDBRANCH  20   2
ENDBRANCH  16  17
BRANCH  13   8
ATOM      4  N   UNL     1     -11.906  10.805  29.803  0.00  0.00    -0.291 NA
ATOM      8  C   UNL     1     -11.463  10.164  31.056  0.00  0.00    +0.146 C 
ATOM      9  C   UNL     1     -11.197  11.334  32.021  0.00  0.00    +0.030 C 
ATOM     10  C   UNL     1     -11.281  12.127  29.771  0.00  0.00    +0.085 C 
ATOM     11  C   UNL     1     -11.458  12.591  31.203  0.00  0.00    +0.017 C 
BRANCH   4  12
ATOM     12  C   UNL     1     -11.590  10.021  28.615  0.00  0.00    +0.085 C 
BRANCH  12  14
ATOM     14  C   UNL     1     -10.937  10.905  27.555  0.00  0.00    +0.012 C 
ATOM     15  C   UNL     1      -9.901  10.133  26.753  0.00  0.00    +0.005 C 
ENDBRANCH  12  14
ENDBRANCH   4  12
ENDBRANCH  13   8
TORSDOF 8
ENDMDL
MODEL 9
REMARK VINA RESULT:      -5.5     25.968     28.323
REMARK  Name = 45783355
REMARK  10 active torsions:
REMARK  status: ('A' for Active; 'I' for Inactive)
REMARK    1  A    between atoms: O_2  and  C_20
REMARK    2  A    between atoms: O_2  and  C_22
REMARK    3  A    between atoms: O_3  and  C_23
REMARK    4  A    between atoms: O_3  and  C_24
REMARK    5  A    between atoms: N_4  and  C_12
REMARK    6  A    between atoms: C_8  and  C_13
REMARK    7  A    between atoms: C_12  and  C_14
REMARK    8  A    between atoms: C_14  and  C_15
REMARK    9  A    between atoms: C_16  and  C_17
REMARK   10  A    between atoms: C_22  and  C_23
REMARK                            x       y       z     vdW  Elec       q    Type
REMARK                         _______ _______ _______ _____ _____    ______ ____
ROOT
ATOM      1  O   UNL     1      -1.507 -10.556  14.595  0.00  0.00    -0.336 OA
ATOM      5  N   UNL     1      -3.723 -10.851  14.455  0.00  0.00    -0.190 NA
ATOM      6  N   UNL     1      -1.984 -10.561  15.913  0.00  0.00    -0.056 NA
ATOM     13  C   UNL     1      -2.595 -10.732  13.800  0.00  0.00    +0.245 A 
ATOM     16  C   UNL     1      -3.298 -10.740  15.747  0.00  0.00    +0.202 A 
ENDROOT
BRANCH  16  17
ATOM      7  N   UNL     1      -5.994 -10.949  19.000  0.00  0.00    -0.221 NA
ATOM     17  C   UNL     1      -4.212 -10.811  16.850  0.00  0.00    +0.029 A 
ATOM     18  C   UNL     1      -5.488 -10.270  16.735  0.00  0.00    +0.079 A 
ATOM     19  C   UNL     1      -3.826 -11.421  18.038  0.00  0.00    +0.031 A 
ATOM     20  C   UNL     1      -6.332 -10.364  17.829  0.00  0.00    +0.215 A 
ATOM     21  C   UNL     1      -4.745 -11.464  19.073  0.00  0.00    +0.115 A 
BRANCH  20   2
ATOM      2  O   UNL     1      -7.595  -9.839  17.741  0.00  0.00    -0.474 OA
BRANCH   2  22
ATOM     22  C   UNL     1      -8.678 -10.756  17.830  0.00  0.00    +0.258 C 
BRANCH  22  23
ATOM     23  C   UNL     1      -9.581 -10.347  18.978  0.00  0.00    +0.200 C 
BRANCH  23   3
ATOM      3  O   UNL     1      -9.295 -11.162  20.107  0.00  0.00    -0.380 OA
ATOM     24  C   UNL     1     -10.191 -12.261  20.197  0.00  0.00    +0.194 C 
ENDBRANCH  23   3
ENDBRANCH  22  23
ENDBRANCH   2  22
ENDBRANCH  20   2
ENDBRANCH  16  17
BRANCH  13   8
ATOM      4  N   UNL     1      -3.524 -10.350  11.524  0.00  0.00    -0.291 NA
ATOM      8  C   UNL     1      -2.344 -10.764  12.307  0.00  0.00    +0.146 C 
ATOM      9  C   UNL     1      -1.226  -9.798  11.872  0.00  0.00    +0.030 C 
ATOM     10  C   UNL     1      -3.013  -9.755  10.289  0.00  0.00    +0.085 C 
ATOM     11  C   UNL     1      -1.856  -8.919  10.800  0.00  0.00    +0.017 C 
BRANCH   4  12
ATOM     12  C   UNL     1      -4.453 -11.442  11.262  0.00  0.00    +0.085 C 
BRANCH  12  14
ATOM     14  C   UNL     1      -3.696 -12.677  10.779  0.00  0.00    +0.012 C 
ATOM     15  C   UNL     1      -4.213 -13.148   9.428  0.00  0.00    +0.005 C 
ENDBRANCH  12  14
ENDBRANCH   4  12
ENDBRANCH  13   8
TORSDOF 8
ENDMDL
MODEL 10
REMARK VINA RESULT:      -5.4     26.929     29.018
REMARK  Name = 45783355
REMARK  10 active torsions:
REMARK  status: ('A' for Active; 'I' for Inactive)
REMARK    1  A    between atoms: O_2  and  C_20
REMARK    2  A    between atoms: O_2  and  C_22
REMARK    3  A    between atoms: O_3  and  C_23
REMARK    4  A    between atoms: O_3  and  C_24
REMARK    5  A    between atoms: N_4  and  C_12
REMARK    6  A    between atoms: C_8  and  C_13
REMARK    7  A    between atoms: C_12  and  C_14
REMARK    8  A    between atoms: C_14  and  C_15
REMARK    9  A    between atoms: C_16  and  C_17
REMARK   10  A    between atoms: C_22  and  C_23
REMARK                            x       y       z     vdW  Elec       q    Type
REMARK                         _______ _______ _______ _____ _____    ______ ____
ROOT
ATOM      1  O   UNL     1      -4.557 -12.193  16.613  0.00  0.00    -0.336 OA
ATOM      5  N   UNL     1      -4.751 -10.193  15.622  0.00  0.00    -0.190 NA
ATOM      6  N   UNL     1      -3.918 -12.310  15.371  0.00  0.00    -0.056 NA
ATOM     13  C   UNL     1      -5.018 -10.917  16.680  0.00  0.00    +0.245 A 
ATOM     16  C   UNL     1      -4.074 -11.090  14.847  0.00  0.00    +0.202 A 
ENDROOT
BRANCH  16  17
ATOM      7  N   UNL     1      -2.583 -10.047  11.029  0.00  0.00    -0.221 NA
ATOM     17  C   UNL     1      -3.568 -10.737  13.553  0.00  0.00    +0.029 A 
ATOM     18  C   UNL     1      -4.447 -10.509  12.498  0.00  0.00    +0.079 A 
ATOM     19  C   UNL     1      -2.199 -10.619  13.346  0.00  0.00    +0.031 A 
ATOM     20  C   UNL     1      -3.908 -10.171  11.268  0.00  0.00    +0.215 A 
ATOM     21  C   UNL     1      -1.761 -10.275  12.078  0.00  0.00    +0.115 A 
BRANCH  20   2
ATOM      2  O   UNL     1      -4.752  -9.942  10.212  0.00  0.00    -0.474 OA
BRANCH   2  22
ATOM     22  C   UNL     1      -4.891  -8.592   9.785  0.00  0.00    +0.258 C 
BRANCH  22  23
ATOM     23  C   UNL     1      -6.345  -8.329   9.443  0.00  0.00    +0.200 C 
BRANCH  23   3
ATOM      3  O   UNL     1      -7.161  -8.746  10.530  0.00  0.00    -0.380 OA
ATOM     24  C   UNL     1      -8.470  -9.088  10.098  0.00  0.00    +0.194 C 
ENDBRANCH  23   3
ENDBRANCH  22  23
ENDBRANCH   2  22
ENDBRANCH  20   2
ENDBRANCH  16  17
BRANCH  13   8
ATOM      4  N   UNL     1      -7.224 -10.575  17.779  0.00  0.00    -0.291 NA
ATOM      8  C   UNL     1      -5.758 -10.531  17.944  0.00  0.00    +0.146 C 
ATOM      9  C   UNL     1      -5.467 -11.486  19.117  0.00  0.00    +0.030 C 
ATOM     10  C   UNL     1      -7.779 -10.890  19.095  0.00  0.00    +0.085 C 
ATOM     11  C   UNL     1      -6.834 -11.969  19.584  0.00  0.00    +0.017 C 
BRANCH   4  12
ATOM     12  C   UNL     1      -7.778  -9.343  17.231  0.00  0.00    +0.085 C 
BRANCH  12  14
ATOM     14  C   UNL     1      -9.297  -9.333  17.380  0.00  0.00    +0.012 C 
ATOM     15  C   UNL     1      -9.849  -7.917  17.318  0.00  0.00    +0.005 C 
ENDBRANCH  12  14
ENDBRANCH   4  12
ENDBRANCH  13   8
TORSDOF 8
ENDMDL
