MODEL 1
REMARK VINA RESULT:      -6.9      0.000      0.000
REMARK  Name = 75536993
REMARK  4 active torsions:
REMARK  status: ('A' for Active; 'I' for Inactive)
REMARK    1  A    between atoms: S_1  and  N_7
REMARK    2  A    between atoms: S_1  and  C_16
REMARK    3  A    between atoms: N_8  and  C_15
REMARK    4  A    between atoms: C_15  and  C_17
REMARK                            x       y       z     vdW  Elec       q    Type
REMARK                         _______ _______ _______ _____ _____    ______ ____
ROOT
ATOM      3  O   UNL     1      10.688   7.333  20.773  0.00  0.00    -0.252 OA
ATOM      6  N   UNL     1      11.875   8.918  22.037  0.00  0.00    -0.278 N 
ATOM      7  N   UNL     1      12.326  11.257  23.500  0.00  0.00    -0.173 NA
ATOM      8  N   UNL     1      12.854   8.069  20.203  0.00  0.00    -0.279 N 
ATOM      9  C   UNL     1      13.212   9.481  22.046  0.00  0.00    +0.111 C 
ATOM     10  C   UNL     1      13.153  10.986  22.276  0.00  0.00    +0.133 C 
ATOM     11  C   UNL     1      13.789   9.066  20.694  0.00  0.00    +0.133 C 
ATOM     12  C   UNL     1      10.958   9.230  23.116  0.00  0.00    +0.127 C 
ATOM     13  C   UNL     1      10.925  10.738  23.352  0.00  0.00    +0.128 C 
ATOM     14  C   UNL     1      11.681   8.018  20.980  0.00  0.00    +0.305 C 
ENDROOT
BRANCH   7   1
ATOM      1  S   UNL     1      12.451  12.848  24.126  0.00  0.00    +0.061 S 
ATOM      4  O   UNL     1      13.730  13.406  23.743  0.00  0.00    -0.153 OA
ATOM      5  O   UNL     1      12.024  12.842  25.508  0.00  0.00    -0.153 OA
BRANCH   1  16
ATOM     16  C   UNL     1      11.202  13.653  23.174  0.00  0.00    +0.105 A 
ATOM     18  C   UNL     1      11.405  13.890  21.815  0.00  0.00    +0.028 A 
ATOM     19  C   UNL     1      10.011  14.052  23.781  0.00  0.00    +0.028 A 
ATOM     22  C   UNL     1      10.418  14.527  21.063  0.00  0.00    +0.002 A 
ATOM     23  C   UNL     1       9.023  14.688  23.029  0.00  0.00    +0.002 A 
ATOM     26  C   UNL     1       9.227  14.926  21.669  0.00  0.00    +0.000 A 
ENDBRANCH   1  16
ENDBRANCH   7   1
BRANCH   8  15
ATOM     15  C   UNL     1      13.090   7.337  18.978  0.00  0.00    +0.144 C 
BRANCH  15  17
ATOM      2  F   UNL     1      11.553  10.280  14.431  0.00  0.00    -0.205 F 
ATOM     17  C   UNL     1      12.680   8.122  17.766  0.00  0.00    -0.030 A 
ATOM     20  C   UNL     1      13.648   8.740  16.975  0.00  0.00    +0.008 A 
ATOM     21  C   UNL     1      11.330   8.233  17.429  0.00  0.00    +0.008 A 
ATOM     24  C   UNL     1      13.269   9.469  15.849  0.00  0.00    +0.038 A 
ATOM     25  C   UNL     1      10.950   8.963  16.303  0.00  0.00    +0.038 A 
ATOM     27  C   UNL     1      11.919   9.581  15.512  0.00  0.00    +0.123 A 
ENDBRANCH  15  17
ENDBRANCH   8  15
TORSDOF 4
ENDMDL
MODEL 2
REMARK VINA RESULT:      -6.9     26.972     28.423
REMARK  Name = 75536993
REMARK  4 active torsions:
REMARK  status: ('A' for Active; 'I' for Inactive)
REMARK    1  A    between atoms: S_1  and  N_7
REMARK    2  A    between atoms: S_1  and  C_16
REMARK    3  A    between atoms: N_8  and  C_15
REMARK    4  A    between atoms: C_15  and  C_17
REMARK                            x       y       z     vdW  Elec       q    Type
REMARK                         _______ _______ _______ _____ _____    ______ ____
ROOT
ATOM      3  O   UNL     1      -1.459 -11.371  15.146  0.00  0.00    -0.252 OA
ATOM      6  N   UNL     1      -3.669 -11.118  15.902  0.00  0.00    -0.278 N 
ATOM      7  N   UNL     1      -5.862 -11.335  17.622  0.00  0.00    -0.173 NA
ATOM      8  N   UNL     1      -3.337 -11.785  13.783  0.00  0.00    -0.279 N 
ATOM      9  C   UNL     1      -4.998 -11.165  15.324  0.00  0.00    +0.111 C 
ATOM     10  C   UNL     1      -5.950 -11.922  16.242  0.00  0.00    +0.133 C 
ATOM     11  C   UNL     1      -4.778 -11.817  13.960  0.00  0.00    +0.133 C 
ATOM     12  C   UNL     1      -3.499 -10.686  17.275  0.00  0.00    +0.127 C 
ATOM     13  C   UNL     1      -4.472 -11.433  18.181  0.00  0.00    +0.128 C 
ATOM     14  C   UNL     1      -2.668 -11.415  14.966  0.00  0.00    +0.305 C 
ENDROOT
BRANCH   7   1
ATOM      1  S   UNL     1      -7.115 -11.802  18.694  0.00  0.00    +0.061 S 
ATOM      4  O   UNL     1      -6.680 -11.573  20.055  0.00  0.00    -0.153 OA
ATOM      5  O   UNL     1      -7.629 -13.089  18.281  0.00  0.00    -0.153 OA
BRANCH   1  16
ATOM     16  C   UNL     1      -8.327 -10.581  18.301  0.00  0.00    +0.105 A 
ATOM     18  C   UNL     1      -9.612 -10.677  18.834  0.00  0.00    +0.028 A 
ATOM     19  C   UNL     1      -8.000  -9.519  17.456  0.00  0.00    +0.028 A 
ATOM     22  C   UNL     1     -10.571  -9.712  18.522  0.00  0.00    +0.002 A 
ATOM     23  C   UNL     1      -8.958  -8.554  17.145  0.00  0.00    +0.002 A 
ATOM     26  C   UNL     1     -10.244  -8.651  17.679  0.00  0.00    +0.000 A 
ENDBRANCH   1  16
ENDBRANCH   7   1
BRANCH   8  15
ATOM     15  C   UNL     1      -2.707 -12.220  12.555  0.00  0.00    +0.144 C 
BRANCH  15  17
ATOM      2  F   UNL     1      -4.473  -9.248   8.111  0.00  0.00    -0.205 F 
ATOM     17  C   UNL     1      -3.177 -11.427  11.370  0.00  0.00    -0.030 A 
ATOM     20  C   UNL     1      -3.920 -12.049  10.366  0.00  0.00    +0.008 A 
ATOM     21  C   UNL     1      -2.874 -10.069  11.273  0.00  0.00    +0.008 A 
ATOM     24  C   UNL     1      -4.357 -11.314   9.265  0.00  0.00    +0.038 A 
ATOM     25  C   UNL     1      -3.311  -9.333  10.171  0.00  0.00    +0.038 A 
ATOM     27  C   UNL     1      -4.053  -9.955   9.167  0.00  0.00    +0.123 A 
ENDBRANCH  15  17
ENDBRANCH   8  15
TORSDOF 4
ENDMDL
MODEL 3
REMARK VINA RESULT:      -6.8      5.691      7.465
REMARK  Name = 75536993
REMARK  4 active torsions:
REMARK  status: ('A' for Active; 'I' for Inactive)
REMARK    1  A    between atoms: S_1  and  N_7
REMARK    2  A    between atoms: S_1  and  C_16
REMARK    3  A    between atoms: N_8  and  C_15
REMARK    4  A    between atoms: C_15  and  C_17
REMARK                            x       y       z     vdW  Elec       q    Type
REMARK                         _______ _______ _______ _____ _____    ______ ____
ROOT
ATOM      3  O   UNL     1      12.144   6.994  18.106  0.00  0.00    -0.252 OA
ATOM      6  N   UNL     1      13.010   9.071  17.431  0.00  0.00    -0.278 N 
ATOM      7  N   UNL     1      13.939  11.051  15.689  0.00  0.00    -0.173 NA
ATOM      8  N   UNL     1      13.950   8.046  19.195  0.00  0.00    -0.279 N 
ATOM      9  C   UNL     1      13.988  10.022  17.924  0.00  0.00    +0.111 C 
ATOM     10  C   UNL     1      14.844  10.547  16.777  0.00  0.00    +0.133 C 
ATOM     11  C   UNL     1      14.759   9.235  18.983  0.00  0.00    +0.133 C 
ATOM     12  C   UNL     1      12.178   9.421  16.297  0.00  0.00    +0.127 C 
ATOM     13  C   UNL     1      13.042   9.967  15.164  0.00  0.00    +0.128 C 
ATOM     14  C   UNL     1      12.932   7.922  18.230  0.00  0.00    +0.305 C 
ENDROOT
BRANCH   7   1
ATOM      1  S   UNL     1      14.703  12.009  14.491  0.00  0.00    +0.061 S 
ATOM      4  O   UNL     1      14.914  11.204  13.308  0.00  0.00    -0.153 OA
ATOM      5  O   UNL     1      15.793  12.739  15.101  0.00  0.00    -0.153 OA
BRANCH   1  16
ATOM     16  C   UNL     1      13.408  13.156  14.143  0.00  0.00    +0.105 A 
ATOM     18  C   UNL     1      13.311  14.341  14.872  0.00  0.00    +0.028 A 
ATOM     19  C   UNL     1      12.481  12.878  13.138  0.00  0.00    +0.028 A 
ATOM     22  C   UNL     1      12.286  15.248  14.597  0.00  0.00    +0.002 A 
ATOM     23  C   UNL     1      11.457  13.784  12.862  0.00  0.00    +0.002 A 
ATOM     26  C   UNL     1      11.360  14.970  13.592  0.00  0.00    +0.000 A 
ENDBRANCH   1  16
ENDBRANCH   7   1
BRANCH   8  15
ATOM     15  C   UNL     1      14.277   7.070  20.211  0.00  0.00    +0.144 C 
BRANCH  15  17
ATOM      2  F   UNL     1      19.744   5.723  20.155  0.00  0.00    -0.205 F 
ATOM     17  C   UNL     1      15.735   6.710  20.196  0.00  0.00    -0.030 A 
ATOM     20  C   UNL     1      16.291   6.094  19.075  0.00  0.00    +0.008 A 
ATOM     21  C   UNL     1      16.535   6.993  21.304  0.00  0.00    +0.008 A 
ATOM     24  C   UNL     1      17.644   5.760  19.060  0.00  0.00    +0.038 A 
ATOM     25  C   UNL     1      17.889   6.659  21.290  0.00  0.00    +0.038 A 
ATOM     27  C   UNL     1      18.444   6.042  20.168  0.00  0.00    +0.123 A 
ENDBRANCH  15  17
ENDBRANCH   8  15
TORSDOF 4
ENDMDL
MODEL 4
REMARK VINA RESULT:      -6.7      6.914      8.694
REMARK  Name = 75536993
REMARK  4 active torsions:
REMARK  status: ('A' for Active; 'I' for Inactive)
REMARK    1  A    between atoms: S_1  and  N_7
REMARK    2  A    between atoms: S_1  and  C_16
REMARK    3  A    between atoms: N_8  and  C_15
REMARK    4  A    between atoms: C_15  and  C_17
REMARK                            x       y       z     vdW  Elec       q    Type
REMARK                         _______ _______ _______ _____ _____    ______ ____
ROOT
ATOM      3  O   UNL     1      18.835   4.884  19.632  0.00  0.00    -0.252 OA
ATOM      6  N   UNL     1      17.664   6.702  20.549  0.00  0.00    -0.278 N 
ATOM      7  N   UNL     1      15.776   8.758  20.704  0.00  0.00    -0.173 NA
ATOM      8  N   UNL     1      19.905   6.692  20.702  0.00  0.00    -0.279 N 
ATOM      9  C   UNL     1      17.978   7.870  21.349  0.00  0.00    +0.111 C 
ATOM     10  C   UNL     1      17.236   9.092  20.821  0.00  0.00    +0.133 C 
ATOM     11  C   UNL     1      19.500   7.967  21.268  0.00  0.00    +0.133 C 
ATOM     12  C   UNL     1      16.279   6.373  20.273  0.00  0.00    +0.127 C 
ATOM     13  C   UNL     1      15.540   7.609  19.767  0.00  0.00    +0.128 C 
ATOM     14  C   UNL     1      18.804   5.955  20.223  0.00  0.00    +0.305 C 
ENDROOT
BRANCH   7   1
ATOM      1  S   UNL     1      14.736  10.103  20.484  0.00  0.00    +0.061 S 
ATOM      4  O   UNL     1      14.831  10.552  19.111  0.00  0.00    -0.153 OA
ATOM      5  O   UNL     1      14.922  11.023  21.584  0.00  0.00    -0.153 OA
BRANCH   1  16
ATOM     16  C   UNL     1      13.169   9.318  20.690  0.00  0.00    +0.105 A 
ATOM     18  C   UNL     1      12.277   9.250  19.620  0.00  0.00    +0.028 A 
ATOM     19  C   UNL     1      12.823   8.764  21.923  0.00  0.00    +0.028 A 
ATOM     22  C   UNL     1      11.038   8.630  19.783  0.00  0.00    +0.002 A 
ATOM     23  C   UNL     1      11.585   8.143  22.086  0.00  0.00    +0.002 A 
ATOM     26  C   UNL     1      10.692   8.076  21.015  0.00  0.00    +0.000 A 
ENDBRANCH   1  16
ENDBRANCH   7   1
BRANCH   8  15
ATOM     15  C   UNL     1      21.296   6.328  20.551  0.00  0.00    +0.144 C 
BRANCH  15  17
ATOM      2  F   UNL     1      22.994   2.772  24.572  0.00  0.00    -0.205 F 
ATOM     17  C   UNL     1      21.750   5.380  21.623  0.00  0.00    -0.030 A 
ATOM     20  C   UNL     1      22.134   5.870  22.871  0.00  0.00    +0.008 A 
ATOM     21  C   UNL     1      21.785   4.008  21.373  0.00  0.00    +0.008 A 
ATOM     24  C   UNL     1      22.555   4.990  23.867  0.00  0.00    +0.038 A 
ATOM     25  C   UNL     1      22.206   3.127  22.369  0.00  0.00    +0.038 A 
ATOM     27  C   UNL     1      22.591   3.618  23.617  0.00  0.00    +0.123 A 
ENDBRANCH  15  17
ENDBRANCH   8  15
TORSDOF 4
ENDMDL
MODEL 5
REMARK VINA RESULT:      -6.7      3.793      7.827
REMARK  Name = 75536993
REMARK  4 active torsions:
REMARK  status: ('A' for Active; 'I' for Inactive)
REMARK    1  A    between atoms: S_1  and  N_7
REMARK    2  A    between atoms: S_1  and  C_16
REMARK    3  A    between atoms: N_8  and  C_15
REMARK    4  A    between atoms: C_15  and  C_17
REMARK                            x       y       z     vdW  Elec       q    Type
REMARK                         _______ _______ _______ _____ _____    ______ ____
ROOT
ATOM      3  O   UNL     1      10.726  11.154  24.681  0.00  0.00    -0.252 OA
ATOM      6  N   UNL     1      11.150  10.385  22.502  0.00  0.00    -0.278 N 
ATOM      7  N   UNL     1      11.957   8.627  20.485  0.00  0.00    -0.173 NA
ATOM      8  N   UNL     1      11.800  12.466  23.044  0.00  0.00    -0.279 N 
ATOM      9  C   UNL     1      11.656  10.942  21.262  0.00  0.00    +0.111 C 
ATOM     10  C   UNL     1      12.622   9.968  20.598  0.00  0.00    +0.133 C 
ATOM     11  C   UNL     1      12.283  12.268  21.688  0.00  0.00    +0.133 C 
ATOM     12  C   UNL     1      10.606   9.042  22.517  0.00  0.00    +0.127 C 
ATOM     13  C   UNL     1      11.571   8.081  21.829  0.00  0.00    +0.128 C 
ATOM     14  C   UNL     1      11.166  11.315  23.551  0.00  0.00    +0.305 C 
ENDROOT
BRANCH   7   1
ATOM      1  S   UNL     1      12.736   7.512  19.441  0.00  0.00    +0.061 S 
ATOM      4  O   UNL     1      12.015   6.258  19.468  0.00  0.00    -0.153 OA
ATOM      5  O   UNL     1      14.161   7.559  19.687  0.00  0.00    -0.153 OA
BRANCH   1  16
ATOM     16  C   UNL     1      12.428   8.282  17.883  0.00  0.00    +0.105 A 
ATOM     18  C   UNL     1      11.121   8.397  17.409  0.00  0.00    +0.028 A 
ATOM     19  C   UNL     1      13.491   8.774  17.125  0.00  0.00    +0.028 A 
ATOM     22  C   UNL     1      10.877   9.005  16.177  0.00  0.00    +0.002 A 
ATOM     23  C   UNL     1      13.247   9.383  15.894  0.00  0.00    +0.002 A 
ATOM     26  C   UNL     1      11.940   9.498  15.420  0.00  0.00    +0.000 A 
ENDBRANCH   1  16
ENDBRANCH   7   1
BRANCH   8  15
ATOM     15  C   UNL     1      12.082  13.674  23.788  0.00  0.00    +0.144 C 
BRANCH  15  17
ATOM      2  F   UNL     1      16.338  12.979  27.407  0.00  0.00    -0.205 F 
ATOM     17  C   UNL     1      13.217  13.488  24.753  0.00  0.00    -0.030 A 
ATOM     20  C   UNL     1      14.511  13.281  24.277  0.00  0.00    +0.008 A 
ATOM     21  C   UNL     1      12.977  13.524  26.127  0.00  0.00    +0.008 A 
ATOM     24  C   UNL     1      15.565  13.109  25.172  0.00  0.00    +0.038 A 
ATOM     25  C   UNL     1      14.032  13.351  27.024  0.00  0.00    +0.038 A 
ATOM     27  C   UNL     1      15.326  13.143  26.546  0.00  0.00    +0.123 A 
ENDBRANCH  15  17
ENDBRANCH   8  15
TORSDOF 4
ENDMDL
MODEL 6
REMARK VINA RESULT:      -6.6     27.412     29.227
REMARK  Name = 75536993
REMARK  4 active torsions:
REMARK  status: ('A' for Active; 'I' for Inactive)
REMARK    1  A    between atoms: S_1  and  N_7
REMARK    2  A    between atoms: S_1  and  C_16
REMARK    3  A    between atoms: N_8  and  C_15
REMARK    4  A    between atoms: C_15  and  C_17
REMARK                            x       y       z     vdW  Elec       q    Type
REMARK                         _______ _______ _______ _____ _____    ______ ____
ROOT
ATOM      3  O   UNL     1     -18.394   4.764  27.169  0.00  0.00    -0.252 OA
ATOM      6  N   UNL     1     -17.040   5.070  25.273  0.00  0.00    -0.278 N 
ATOM      7  N   UNL     1     -16.366   5.792  22.658  0.00  0.00    -0.173 NA
ATOM      8  N   UNL     1     -16.877   3.132  26.397  0.00  0.00    -0.279 N 
ATOM      9  C   UNL     1     -15.959   4.360  24.618  0.00  0.00    +0.111 C 
ATOM     10  C   UNL     1     -16.153   4.374  23.106  0.00  0.00    +0.133 C 
ATOM     11  C   UNL     1     -16.000   2.970  25.251  0.00  0.00    +0.133 C 
ATOM     12  C   UNL     1     -17.404   6.398  24.822  0.00  0.00    +0.127 C 
ATOM     13  C   UNL     1     -17.573   6.405  23.305  0.00  0.00    +0.128 C 
ATOM     14  C   UNL     1     -17.543   4.373  26.381  0.00  0.00    +0.305 C 
ENDROOT
BRANCH   7   1
ATOM      1  S   UNL     1     -16.233   6.050  20.969  0.00  0.00    +0.061 S 
ATOM      4  O   UNL     1     -17.015   7.212  20.607  0.00  0.00    -0.153 OA
ATOM      5  O   UNL     1     -16.413   4.787  20.287  0.00  0.00    -0.153 OA
BRANCH   1  16
ATOM     16  C   UNL     1     -14.527   6.489  20.858  0.00  0.00    +0.105 A 
ATOM     18  C   UNL     1     -14.133   7.558  20.054  0.00  0.00    +0.028 A 
ATOM     19  C   UNL     1     -13.572   5.768  21.576  0.00  0.00    +0.028 A 
ATOM     22  C   UNL     1     -12.784   7.905  19.965  0.00  0.00    +0.002 A 
ATOM     23  C   UNL     1     -12.224   6.115  21.489  0.00  0.00    +0.002 A 
ATOM     26  C   UNL     1     -11.830   7.184  20.684  0.00  0.00    +0.000 A 
ENDBRANCH   1  16
ENDBRANCH   7   1
BRANCH   8  15
ATOM     15  C   UNL     1     -17.108   2.061  27.342  0.00  0.00    +0.144 C 
BRANCH  15  17
ATOM      2  F   UNL     1     -13.276   2.027  31.466  0.00  0.00    -0.205 F 
ATOM     17  C   UNL     1     -16.086   2.052  28.442  0.00  0.00    -0.030 A 
ATOM     20  C   UNL     1     -15.727   0.849  29.051  0.00  0.00    +0.008 A 
ATOM     21  C   UNL     1     -15.495   3.246  28.855  0.00  0.00    +0.008 A 
ATOM     24  C   UNL     1     -14.779   0.840  30.072  0.00  0.00    +0.038 A 
ATOM     25  C   UNL     1     -14.546   3.238  29.878  0.00  0.00    +0.038 A 
ATOM     27  C   UNL     1     -14.187   2.034  30.486  0.00  0.00    +0.123 A 
ENDBRANCH  15  17
ENDBRANCH   8  15
TORSDOF 4
ENDMDL
MODEL 7
REMARK VINA RESULT:      -6.5     26.775     29.215
REMARK  Name = 75536993
REMARK  4 active torsions:
REMARK  status: ('A' for Active; 'I' for Inactive)
REMARK    1  A    between atoms: S_1  and  N_7
REMARK    2  A    between atoms: S_1  and  C_16
REMARK    3  A    between atoms: N_8  and  C_15
REMARK    4  A    between atoms: C_15  and  C_17
REMARK                            x       y       z     vdW  Elec       q    Type
REMARK                         _______ _______ _______ _____ _____    ______ ____
ROOT
ATOM      3  O   UNL     1      -7.207 -13.735  17.722  0.00  0.00    -0.252 OA
ATOM      6  N   UNL     1      -5.846 -12.371  16.377  0.00  0.00    -0.278 N 
ATOM      7  N   UNL     1      -3.621 -11.620  14.861  0.00  0.00    -0.173 NA
ATOM      8  N   UNL     1      -6.834 -11.451  18.173  0.00  0.00    -0.279 N 
ATOM      9  C   UNL     1      -5.511 -10.963  16.294  0.00  0.00    +0.111 C 
ATOM     10  C   UNL     1      -4.018 -10.786  16.046  0.00  0.00    +0.133 C 
ATOM     11  C   UNL     1      -6.007 -10.392  17.621  0.00  0.00    +0.133 C 
ATOM     12  C   UNL     1      -5.394 -13.279  15.342  0.00  0.00    +0.127 C 
ATOM     13  C   UNL     1      -3.903 -13.077  15.086  0.00  0.00    +0.128 C 
ATOM     14  C   UNL     1      -6.697 -12.655  17.455  0.00  0.00    +0.305 C 
ENDROOT
BRANCH   7   1
ATOM      1  S   UNL     1      -2.077 -11.268  14.207  0.00  0.00    +0.061 S 
ATOM      4  O   UNL     1      -1.423 -12.509  13.849  0.00  0.00    -0.153 OA
ATOM      5  O   UNL     1      -1.420 -10.296  15.053  0.00  0.00    -0.153 OA
BRANCH   1  16
ATOM     16  C   UNL     1      -2.553 -10.457  12.714  0.00  0.00    +0.105 A 
ATOM     18  C   UNL     1      -3.898 -10.393  12.353  0.00  0.00    +0.028 A 
ATOM     19  C   UNL     1      -1.583  -9.879  11.894  0.00  0.00    +0.028 A 
ATOM     22  C   UNL     1      -4.275  -9.752  11.172  0.00  0.00    +0.002 A 
ATOM     23  C   UNL     1      -1.959  -9.237  10.714  0.00  0.00    +0.002 A 
ATOM     26  C   UNL     1      -3.305  -9.173  10.353  0.00  0.00    +0.000 A 
ENDBRANCH   1  16
ENDBRANCH   7   1
BRANCH   8  15
ATOM     15  C   UNL     1      -7.588 -11.276  19.395  0.00  0.00    +0.144 C 
BRANCH  15  17
ATOM      2  F   UNL     1     -12.719  -9.171  18.423  0.00  0.00    -0.205 F 
ATOM     17  C   UNL     1      -8.956 -10.714  19.136  0.00  0.00    -0.030 A 
ATOM     20  C   UNL     1      -9.215 -10.025  17.951  0.00  0.00    +0.008 A 
ATOM     21  C   UNL     1      -9.970 -10.882  20.080  0.00  0.00    +0.008 A 
ATOM     24  C   UNL     1     -10.485  -9.504  17.709  0.00  0.00    +0.038 A 
ATOM     25  C   UNL     1     -11.241 -10.359  19.839  0.00  0.00    +0.038 A 
ATOM     27  C   UNL     1     -11.499  -9.670  18.654  0.00  0.00    +0.123 A 
ENDBRANCH  15  17
ENDBRANCH   8  15
TORSDOF 4
ENDMDL
MODEL 8
REMARK VINA RESULT:      -6.5     27.037     28.369
REMARK  Name = 75536993
REMARK  4 active torsions:
REMARK  status: ('A' for Active; 'I' for Inactive)
REMARK    1  A    between atoms: S_1  and  N_7
REMARK    2  A    between atoms: S_1  and  C_16
REMARK    3  A    between atoms: N_8  and  C_15
REMARK    4  A    between atoms: C_15  and  C_17
REMARK                            x       y       z     vdW  Elec       q    Type
REMARK                         _______ _______ _______ _____ _____    ______ ____
ROOT
ATOM      3  O   UNL     1      -3.938 -13.632  13.916  0.00  0.00    -0.252 OA
ATOM      6  N   UNL     1      -4.361 -12.713  16.037  0.00  0.00    -0.278 N 
ATOM      7  N   UNL     1      -5.852 -11.862  18.244  0.00  0.00    -0.173 NA
ATOM      8  N   UNL     1      -2.921 -11.648  14.683  0.00  0.00    -0.279 N 
ATOM      9  C   UNL     1      -3.842 -11.626  16.844  0.00  0.00    +0.111 C 
ATOM     10  C   UNL     1      -4.982 -10.874  17.520  0.00  0.00    +0.133 C 
ATOM     11  C   UNL     1      -3.032 -10.793  15.852  0.00  0.00    +0.133 C 
ATOM     12  C   UNL     1      -5.310 -13.645  16.615  0.00  0.00    +0.127 C 
ATOM     13  C   UNL     1      -6.434 -12.882  17.309  0.00  0.00    +0.128 C 
ATOM     14  C   UNL     1      -3.760 -12.775  14.772  0.00  0.00    +0.305 C 
ENDROOT
BRANCH   7   1
ATOM      1  S   UNL     1      -6.959 -11.179  19.359  0.00  0.00    +0.061 S 
ATOM      4  O   UNL     1      -6.322 -10.070  20.037  0.00  0.00    -0.153 OA
ATOM      5  O   UNL     1      -7.591 -12.245  20.104  0.00  0.00    -0.153 OA
BRANCH   1  16
ATOM     16  C   UNL     1      -8.152 -10.515  18.240  0.00  0.00    +0.105 A 
ATOM     18  C   UNL     1      -7.876  -9.341  17.541  0.00  0.00    +0.028 A 
ATOM     19  C   UNL     1      -9.373 -11.166  18.056  0.00  0.00    +0.028 A 
ATOM     22  C   UNL     1      -8.819  -8.816  16.657  0.00  0.00    +0.002 A 
ATOM     23  C   UNL     1     -10.316 -10.642  17.171  0.00  0.00    +0.002 A 
ATOM     26  C   UNL     1     -10.039  -9.467  16.472  0.00  0.00    +0.000 A 
ENDBRANCH   1  16
ENDBRANCH   7   1
BRANCH   8  15
ATOM     15  C   UNL     1      -2.130 -11.271  13.532  0.00  0.00    +0.144 C 
BRANCH  15  17
ATOM      2  F   UNL     1      -5.174  -8.491   9.698  0.00  0.00    -0.205 F 
ATOM     17  C   UNL     1      -2.941 -10.530  12.510  0.00  0.00    -0.030 A 
ATOM     20  C   UNL     1      -2.332 -10.047  11.351  0.00  0.00    +0.008 A 
ATOM     21  C   UNL     1      -4.306 -10.323  12.717  0.00  0.00    +0.008 A 
ATOM     24  C   UNL     1      -3.085  -9.358  10.402  0.00  0.00    +0.038 A 
ATOM     25  C   UNL     1      -5.060  -9.634  11.767  0.00  0.00    +0.038 A 
ATOM     27  C   UNL     1      -4.449  -9.151  10.609  0.00  0.00    +0.123 A 
ENDBRANCH  15  17
ENDBRANCH   8  15
TORSDOF 4
ENDMDL
MODEL 9
REMARK VINA RESULT:      -6.4     26.795     28.725
REMARK  Name = 75536993
REMARK  4 active torsions:
REMARK  status: ('A' for Active; 'I' for Inactive)
REMARK    1  A    between atoms: S_1  and  N_7
REMARK    2  A    between atoms: S_1  and  C_16
REMARK    3  A    between atoms: N_8  and  C_15
REMARK    4  A    between atoms: C_15  and  C_17
REMARK                            x       y       z     vdW  Elec       q    Type
REMARK                         _______ _______ _______ _____ _____    ______ ____
ROOT
ATOM      3  O   UNL     1      -3.872 -14.147  13.799  0.00  0.00    -0.252 OA
ATOM      6  N   UNL     1      -4.292 -12.816  15.690  0.00  0.00    -0.278 N 
ATOM      7  N   UNL     1      -5.781 -11.406  17.589  0.00  0.00    -0.173 NA
ATOM      8  N   UNL     1      -2.646 -12.194  14.292  0.00  0.00    -0.279 N 
ATOM      9  C   UNL     1      -3.680 -11.671  16.336  0.00  0.00    +0.111 C 
ATOM     10  C   UNL     1      -4.748 -10.677  16.779  0.00  0.00    +0.133 C 
ATOM     11  C   UNL     1      -2.710 -11.135  15.284  0.00  0.00    +0.133 C 
ATOM     12  C   UNL     1      -5.387 -13.507  16.340  0.00  0.00    +0.127 C 
ATOM     13  C   UNL     1      -6.439 -12.501  16.800  0.00  0.00    +0.128 C 
ATOM     14  C   UNL     1      -3.632 -13.177  14.506  0.00  0.00    +0.305 C 
ENDROOT
BRANCH   7   1
ATOM      1  S   UNL     1      -6.851 -10.404  18.477  0.00  0.00    +0.061 S 
ATOM      4  O   UNL     1      -7.448  -9.439  17.579  0.00  0.00    -0.153 OA
ATOM      5  O   UNL     1      -6.194  -9.982  19.695  0.00  0.00    -0.153 OA
BRANCH   1  16
ATOM     16  C   UNL     1      -8.091 -11.583  18.908  0.00  0.00    +0.105 A 
ATOM     18  C   UNL     1      -7.800 -12.601  19.816  0.00  0.00    +0.028 A 
ATOM     19  C   UNL     1      -9.363 -11.497  18.340  0.00  0.00    +0.028 A 
ATOM     22  C   UNL     1      -8.780 -13.534  20.156  0.00  0.00    +0.002 A 
ATOM     23  C   UNL     1     -10.343 -12.429  18.681  0.00  0.00    +0.002 A 
ATOM     26  C   UNL     1     -10.052 -13.448  19.589  0.00  0.00    +0.000 A 
ENDBRANCH   1  16
ENDBRANCH   7   1
BRANCH   8  15
ATOM     15  C   UNL     1      -1.747 -12.130  13.161  0.00  0.00    +0.144 C 
BRANCH  15  17
ATOM      2  F   UNL     1      -3.681  -8.726   9.116  0.00  0.00    -0.205 F 
ATOM     17  C   UNL     1      -2.263 -11.222  12.083  0.00  0.00    -0.030 A 
ATOM     20  C   UNL     1      -1.615 -10.016  11.817  0.00  0.00    +0.008 A 
ATOM     21  C   UNL     1      -3.391 -11.584  11.345  0.00  0.00    +0.008 A 
ATOM     24  C   UNL     1      -2.093  -9.172  10.816  0.00  0.00    +0.038 A 
ATOM     25  C   UNL     1      -3.870 -10.740  10.343  0.00  0.00    +0.038 A 
ATOM     27  C   UNL     1      -3.221  -9.534  10.078  0.00  0.00    +0.123 A 
ENDBRANCH  15  17
ENDBRANCH   8  15
TORSDOF 4
ENDMDL
MODEL 10
REMARK VINA RESULT:      -6.3     27.173     29.561
REMARK  Name = 75536993
REMARK  4 active torsions:
REMARK  status: ('A' for Active; 'I' for Inactive)
REMARK    1  A    between atoms: S_1  and  N_7
REMARK    2  A    between atoms: S_1  and  C_16
REMARK    3  A    between atoms: N_8  and  C_15
REMARK    4  A    between atoms: C_15  and  C_17
REMARK                            x       y       z     vdW  Elec       q    Type
REMARK                         _______ _______ _______ _____ _____    ______ ____
ROOT
ATOM      3  O   UNL     1     -10.185 -11.760  16.524  0.00  0.00    -0.252 OA
ATOM      6  N   UNL     1      -8.088 -11.064  15.723  0.00  0.00    -0.278 N 
ATOM      7  N   UNL     1      -5.375 -11.235  15.070  0.00  0.00    -0.173 NA
ATOM      8  N   UNL     1      -9.239  -9.665  17.050  0.00  0.00    -0.279 N 
ATOM      9  C   UNL     1      -7.294  -9.851  15.746  0.00  0.00    +0.111 C 
ATOM     10  C   UNL     1      -5.833 -10.177  16.033  0.00  0.00    +0.133 C 
ATOM     11  C   UNL     1      -7.974  -8.992  16.811  0.00  0.00    +0.133 C 
ATOM     12  C   UNL     1      -7.654 -12.191  14.921  0.00  0.00    +0.127 C 
ATOM     13  C   UNL     1      -6.184 -12.494  15.199  0.00  0.00    +0.128 C 
ATOM     14  C   UNL     1      -9.286 -10.933  16.440  0.00  0.00    +0.305 C 
ENDROOT
BRANCH   7   1
ATOM      1  S   UNL     1      -3.678 -11.464  14.992  0.00  0.00    +0.061 S 
ATOM      4  O   UNL     1      -3.396 -12.883  14.943  0.00  0.00    -0.153 OA
ATOM      5  O   UNL     1      -3.045 -10.611  15.973  0.00  0.00    -0.153 OA
BRANCH   1  16
ATOM     16  C   UNL     1      -3.351 -10.791  13.393  0.00  0.00    +0.105 A 
ATOM     18  C   UNL     1      -4.408 -10.424  12.562  0.00  0.00    +0.028 A 
ATOM     19  C   UNL     1      -2.034 -10.627  12.962  0.00  0.00    +0.028 A 
ATOM     22  C   UNL     1      -4.149  -9.893  11.297  0.00  0.00    +0.002 A 
ATOM     23  C   UNL     1      -1.775 -10.095  11.699  0.00  0.00    +0.002 A 
ATOM     26  C   UNL     1      -2.833  -9.728  10.866  0.00  0.00    +0.000 A 
ENDBRANCH   1  16
ENDBRANCH   7   1
BRANCH   8  15
ATOM     15  C   UNL     1     -10.245  -9.112  17.931  0.00  0.00    +0.144 C 
BRANCH  15  17
ATOM      2  F   UNL     1     -14.026  -6.020  15.130  0.00  0.00    -0.205 F 
ATOM     17  C   UNL     1     -11.253  -8.288  17.184  0.00  0.00    -0.030 A 
ATOM     20  C   UNL     1     -10.926  -6.999  16.763  0.00  0.00    +0.008 A 
ATOM     21  C   UNL     1     -12.518  -8.810  16.910  0.00  0.00    +0.008 A 
ATOM     24  C   UNL     1     -11.861  -6.232  16.070  0.00  0.00    +0.038 A 
ATOM     25  C   UNL     1     -13.455  -8.043  16.217  0.00  0.00    +0.038 A 
ATOM     27  C   UNL     1     -13.127  -6.754  15.797  0.00  0.00    +0.123 A 
ENDBRANCH  15  17
ENDBRANCH   8  15
TORSDOF 4
ENDMDL
