MODEL 1
REMARK VINA RESULT:      -6.8      0.000      0.000
REMARK  Name = 75366957
REMARK  11 active torsions:
REMARK  status: ('A' for Active; 'I' for Inactive)
REMARK    1  A    between atoms: O_2  and  C_11
REMARK    2  A    between atoms: O_5  and  C_21
REMARK    3  A    between atoms: O_5  and  C_24
REMARK    4  A    between atoms: N_6  and  C_15
REMARK    5  A    between atoms: N_8  and  C_20
REMARK    6  A    between atoms: C_9  and  C_15
REMARK    7  A    between atoms: C_10  and  C_14
REMARK    8  A    between atoms: C_14  and  C_16
REMARK    9  A    between atoms: C_19  and  C_21
REMARK   10  A    between atoms: C_20  and  C_22
REMARK   11  A    between atoms: C_20  and  C_23
REMARK                            x       y       z     vdW  Elec       q    Type
REMARK                         _______ _______ _______ _____ _____    ______ ____
ROOT
ATOM      1  O   UNL     1      10.661   8.556  19.731  0.00  0.00    -0.369 OA
ATOM      9  C   UNL     1      10.863   8.532  21.150  0.00  0.00    +0.164 C 
ATOM     10  C   UNL     1      11.829   8.300  18.946  0.00  0.00    +0.125 C 
ATOM     11  C   UNL     1      11.484   7.204  21.603  0.00  0.00    +0.145 C 
ATOM     12  C   UNL     1      12.415   6.930  19.283  0.00  0.00    +0.034 C 
ATOM     13  C   UNL     1      12.709   6.823  20.776  0.00  0.00    +0.036 C 
ENDROOT
BRANCH  11   2
ATOM      2  O   UNL     1      10.514   6.165  21.449  0.00  0.00    -0.389 OA
ATOM     25  H   UNL     1      10.304   5.824  22.334  0.00  0.00    +0.210 HD
ENDBRANCH  11   2
BRANCH  10  14
ATOM     14  C   UNL     1      11.420   8.370  17.480  0.00  0.00    +0.090 C 
BRANCH  14  16
ATOM      3  O   UNL     1      13.300  10.091  14.932  0.00  0.00    -0.357 OA
ATOM      7  N   UNL     1      12.327   9.189  15.344  0.00  0.00    -0.083 NA
ATOM     16  C   UNL     1      12.358   9.233  16.679  0.00  0.00    +0.086 A 
ATOM     17  C   UNL     1      13.322  10.136  17.160  0.00  0.00    +0.073 A 
ATOM     19  C   UNL     1      13.885  10.648  16.022  0.00  0.00    +0.163 A 
BRANCH  19  21
ATOM     21  C   UNL     1      14.944  11.632  15.766  0.00  0.00    +0.236 C 
BRANCH  21   5
ATOM      5  O   UNL     1      16.005  11.035  15.016  0.00  0.00    -0.375 OA
ATOM     24  C   UNL     1      16.388  11.857  13.925  0.00  0.00    +0.194 C 
ENDBRANCH  21   5
ENDBRANCH  19  21
ENDBRANCH  14  16
ENDBRANCH  10  14
BRANCH   9  15
ATOM     15  C   UNL     1      11.658   9.751  21.614  0.00  0.00    +0.140 C 
BRANCH  15   6
ATOM      4  O   UNL     1      12.368  12.370  22.594  0.00  0.00    -0.253 OA
ATOM      6  N   UNL     1      10.839  10.632  22.389  0.00  0.00    -0.297 N 
ATOM      8  N   UNL     1      10.266  12.540  23.560  0.00  0.00    -0.297 N 
ATOM     18  C   UNL     1      11.258  11.894  22.828  0.00  0.00    +0.300 C 
ATOM     26  H   UNL     1       9.908  10.319  22.648  0.00  0.00    +0.150 HD
ATOM     27  H   UNL     1       9.356  12.095  23.638  0.00  0.00    +0.150 HD
BRANCH   8  20
ATOM     20  C   UNL     1      10.443  13.855  24.128  0.00  0.00    +0.068 C 
ATOM     22  C   UNL     1       9.343  14.796  23.653  0.00  0.00    +0.027 C 
ATOM     23  C   UNL     1      10.482  13.775  25.649  0.00  0.00    +0.027 C 
ENDBRANCH   8  20
ENDBRANCH  15   6
ENDBRANCH   9  15
TORSDOF 8
ENDMDL
MODEL 2
REMARK VINA RESULT:      -6.2      4.682      7.838
REMARK  Name = 75366957
REMARK  11 active torsions:
REMARK  status: ('A' for Active; 'I' for Inactive)
REMARK    1  A    between atoms: O_2  and  C_11
REMARK    2  A    between atoms: O_5  and  C_21
REMARK    3  A    between atoms: O_5  and  C_24
REMARK    4  A    between atoms: N_6  and  C_15
REMARK    5  A    between atoms: N_8  and  C_20
REMARK    6  A    between atoms: C_9  and  C_15
REMARK    7  A    between atoms: C_10  and  C_14
REMARK    8  A    between atoms: C_14  and  C_16
REMARK    9  A    between atoms: C_19  and  C_21
REMARK   10  A    between atoms: C_20  and  C_22
REMARK   11  A    between atoms: C_20  and  C_23
REMARK                            x       y       z     vdW  Elec       q    Type
REMARK                         _______ _______ _______ _____ _____    ______ ____
ROOT
ATOM      1  O   UNL     1      14.696   7.455  17.595  0.00  0.00    -0.369 OA
ATOM      9  C   UNL     1      13.693   8.408  17.218  0.00  0.00    +0.164 C 
ATOM     10  C   UNL     1      14.958   7.370  18.999  0.00  0.00    +0.125 C 
ATOM     11  C   UNL     1      12.372   8.148  17.955  0.00  0.00    +0.145 C 
ATOM     12  C   UNL     1      13.689   6.995  19.761  0.00  0.00    +0.034 C 
ATOM     13  C   UNL     1      12.567   7.985  19.460  0.00  0.00    +0.036 C 
ENDROOT
BRANCH  11   2
ATOM      2  O   UNL     1      11.797   6.937  17.457  0.00  0.00    -0.389 OA
ATOM     25  H   UNL     1      10.864   6.919  17.730  0.00  0.00    +0.210 HD
ENDBRANCH  11   2
BRANCH  10  14
ATOM     14  C   UNL     1      16.042   6.319  19.199  0.00  0.00    +0.090 C 
BRANCH  14  16
ATOM      3  O   UNL     1      18.091   8.060  21.598  0.00  0.00    -0.357 OA
ATOM      7  N   UNL     1      16.933   7.917  20.844  0.00  0.00    -0.083 NA
ATOM     16  C   UNL     1      17.114   6.795  20.141  0.00  0.00    +0.086 A 
ATOM     17  C   UNL     1      18.357   6.194  20.408  0.00  0.00    +0.073 A 
ATOM     19  C   UNL     1      18.931   7.029  21.330  0.00  0.00    +0.163 A 
BRANCH  19  21
ATOM     21  C   UNL     1      20.212   7.024  22.046  0.00  0.00    +0.236 C 
BRANCH  21   5
ATOM      5  O   UNL     1      20.076   6.353  23.302  0.00  0.00    -0.375 OA
ATOM     24  C   UNL     1      20.494   7.181  24.374  0.00  0.00    +0.194 C 
ENDBRANCH  21   5
ENDBRANCH  19  21
ENDBRANCH  14  16
ENDBRANCH  10  14
BRANCH   9  15
ATOM     15  C   UNL     1      14.200   9.838  17.390  0.00  0.00    +0.140 C 
BRANCH  15   6
ATOM      4  O   UNL     1      14.809  10.445  14.636  0.00  0.00    -0.253 OA
ATOM      6  N   UNL     1      13.495  10.739  16.530  0.00  0.00    -0.297 N 
ATOM      8  N   UNL     1      13.001  11.897  14.593  0.00  0.00    -0.297 N 
ATOM     18  C   UNL     1      13.855  10.980  15.199  0.00  0.00    +0.300 C 
ATOM     26  H   UNL     1      12.700  11.243  16.911  0.00  0.00    +0.150 HD
ATOM     27  H   UNL     1      12.197  12.229  15.119  0.00  0.00    +0.150 HD
BRANCH   8  20
ATOM     20  C   UNL     1      13.153  12.320  13.221  0.00  0.00    +0.068 C 
ATOM     22  C   UNL     1      11.798  12.377  12.525  0.00  0.00    +0.027 C 
ATOM     23  C   UNL     1      13.863  13.666  13.157  0.00  0.00    +0.027 C 
ENDBRANCH   8  20
ENDBRANCH  15   6
ENDBRANCH   9  15
TORSDOF 8
ENDMDL
MODEL 3
REMARK VINA RESULT:      -6.0     16.462     20.351
REMARK  Name = 75366957
REMARK  11 active torsions:
REMARK  status: ('A' for Active; 'I' for Inactive)
REMARK    1  A    between atoms: O_2  and  C_11
REMARK    2  A    between atoms: O_5  and  C_21
REMARK    3  A    between atoms: O_5  and  C_24
REMARK    4  A    between atoms: N_6  and  C_15
REMARK    5  A    between atoms: N_8  and  C_20
REMARK    6  A    between atoms: C_9  and  C_15
REMARK    7  A    between atoms: C_10  and  C_14
REMARK    8  A    between atoms: C_14  and  C_16
REMARK    9  A    between atoms: C_19  and  C_21
REMARK   10  A    between atoms: C_20  and  C_22
REMARK   11  A    between atoms: C_20  and  C_23
REMARK                            x       y       z     vdW  Elec       q    Type
REMARK                         _______ _______ _______ _____ _____    ______ ____
ROOT
ATOM      1  O   UNL     1      12.836   2.802   0.622  0.00  0.00    -0.369 OA
ATOM      9  C   UNL     1      13.190   3.623   1.743  0.00  0.00    +0.164 C 
ATOM     10  C   UNL     1      12.923   3.443  -0.654  0.00  0.00    +0.125 C 
ATOM     11  C   UNL     1      14.596   4.215   1.579  0.00  0.00    +0.145 C 
ATOM     12  C   UNL     1      14.342   3.946  -0.908  0.00  0.00    +0.034 C 
ATOM     13  C   UNL     1      14.795   4.873   0.216  0.00  0.00    +0.036 C 
ENDROOT
BRANCH  11   2
ATOM      2  O   UNL     1      15.556   3.163   1.699  0.00  0.00    -0.389 OA
ATOM     25  H   UNL     1      15.876   2.952   0.806  0.00  0.00    +0.210 HD
ENDBRANCH  11   2
BRANCH  10  14
ATOM     14  C   UNL     1      12.510   2.423  -1.707  0.00  0.00    +0.090 C 
BRANCH  14  16
ATOM      3  O   UNL     1       9.327   2.737  -3.369  0.00  0.00    -0.357 OA
ATOM      7  N   UNL     1      10.271   2.019  -2.645  0.00  0.00    -0.083 NA
ATOM     16  C   UNL     1      11.289   2.867  -2.466  0.00  0.00    +0.086 A 
ATOM     17  C   UNL     1      11.045   4.122  -3.051  0.00  0.00    +0.073 A 
ATOM     19  C   UNL     1       9.800   3.987  -3.605  0.00  0.00    +0.163 A 
BRANCH  19  21
ATOM     21  C   UNL     1       8.923   4.887  -4.364  0.00  0.00    +0.236 C 
BRANCH  21   5
ATOM      5  O   UNL     1       8.035   5.577  -3.480  0.00  0.00    -0.375 OA
ATOM     24  C   UNL     1       6.845   5.964  -4.147  0.00  0.00    +0.194 C 
ENDBRANCH  21   5
ENDBRANCH  19  21
ENDBRANCH  14  16
ENDBRANCH  10  14
BRANCH   9  15
ATOM     15  C   UNL     1      12.123   4.683   2.006  0.00  0.00    +0.140 C 
BRANCH  15   6
ATOM      4  O   UNL     1      11.277   6.607   3.983  0.00  0.00    -0.253 OA
ATOM      6  N   UNL     1      11.424   4.416   3.226  0.00  0.00    -0.297 N 
ATOM      8  N   UNL     1      10.380   4.873   5.236  0.00  0.00    -0.297 N 
ATOM     18  C   UNL     1      11.046   5.409   4.138  0.00  0.00    +0.300 C 
ATOM     26  H   UNL     1      11.204   3.450   3.450  0.00  0.00    +0.150 HD
ATOM     27  H   UNL     1      10.174   3.878   5.237  0.00  0.00    +0.150 HD
BRANCH   8  20
ATOM     20  C   UNL     1       9.885   5.684   6.323  0.00  0.00    +0.068 C 
ATOM     22  C   UNL     1       8.517   6.261   5.980  0.00  0.00    +0.027 C 
ATOM     23  C   UNL     1       9.834   4.871   7.610  0.00  0.00    +0.027 C 
ENDBRANCH   8  20
ENDBRANCH  15   6
ENDBRANCH   9  15
TORSDOF 8
ENDMDL
MODEL 4
REMARK VINA RESULT:      -5.9     16.692     20.550
REMARK  Name = 75366957
REMARK  11 active torsions:
REMARK  status: ('A' for Active; 'I' for Inactive)
REMARK    1  A    between atoms: O_2  and  C_11
REMARK    2  A    between atoms: O_5  and  C_21
REMARK    3  A    between atoms: O_5  and  C_24
REMARK    4  A    between atoms: N_6  and  C_15
REMARK    5  A    between atoms: N_8  and  C_20
REMARK    6  A    between atoms: C_9  and  C_15
REMARK    7  A    between atoms: C_10  and  C_14
REMARK    8  A    between atoms: C_14  and  C_16
REMARK    9  A    between atoms: C_19  and  C_21
REMARK   10  A    between atoms: C_20  and  C_22
REMARK   11  A    between atoms: C_20  and  C_23
REMARK                            x       y       z     vdW  Elec       q    Type
REMARK                         _______ _______ _______ _____ _____    ______ ____
ROOT
ATOM      1  O   UNL     1      12.927   2.941   0.702  0.00  0.00    -0.369 OA
ATOM      9  C   UNL     1      13.310   3.741   1.828  0.00  0.00    +0.164 C 
ATOM     10  C   UNL     1      13.073   3.575  -0.572  0.00  0.00    +0.125 C 
ATOM     11  C   UNL     1      14.752   4.248   1.689  0.00  0.00    +0.145 C 
ATOM     12  C   UNL     1      14.524   3.992  -0.803  0.00  0.00    +0.034 C 
ATOM     13  C   UNL     1      15.013   4.891   0.329  0.00  0.00    +0.036 C 
ENDROOT
BRANCH  11   2
ATOM      2  O   UNL     1      15.645   3.141   1.825  0.00  0.00    -0.389 OA
ATOM     25  H   UNL     1      16.548   3.471   1.682  0.00  0.00    +0.210 HD
ENDBRANCH  11   2
BRANCH  10  14
ATOM     14  C   UNL     1      12.619   2.581  -1.633  0.00  0.00    +0.090 C 
BRANCH  14  16
ATOM      3  O   UNL     1       9.489   3.954  -2.778  0.00  0.00    -0.357 OA
ATOM      7  N   UNL     1      10.367   3.563  -1.774  0.00  0.00    -0.083 NA
ATOM     16  C   UNL     1      11.443   3.099  -2.416  0.00  0.00    +0.086 A 
ATOM     17  C   UNL     1      11.302   3.171  -3.813  0.00  0.00    +0.073 A 
ATOM     19  C   UNL     1      10.057   3.716  -3.987  0.00  0.00    +0.163 A 
BRANCH  19  21
ATOM     21  C   UNL     1       9.260   4.073  -5.167  0.00  0.00    +0.236 C 
BRANCH  21   5
ATOM      5  O   UNL     1       9.311   3.023  -6.137  0.00  0.00    -0.375 OA
ATOM     24  C   UNL     1       9.683   3.520  -7.412  0.00  0.00    +0.194 C 
ENDBRANCH  21   5
ENDBRANCH  19  21
ENDBRANCH  14  16
ENDBRANCH  10  14
BRANCH   9  15
ATOM     15  C   UNL     1      12.304   4.864   2.074  0.00  0.00    +0.140 C 
BRANCH  15   6
ATOM      4  O   UNL     1      11.602   6.632   4.244  0.00  0.00    -0.253 OA
ATOM      6  N   UNL     1      11.464   4.564   3.192  0.00  0.00    -0.297 N 
ATOM      8  N   UNL     1      10.328   4.929   5.171  0.00  0.00    -0.297 N 
ATOM     18  C   UNL     1      11.169   5.480   4.209  0.00  0.00    +0.300 C 
ATOM     26  H   UNL     1      11.072   3.629   3.261  0.00  0.00    +0.150 HD
ATOM     27  H   UNL     1       9.966   3.992   5.017  0.00  0.00    +0.150 HD
BRANCH   8  20
ATOM     20  C   UNL     1       9.874   5.665   6.327  0.00  0.00    +0.068 C 
ATOM     22  C   UNL     1       8.511   6.293   6.059  0.00  0.00    +0.027 C 
ATOM     23  C   UNL     1       9.831   4.758   7.550  0.00  0.00    +0.027 C 
ENDBRANCH   8  20
ENDBRANCH  15   6
ENDBRANCH   9  15
TORSDOF 8
ENDMDL
MODEL 5
REMARK VINA RESULT:      -5.8     28.542     30.671
REMARK  Name = 75366957
REMARK  11 active torsions:
REMARK  status: ('A' for Active; 'I' for Inactive)
REMARK    1  A    between atoms: O_2  and  C_11
REMARK    2  A    between atoms: O_5  and  C_21
REMARK    3  A    between atoms: O_5  and  C_24
REMARK    4  A    between atoms: N_6  and  C_15
REMARK    5  A    between atoms: N_8  and  C_20
REMARK    6  A    between atoms: C_9  and  C_15
REMARK    7  A    between atoms: C_10  and  C_14
REMARK    8  A    between atoms: C_14  and  C_16
REMARK    9  A    between atoms: C_19  and  C_21
REMARK   10  A    between atoms: C_20  and  C_22
REMARK   11  A    between atoms: C_20  and  C_23
REMARK                            x       y       z     vdW  Elec       q    Type
REMARK                         _______ _______ _______ _____ _____    ______ ____
ROOT
ATOM      1  O   UNL     1     -14.126   2.464  31.184  0.00  0.00    -0.369 OA
ATOM      9  C   UNL     1     -14.320   2.025  29.832  0.00  0.00    +0.164 C 
ATOM     10  C   UNL     1     -15.034   1.909  32.140  0.00  0.00    +0.125 C 
ATOM     11  C   UNL     1     -14.276   0.495  29.730  0.00  0.00    +0.145 C 
ATOM     12  C   UNL     1     -14.936   0.385  32.154  0.00  0.00    +0.034 C 
ATOM     13  C   UNL     1     -15.176  -0.184  30.758  0.00  0.00    +0.036 C 
ENDROOT
BRANCH  11   2
ATOM      2  O   UNL     1     -12.936   0.056  29.968  0.00  0.00    -0.389 OA
ATOM     25  H   UNL     1     -12.674  -0.509  29.221  0.00  0.00    +0.210 HD
ENDBRANCH  11   2
BRANCH  10  14
ATOM     14  C   UNL     1     -14.675   2.489  33.502  0.00  0.00    +0.090 C 
BRANCH  14  16
ATOM      3  O   UNL     1     -15.889   5.879  33.366  0.00  0.00    -0.357 OA
ATOM      7  N   UNL     1     -16.055   4.507  33.225  0.00  0.00    -0.083 NA
ATOM     16  C   UNL     1     -14.869   3.981  33.542  0.00  0.00    +0.086 A 
ATOM     17  C   UNL     1     -13.925   4.964  33.888  0.00  0.00    +0.073 A 
ATOM     19  C   UNL     1     -14.617   6.139  33.760  0.00  0.00    +0.163 A 
BRANCH  19  21
ATOM     21  C   UNL     1     -14.267   7.550  33.958  0.00  0.00    +0.236 C 
BRANCH  21   5
ATOM      5  O   UNL     1     -12.858   7.739  33.800  0.00  0.00    -0.375 OA
ATOM     24  C   UNL     1     -12.537   8.116  32.471  0.00  0.00    +0.194 C 
ENDBRANCH  21   5
ENDBRANCH  19  21
ENDBRANCH  14  16
ENDBRANCH  10  14
BRANCH   9  15
ATOM     15  C   UNL     1     -15.592   2.626  29.237  0.00  0.00    +0.140 C 
BRANCH  15   6
ATOM      4  O   UNL     1     -17.431   2.937  27.035  0.00  0.00    -0.253 OA
ATOM      6  N   UNL     1     -15.326   3.239  27.971  0.00  0.00    -0.297 N 
ATOM      8  N   UNL     1     -15.753   3.990  25.828  0.00  0.00    -0.297 N 
ATOM     18  C   UNL     1     -16.276   3.352  26.949  0.00  0.00    +0.300 C 
ATOM     26  H   UNL     1     -14.391   3.597  27.799  0.00  0.00    +0.150 HD
ATOM     27  H   UNL     1     -14.809   4.361  25.880  0.00  0.00    +0.150 HD
BRANCH   8  20
ATOM     20  C   UNL     1     -16.527   4.231  24.633  0.00  0.00    +0.068 C 
ATOM     22  C   UNL     1     -16.062   5.509  23.944  0.00  0.00    +0.027 C 
ATOM     23  C   UNL     1     -16.439   3.035  23.694  0.00  0.00    +0.027 C 
ENDBRANCH   8  20
ENDBRANCH  15   6
ENDBRANCH   9  15
TORSDOF 8
ENDMDL
MODEL 6
REMARK VINA RESULT:      -5.7     26.323     29.093
REMARK  Name = 75366957
REMARK  11 active torsions:
REMARK  status: ('A' for Active; 'I' for Inactive)
REMARK    1  A    between atoms: O_2  and  C_11
REMARK    2  A    between atoms: O_5  and  C_21
REMARK    3  A    between atoms: O_5  and  C_24
REMARK    4  A    between atoms: N_6  and  C_15
REMARK    5  A    between atoms: N_8  and  C_20
REMARK    6  A    between atoms: C_9  and  C_15
REMARK    7  A    between atoms: C_10  and  C_14
REMARK    8  A    between atoms: C_14  and  C_16
REMARK    9  A    between atoms: C_19  and  C_21
REMARK   10  A    between atoms: C_20  and  C_22
REMARK   11  A    between atoms: C_20  and  C_23
REMARK                            x       y       z     vdW  Elec       q    Type
REMARK                         _______ _______ _______ _____ _____    ______ ____
ROOT
ATOM      1  O   UNL     1      -7.963 -11.450  19.422  0.00  0.00    -0.369 OA
ATOM      9  C   UNL     1      -6.683 -12.040  19.158  0.00  0.00    +0.164 C 
ATOM     10  C   UNL     1      -8.534 -10.723  18.330  0.00  0.00    +0.125 C 
ATOM     11  C   UNL     1      -6.732 -12.952  17.926  0.00  0.00    +0.145 C 
ATOM     12  C   UNL     1      -8.710 -11.629  17.114  0.00  0.00    +0.034 C 
ATOM     13  C   UNL     1      -7.383 -12.272  16.724  0.00  0.00    +0.036 C 
ENDROOT
BRANCH  11   2
ATOM      2  O   UNL     1      -7.506 -14.112  18.241  0.00  0.00    -0.389 OA
ATOM     25  H   UNL     1      -7.409 -14.281  19.193  0.00  0.00    +0.210 HD
ENDBRANCH  11   2
BRANCH  10  14
ATOM     14  C   UNL     1      -9.876 -10.175  18.798  0.00  0.00    +0.090 C 
BRANCH  14  16
ATOM      3  O   UNL     1     -11.842  -8.124  16.581  0.00  0.00    -0.357 OA
ATOM      7  N   UNL     1     -11.676  -9.221  17.418  0.00  0.00    -0.083 NA
ATOM     16  C   UNL     1     -10.415  -9.136  17.853  0.00  0.00    +0.086 A 
ATOM     17  C   UNL     1      -9.745  -8.017  17.328  0.00  0.00    +0.073 A 
ATOM     19  C   UNL     1     -10.686  -7.415  16.535  0.00  0.00    +0.163 A 
BRANCH  19  21
ATOM     21  C   UNL     1     -10.686  -6.215  15.690  0.00  0.00    +0.236 C 
BRANCH  21   5
ATOM      5  O   UNL     1     -12.023  -5.750  15.488  0.00  0.00    -0.375 OA
ATOM     24  C   UNL     1     -12.249  -5.411  14.130  0.00  0.00    +0.194 C 
ENDBRANCH  21   5
ENDBRANCH  19  21
ENDBRANCH  14  16
ENDBRANCH  10  14
BRANCH   9  15
ATOM     15  C   UNL     1      -5.593 -10.973  19.068  0.00  0.00    +0.140 C 
BRANCH  15   6
ATOM      4  O   UNL     1      -4.549  -9.814  16.640  0.00  0.00    -0.253 OA
ATOM      6  N   UNL     1      -4.481 -11.440  18.299  0.00  0.00    -0.297 N 
ATOM      8  N   UNL     1      -2.935 -11.479  16.582  0.00  0.00    -0.297 N 
ATOM     18  C   UNL     1      -4.033 -10.820  17.126  0.00  0.00    +0.300 C 
ATOM     26  H   UNL     1      -3.999 -12.278  18.612  0.00  0.00    +0.150 HD
ATOM     27  H   UNL     1      -2.536 -12.259  17.096  0.00  0.00    +0.150 HD
BRANCH   8  20
ATOM     20  C   UNL     1      -2.282 -11.043  15.370  0.00  0.00    +0.068 C 
ATOM     22  C   UNL     1      -1.020 -10.254  15.698  0.00  0.00    +0.027 C 
ATOM     23  C   UNL     1      -1.970 -12.236  14.477  0.00  0.00    +0.027 C 
ENDBRANCH   8  20
ENDBRANCH  15   6
ENDBRANCH   9  15
TORSDOF 8
ENDMDL
MODEL 7
REMARK VINA RESULT:      -5.7     27.854     29.380
REMARK  Name = 75366957
REMARK  11 active torsions:
REMARK  status: ('A' for Active; 'I' for Inactive)
REMARK    1  A    between atoms: O_2  and  C_11
REMARK    2  A    between atoms: O_5  and  C_21
REMARK    3  A    between atoms: O_5  and  C_24
REMARK    4  A    between atoms: N_6  and  C_15
REMARK    5  A    between atoms: N_8  and  C_20
REMARK    6  A    between atoms: C_9  and  C_15
REMARK    7  A    between atoms: C_10  and  C_14
REMARK    8  A    between atoms: C_14  and  C_16
REMARK    9  A    between atoms: C_19  and  C_21
REMARK   10  A    between atoms: C_20  and  C_22
REMARK   11  A    between atoms: C_20  and  C_23
REMARK                            x       y       z     vdW  Elec       q    Type
REMARK                         _______ _______ _______ _____ _____    ______ ____
ROOT
ATOM      1  O   UNL     1      -6.785 -11.775  17.403  0.00  0.00    -0.369 OA
ATOM      9  C   UNL     1      -6.389 -12.267  18.690  0.00  0.00    +0.164 C 
ATOM     10  C   UNL     1      -6.038 -10.653  16.924  0.00  0.00    +0.125 C 
ATOM     11  C   UNL     1      -4.895 -12.615  18.720  0.00  0.00    +0.145 C 
ATOM     12  C   UNL     1      -4.553 -10.996  16.826  0.00  0.00    +0.034 C 
ATOM     13  C   UNL     1      -4.024 -11.489  18.169  0.00  0.00    +0.036 C 
ENDROOT
BRANCH  11   2
ATOM      2  O   UNL     1      -4.676 -13.772  17.908  0.00  0.00    -0.389 OA
ATOM     25  H   UNL     1      -4.522 -13.468  16.998  0.00  0.00    +0.210 HD
ENDBRANCH  11   2
BRANCH  10  14
ATOM     14  C   UNL     1      -6.600 -10.278  15.559  0.00  0.00    +0.090 C 
BRANCH  14  16
ATOM      3  O   UNL     1      -9.477  -8.360  16.579  0.00  0.00    -0.357 OA
ATOM      7  N   UNL     1      -8.222  -8.911  16.807  0.00  0.00    -0.083 NA
ATOM     16  C   UNL     1      -7.914  -9.552  15.676  0.00  0.00    +0.086 A 
ATOM     17  C   UNL     1      -8.928  -9.442  14.709  0.00  0.00    +0.073 A 
ATOM     19  C   UNL     1      -9.887  -8.684  15.326  0.00  0.00    +0.163 A 
BRANCH  19  21
ATOM     21  C   UNL     1     -11.203  -8.180  14.917  0.00  0.00    +0.236 C 
BRANCH  21   5
ATOM      5  O   UNL     1     -11.590  -7.076  15.740  0.00  0.00    -0.375 OA
ATOM     24  C   UNL     1     -11.603  -5.865  15.003  0.00  0.00    +0.194 C 
ENDBRANCH  21   5
ENDBRANCH  19  21
ENDBRANCH  14  16
ENDBRANCH  10  14
BRANCH   9  15
ATOM     15  C   UNL     1      -6.798 -11.298  19.798  0.00  0.00    +0.140 C 
BRANCH  15   6
ATOM      4  O   UNL     1      -9.556 -12.076  20.136  0.00  0.00    -0.253 OA
ATOM      6  N   UNL     1      -7.957 -10.548  19.422  0.00  0.00    -0.297 N 
ATOM      8  N   UNL     1     -10.203 -10.071  19.164  0.00  0.00    -0.297 N 
ATOM     18  C   UNL     1      -9.268 -10.996  19.620  0.00  0.00    +0.300 C 
ATOM     26  H   UNL     1      -7.820  -9.648  18.972  0.00  0.00    +0.150 HD
ATOM     27  H   UNL     1      -9.868  -9.176  18.820  0.00  0.00    +0.150 HD
BRANCH   8  20
ATOM     20  C   UNL     1     -11.627 -10.291  19.251  0.00  0.00    +0.068 C 
ATOM     22  C   UNL     1     -12.163  -9.804  20.592  0.00  0.00    +0.027 C 
ATOM     23  C   UNL     1     -12.340  -9.606  18.091  0.00  0.00    +0.027 C 
ENDBRANCH   8  20
ENDBRANCH  15   6
ENDBRANCH   9  15
TORSDOF 8
ENDMDL
MODEL 8
REMARK VINA RESULT:      -5.7      8.221     11.002
REMARK  Name = 75366957
REMARK  11 active torsions:
REMARK  status: ('A' for Active; 'I' for Inactive)
REMARK    1  A    between atoms: O_2  and  C_11
REMARK    2  A    between atoms: O_5  and  C_21
REMARK    3  A    between atoms: O_5  and  C_24
REMARK    4  A    between atoms: N_6  and  C_15
REMARK    5  A    between atoms: N_8  and  C_20
REMARK    6  A    between atoms: C_9  and  C_15
REMARK    7  A    between atoms: C_10  and  C_14
REMARK    8  A    between atoms: C_14  and  C_16
REMARK    9  A    between atoms: C_19  and  C_21
REMARK   10  A    between atoms: C_20  and  C_22
REMARK   11  A    between atoms: C_20  and  C_23
REMARK                            x       y       z     vdW  Elec       q    Type
REMARK                         _______ _______ _______ _____ _____    ______ ____
ROOT
ATOM      1  O   UNL     1      19.851   6.550  20.289  0.00  0.00    -0.369 OA
ATOM      9  C   UNL     1      20.801   6.922  21.297  0.00  0.00    +0.164 C 
ATOM     10  C   UNL     1      18.479   6.646  20.681  0.00  0.00    +0.125 C 
ATOM     11  C   UNL     1      20.531   8.338  21.824  0.00  0.00    +0.145 C 
ATOM     12  C   UNL     1      18.137   8.073  21.102  0.00  0.00    +0.034 C 
ATOM     13  C   UNL     1      19.070   8.545  22.213  0.00  0.00    +0.036 C 
ENDROOT
BRANCH  11   2
ATOM      2  O   UNL     1      20.846   9.279  20.795  0.00  0.00    -0.389 OA
ATOM     25  H   UNL     1      21.382   8.819  20.128  0.00  0.00    +0.210 HD
ENDBRANCH  11   2
BRANCH  10  14
ATOM     14  C   UNL     1      17.632   6.213  19.491  0.00  0.00    +0.090 C 
BRANCH  14  16
ATOM      3  O   UNL     1      14.271   6.583  20.737  0.00  0.00    -0.357 OA
ATOM      7  N   UNL     1      15.595   6.182  20.871  0.00  0.00    -0.083 NA
ATOM     16  C   UNL     1      16.172   6.504  19.709  0.00  0.00    +0.086 A 
ATOM     17  C   UNL     1      15.269   7.104  18.814  0.00  0.00    +0.073 A 
ATOM     19  C   UNL     1      14.089   7.130  19.509  0.00  0.00    +0.163 A 
BRANCH  19  21
ATOM     21  C   UNL     1      12.738   7.610  19.199  0.00  0.00    +0.236 C 
BRANCH  21   5
ATOM      5  O   UNL     1      11.780   6.990  20.062  0.00  0.00    -0.375 OA
ATOM     24  C   UNL     1      10.979   7.959  20.719  0.00  0.00    +0.194 C 
ENDBRANCH  21   5
ENDBRANCH  19  21
ENDBRANCH  14  16
ENDBRANCH  10  14
BRANCH   9  15
ATOM     15  C   UNL     1      20.862   5.874  22.408  0.00  0.00    +0.140 C 
BRANCH  15   6
ATOM      4  O   UNL     1      23.646   5.140  22.216  0.00  0.00    -0.253 OA
ATOM      6  N   UNL     1      21.396   4.640  21.919  0.00  0.00    -0.297 N 
ATOM      8  N   UNL     1      23.007   3.087  21.344  0.00  0.00    -0.297 N 
ATOM     18  C   UNL     1      22.766   4.358  21.858  0.00  0.00    +0.300 C 
ATOM     26  H   UNL     1      20.745   3.936  21.583  0.00  0.00    +0.150 HD
ATOM     27  H   UNL     1      22.212   2.488  21.144  0.00  0.00    +0.150 HD
BRANCH   8  20
ATOM     20  C   UNL     1      24.337   2.552  21.175  0.00  0.00    +0.068 C 
ATOM     22  C   UNL     1      24.341   1.046  21.411  0.00  0.00    +0.027 C 
ATOM     23  C   UNL     1      24.875   2.894  19.792  0.00  0.00    +0.027 C 
ENDBRANCH   8  20
ENDBRANCH  15   6
ENDBRANCH   9  15
TORSDOF 8
ENDMDL
MODEL 9
REMARK VINA RESULT:      -5.6     13.289     16.573
REMARK  Name = 75366957
REMARK  11 active torsions:
REMARK  status: ('A' for Active; 'I' for Inactive)
REMARK    1  A    between atoms: O_2  and  C_11
REMARK    2  A    between atoms: O_5  and  C_21
REMARK    3  A    between atoms: O_5  and  C_24
REMARK    4  A    between atoms: N_6  and  C_15
REMARK    5  A    between atoms: N_8  and  C_20
REMARK    6  A    between atoms: C_9  and  C_15
REMARK    7  A    between atoms: C_10  and  C_14
REMARK    8  A    between atoms: C_14  and  C_16
REMARK    9  A    between atoms: C_19  and  C_21
REMARK   10  A    between atoms: C_20  and  C_22
REMARK   11  A    between atoms: C_20  and  C_23
REMARK                            x       y       z     vdW  Elec       q    Type
REMARK                         _______ _______ _______ _____ _____    ______ ____
ROOT
ATOM      1  O   UNL     1      10.730   6.823   5.739  0.00  0.00    -0.369 OA
ATOM      9  C   UNL     1      11.124   7.110   7.087  0.00  0.00    +0.164 C 
ATOM     10  C   UNL     1      10.513   5.439   5.450  0.00  0.00    +0.125 C 
ATOM     11  C   UNL     1      10.116   6.544   8.096  0.00  0.00    +0.145 C 
ATOM     12  C   UNL     1       9.428   4.863   6.357  0.00  0.00    +0.034 C 
ATOM     13  C   UNL     1       9.782   5.080   7.826  0.00  0.00    +0.036 C 
ENDROOT
BRANCH  11   2
ATOM      2  O   UNL     1       8.901   7.292   8.003  0.00  0.00    -0.389 OA
ATOM     25  H   UNL     1       8.166   6.657   7.978  0.00  0.00    +0.210 HD
ENDBRANCH  11   2
BRANCH  10  14
ATOM     14  C   UNL     1      10.109   5.334   3.985  0.00  0.00    +0.090 C 
BRANCH  14  16
ATOM      3  O   UNL     1      13.168   5.332   2.081  0.00  0.00    -0.357 OA
ATOM      7  N   UNL     1      12.254   5.931   2.939  0.00  0.00    -0.083 NA
ATOM     16  C   UNL     1      11.286   5.024   3.101  0.00  0.00    +0.086 A 
ATOM     17  C   UNL     1      11.534   3.846   2.376  0.00  0.00    +0.073 A 
ATOM     19  C   UNL     1      12.728   4.091   1.752  0.00  0.00    +0.163 A 
BRANCH  19  21
ATOM     21  C   UNL     1      13.580   3.312   0.846  0.00  0.00    +0.236 C 
BRANCH  21   5
ATOM      5  O   UNL     1      13.470   3.812  -0.490  0.00  0.00    -0.375 OA
ATOM     24  C   UNL     1      12.548   3.048  -1.250  0.00  0.00    +0.194 C 
ENDBRANCH  21   5
ENDBRANCH  19  21
ENDBRANCH  14  16
ENDBRANCH  10  14
BRANCH   9  15
ATOM     15  C   UNL     1      12.556   6.649   7.352  0.00  0.00    +0.140 C 
BRANCH  15   6
ATOM      4  O   UNL     1      14.314   8.615   6.181  0.00  0.00    -0.253 OA
ATOM      6  N   UNL     1      13.290   6.530   6.130  0.00  0.00    -0.297 N 
ATOM      8  N   UNL     1      14.719   7.156   4.424  0.00  0.00    -0.297 N 
ATOM     18  C   UNL     1      14.127   7.533   5.626  0.00  0.00    +0.300 C 
ATOM     26  H   UNL     1      13.187   5.676   5.589  0.00  0.00    +0.150 HD
ATOM     27  H   UNL     1      14.558   6.213   4.082  0.00  0.00    +0.150 HD
BRANCH   8  20
ATOM     20  C   UNL     1      15.626   8.011   3.696  0.00  0.00    +0.068 C 
ATOM     22  C   UNL     1      17.023   7.945   4.299  0.00  0.00    +0.027 C 
ATOM     23  C   UNL     1      15.643   7.631   2.221  0.00  0.00    +0.027 C 
ENDBRANCH   8  20
ENDBRANCH  15   6
ENDBRANCH   9  15
TORSDOF 8
ENDMDL
MODEL 10
REMARK VINA RESULT:      -5.6     26.080     27.394
REMARK  Name = 75366957
REMARK  11 active torsions:
REMARK  status: ('A' for Active; 'I' for Inactive)
REMARK    1  A    between atoms: O_2  and  C_11
REMARK    2  A    between atoms: O_5  and  C_21
REMARK    3  A    between atoms: O_5  and  C_24
REMARK    4  A    between atoms: N_6  and  C_15
REMARK    5  A    between atoms: N_8  and  C_20
REMARK    6  A    between atoms: C_9  and  C_15
REMARK    7  A    between atoms: C_10  and  C_14
REMARK    8  A    between atoms: C_14  and  C_16
REMARK    9  A    between atoms: C_19  and  C_21
REMARK   10  A    between atoms: C_20  and  C_22
REMARK   11  A    between atoms: C_20  and  C_23
REMARK                            x       y       z     vdW  Elec       q    Type
REMARK                         _______ _______ _______ _____ _____    ______ ____
ROOT
ATOM      1  O   UNL     1      -4.147 -11.540  14.345  0.00  0.00    -0.369 OA
ATOM      9  C   UNL     1      -5.066 -11.243  15.405  0.00  0.00    +0.164 C 
ATOM     10  C   UNL     1      -2.913 -10.818  14.388  0.00  0.00    +0.125 C 
ATOM     11  C   UNL     1      -4.417 -11.450  16.780  0.00  0.00    +0.145 C 
ATOM     12  C   UNL     1      -2.176 -11.090  15.698  0.00  0.00    +0.034 C 
ATOM     13  C   UNL     1      -3.062 -10.757  16.895  0.00  0.00    +0.036 C 
ENDROOT
BRANCH  11   2
ATOM      2  O   UNL     1      -4.209 -12.849  16.985  0.00  0.00    -0.389 OA
ATOM     25  H   UNL     1      -3.910 -13.229  16.142  0.00  0.00    +0.210 HD
ENDBRANCH  11   2
BRANCH  10  14
ATOM     14  C   UNL     1      -2.080 -11.262  13.193  0.00  0.00    +0.090 C 
BRANCH  14  16
ATOM      3  O   UNL     1      -1.987  -9.012  10.380  0.00  0.00    -0.357 OA
ATOM      7  N   UNL     1      -1.407  -9.626  11.483  0.00  0.00    -0.083 NA
ATOM     16  C   UNL     1      -2.359 -10.424  11.975  0.00  0.00    +0.086 A 
ATOM     17  C   UNL     1      -3.550 -10.354  11.231  0.00  0.00    +0.073 A 
ATOM     19  C   UNL     1      -3.263  -9.452  10.241  0.00  0.00    +0.163 A 
BRANCH  19  21
ATOM     21  C   UNL     1      -4.028  -8.900   9.117  0.00  0.00    +0.236 C 
BRANCH  21   5
ATOM      5  O   UNL     1      -5.328  -9.494   9.062  0.00  0.00    -0.375 OA
ATOM     24  C   UNL     1      -6.346  -8.515   9.195  0.00  0.00    +0.194 C 
ENDBRANCH  21   5
ENDBRANCH  19  21
ENDBRANCH  14  16
ENDBRANCH  10  14
BRANCH   9  15
ATOM     15  C   UNL     1      -5.671  -9.850  15.234  0.00  0.00    +0.140 C 
BRANCH  15   6
ATOM      4  O   UNL     1      -8.532  -9.603  14.957  0.00  0.00    -0.253 OA
ATOM      6  N   UNL     1      -6.616  -9.572  16.272  0.00  0.00    -0.297 N 
ATOM      8  N   UNL     1      -8.682  -9.191  17.236  0.00  0.00    -0.297 N 
ATOM     18  C   UNL     1      -7.995  -9.467  16.056  0.00  0.00    +0.300 C 
ATOM     26  H   UNL     1      -6.265  -9.426  17.214  0.00  0.00    +0.150 HD
ATOM     27  H   UNL     1      -8.157  -9.169  18.105  0.00  0.00    +0.150 HD
BRANCH   8  20
ATOM     20  C   UNL     1     -10.116  -9.034  17.288  0.00  0.00    +0.068 C 
ATOM     22  C   UNL     1     -10.670  -9.610  18.585  0.00  0.00    +0.027 C 
ATOM     23  C   UNL     1     -10.493  -7.566  17.131  0.00  0.00    +0.027 C 
ENDBRANCH   8  20
ENDBRANCH  15   6
ENDBRANCH   9  15
TORSDOF 8
ENDMDL
