MODEL 1
REMARK VINA RESULT:      -7.6      0.000      0.000
REMARK  Name = 51137246
REMARK  4 active torsions:
REMARK  status: ('A' for Active; 'I' for Inactive)
REMARK    1  A    between atoms: N_3  and  C_11
REMARK    2  A    between atoms: C_7  and  C_12
REMARK    3  A    between atoms: C_11  and  C_13
REMARK    4  A    between atoms: C_14  and  C_16
REMARK                            x       y       z     vdW  Elec       q    Type
REMARK                         _______ _______ _______ _____ _____    ______ ____
ROOT
ATOM      3  N   UNL     1      10.941  10.006  22.285  0.00  0.00    -0.296 NA
ATOM      7  C   UNL     1      11.321   8.711  20.368  0.00  0.00    +0.092 C 
ATOM      8  C   UNL     1      10.575   7.869  21.419  0.00  0.00    +0.029 C 
ATOM      9  C   UNL     1      11.859   9.918  21.148  0.00  0.00    +0.097 C 
ATOM     10  C   UNL     1      10.756   8.625  22.729  0.00  0.00    +0.085 C 
ENDROOT
BRANCH   7  12
ATOM      2  O   UNL     1      13.602   7.831  20.230  0.00  0.00    -0.420 OA
ATOM      4  N   UNL     1      12.356   7.427  18.416  0.00  0.00    -0.112 NA
ATOM      5  N   UNL     1      13.609   6.881  18.204  0.00  0.00    -0.107 NA
ATOM     12  C   UNL     1      12.398   7.971  19.609  0.00  0.00    +0.222 A 
ATOM     14  C   UNL     1      14.301   7.141  19.289  0.00  0.00    +0.248 A 
BRANCH  14  16
ATOM      1 CL   UNL     1      19.916   5.787  20.695  0.00  0.00    -0.084 Cl
ATOM     16  C   UNL     1      15.656   6.815  19.628  0.00  0.00    +0.039 A 
ATOM     20  C   UNL     1      16.191   7.234  20.847  0.00  0.00    +0.014 A 
ATOM     21  C   UNL     1      16.439   6.077  18.740  0.00  0.00    +0.014 A 
ATOM     22  C   UNL     1      17.508   6.916  21.177  0.00  0.00    +0.021 A 
ATOM     23  C   UNL     1      17.756   5.759  19.070  0.00  0.00    +0.021 A 
ATOM     24  C   UNL     1      18.291   6.179  20.289  0.00  0.00    +0.041 A 
ENDBRANCH  14  16
ENDBRANCH   7  12
BRANCH   3  11
ATOM     11  C   UNL     1      11.452  10.864  23.345  0.00  0.00    +0.139 C 
BRANCH  11  13
ATOM      6  N   UNL     1      10.331  12.724  24.440  0.00  0.00    -0.259 NA
ATOM     13  C   UNL     1      10.848  12.242  23.289  0.00  0.00    +0.055 A 
ATOM     15  C   UNL     1      10.851  12.936  22.089  0.00  0.00    +0.024 A 
ATOM     17  C   UNL     1      10.288  14.208  22.072  0.00  0.00    +0.003 A 
ATOM     18  C   UNL     1       9.791  13.963  24.384  0.00  0.00    +0.111 A 
ATOM     19  C   UNL     1       9.745  14.738  23.237  0.00  0.00    +0.020 A 
ENDBRANCH  11  13
ENDBRANCH   3  11
TORSDOF 4
ENDMDL
MODEL 2
REMARK VINA RESULT:      -7.0      5.000     10.691
REMARK  Name = 51137246
REMARK  4 active torsions:
REMARK  status: ('A' for Active; 'I' for Inactive)
REMARK    1  A    between atoms: N_3  and  C_11
REMARK    2  A    between atoms: C_7  and  C_12
REMARK    3  A    between atoms: C_11  and  C_13
REMARK    4  A    between atoms: C_14  and  C_16
REMARK                            x       y       z     vdW  Elec       q    Type
REMARK                         _______ _______ _______ _____ _____    ______ ____
ROOT
ATOM      3  N   UNL     1      21.267   5.604  21.694  0.00  0.00    -0.296 NA
ATOM      7  C   UNL     1      19.538   6.645  20.501  0.00  0.00    +0.092 C 
ATOM      8  C   UNL     1      19.733   7.357  21.852  0.00  0.00    +0.029 C 
ATOM      9  C   UNL     1      20.279   5.310  20.655  0.00  0.00    +0.097 C 
ATOM     10  C   UNL     1      20.541   6.381  22.697  0.00  0.00    +0.085 C 
ENDROOT
BRANCH   7  12
ATOM      2  O   UNL     1      17.157   7.122  20.815  0.00  0.00    -0.420 OA
ATOM      4  N   UNL     1      17.598   5.786  19.075  0.00  0.00    -0.112 NA
ATOM      5  N   UNL     1      16.229   5.971  19.136  0.00  0.00    -0.107 NA
ATOM     12  C   UNL     1      18.099   6.475  20.074  0.00  0.00    +0.222 A 
ATOM     14  C   UNL     1      16.019   6.757  20.166  0.00  0.00    +0.248 A 
BRANCH  14  16
ATOM      1 CL   UNL     1      10.950   8.927  22.389  0.00  0.00    -0.084 Cl
ATOM     16  C   UNL     1      14.795   7.281  20.702  0.00  0.00    +0.039 A 
ATOM     20  C   UNL     1      13.575   6.703  20.350  0.00  0.00    +0.014 A 
ATOM     21  C   UNL     1      14.826   8.367  21.576  0.00  0.00    +0.014 A 
ATOM     22  C   UNL     1      12.386   7.211  20.872  0.00  0.00    +0.021 A 
ATOM     23  C   UNL     1      13.637   8.876  22.098  0.00  0.00    +0.021 A 
ATOM     24  C   UNL     1      12.417   8.298  21.746  0.00  0.00    +0.041 A 
ENDBRANCH  14  16
ENDBRANCH   7  12
BRANCH   3  11
ATOM     11  C   UNL     1      21.862   4.397  22.251  0.00  0.00    +0.139 C 
BRANCH  11  13
ATOM      6  N   UNL     1      23.684   4.795  20.690  0.00  0.00    -0.259 NA
ATOM     13  C   UNL     1      22.984   3.878  21.392  0.00  0.00    +0.055 A 
ATOM     15  C   UNL     1      23.241   2.516  21.364  0.00  0.00    +0.024 A 
ATOM     17  C   UNL     1      24.286   2.069  20.562  0.00  0.00    +0.003 A 
ATOM     18  C   UNL     1      24.691   4.322  19.921  0.00  0.00    +0.111 A 
ATOM     19  C   UNL     1      25.029   2.982  19.823  0.00  0.00    +0.020 A 
ENDBRANCH  11  13
ENDBRANCH   3  11
TORSDOF 4
ENDMDL
MODEL 3
REMARK VINA RESULT:      -7.0      1.552      2.207
REMARK  Name = 51137246
REMARK  4 active torsions:
REMARK  status: ('A' for Active; 'I' for Inactive)
REMARK    1  A    between atoms: N_3  and  C_11
REMARK    2  A    between atoms: C_7  and  C_12
REMARK    3  A    between atoms: C_11  and  C_13
REMARK    4  A    between atoms: C_14  and  C_16
REMARK                            x       y       z     vdW  Elec       q    Type
REMARK                         _______ _______ _______ _____ _____    ______ ____
ROOT
ATOM      3  N   UNL     1      11.571   9.667  20.910  0.00  0.00    -0.296 NA
ATOM      7  C   UNL     1      13.409   9.022  19.603  0.00  0.00    +0.092 C 
ATOM      8  C   UNL     1      12.104   8.618  18.893  0.00  0.00    +0.029 C 
ATOM      9  C   UNL     1      12.987   9.321  21.049  0.00  0.00    +0.097 C 
ATOM     10  C   UNL     1      11.032   8.682  19.974  0.00  0.00    +0.085 C 
ENDROOT
BRANCH   7  12
ATOM      2  O   UNL     1      15.653   8.266  20.226  0.00  0.00    -0.420 OA
ATOM      4  N   UNL     1      14.576   6.881  18.837  0.00  0.00    -0.112 NA
ATOM      5  N   UNL     1      15.820   6.338  19.103  0.00  0.00    -0.107 NA
ATOM     12  C   UNL     1      14.523   8.005  19.512  0.00  0.00    +0.222 A 
ATOM     14  C   UNL     1      16.412   7.180  19.918  0.00  0.00    +0.248 A 
BRANCH  14  16
ATOM      1 CL   UNL     1      21.799   6.977  22.422  0.00  0.00    -0.084 Cl
ATOM     16  C   UNL     1      17.712   7.132  20.522  0.00  0.00    +0.039 A 
ATOM     20  C   UNL     1      18.107   8.132  21.410  0.00  0.00    +0.014 A 
ATOM     21  C   UNL     1      18.582   6.083  20.222  0.00  0.00    +0.014 A 
ATOM     22  C   UNL     1      19.371   8.085  21.997  0.00  0.00    +0.021 A 
ATOM     23  C   UNL     1      19.845   6.035  20.810  0.00  0.00    +0.021 A 
ATOM     24  C   UNL     1      20.240   7.036  21.698  0.00  0.00    +0.041 A 
ENDBRANCH  14  16
ENDBRANCH   7  12
BRANCH   3  11
ATOM     11  C   UNL     1      10.871   9.660  22.186  0.00  0.00    +0.139 C 
BRANCH  11  13
ATOM      6  N   UNL     1      11.011  10.947  24.245  0.00  0.00    -0.259 NA
ATOM     13  C   UNL     1      10.984  10.983  22.895  0.00  0.00    +0.055 A 
ATOM     15  C   UNL     1      11.056  12.148  22.148  0.00  0.00    +0.024 A 
ATOM     17  C   UNL     1      11.162  13.354  22.833  0.00  0.00    +0.003 A 
ATOM     18  C   UNL     1      11.114  12.139  24.876  0.00  0.00    +0.111 A 
ATOM     19  C   UNL     1      11.192  13.358  24.223  0.00  0.00    +0.020 A 
ENDBRANCH  11  13
ENDBRANCH   3  11
TORSDOF 4
ENDMDL
MODEL 4
REMARK VINA RESULT:      -7.0      5.112      8.039
REMARK  Name = 51137246
REMARK  4 active torsions:
REMARK  status: ('A' for Active; 'I' for Inactive)
REMARK    1  A    between atoms: N_3  and  C_11
REMARK    2  A    between atoms: C_7  and  C_12
REMARK    3  A    between atoms: C_11  and  C_13
REMARK    4  A    between atoms: C_14  and  C_16
REMARK                            x       y       z     vdW  Elec       q    Type
REMARK                         _______ _______ _______ _____ _____    ______ ____
ROOT
ATOM      3  N   UNL     1      17.158   7.524  20.487  0.00  0.00    -0.296 NA
ATOM      7  C   UNL     1      19.351   6.754  20.798  0.00  0.00    +0.092 C 
ATOM      8  C   UNL     1      18.607   5.816  19.830  0.00  0.00    +0.029 C 
ATOM      9  C   UNL     1      18.243   7.577  21.469  0.00  0.00    +0.097 C 
ATOM     10  C   UNL     1      17.131   6.137  20.028  0.00  0.00    +0.085 C 
ENDROOT
BRANCH   7  12
ATOM      2  O   UNL     1      20.984   5.008  21.326  0.00  0.00    -0.420 OA
ATOM      4  N   UNL     1      20.449   6.313  23.063  0.00  0.00    -0.112 NA
ATOM      5  N   UNL     1      21.371   5.379  23.498  0.00  0.00    -0.107 NA
ATOM     12  C   UNL     1      20.253   6.059  21.791  0.00  0.00    +0.222 A 
ATOM     14  C   UNL     1      21.654   4.639  22.451  0.00  0.00    +0.248 A 
BRANCH  14  16
ATOM      1 CL   UNL     1      25.349   0.018  21.882  0.00  0.00    -0.084 Cl
ATOM     16  C   UNL     1      22.545   3.524  22.314  0.00  0.00    +0.039 A 
ATOM     20  C   UNL     1      22.959   3.113  21.046  0.00  0.00    +0.014 A 
ATOM     21  C   UNL     1      23.000   2.850  23.447  0.00  0.00    +0.014 A 
ATOM     22  C   UNL     1      23.826   2.029  20.912  0.00  0.00    +0.021 A 
ATOM     23  C   UNL     1      23.866   1.766  23.314  0.00  0.00    +0.021 A 
ATOM     24  C   UNL     1      24.280   1.355  22.046  0.00  0.00    +0.041 A 
ENDBRANCH  14  16
ENDBRANCH   7  12
BRANCH   3  11
ATOM     11  C   UNL     1      15.882   7.948  21.046  0.00  0.00    +0.139 C 
BRANCH  11  13
ATOM      6  N   UNL     1      13.776   6.970  20.321  0.00  0.00    -0.259 NA
ATOM     13  C   UNL     1      14.767   7.845  20.040  0.00  0.00    +0.055 A 
ATOM     15  C   UNL     1      14.807   8.633  18.901  0.00  0.00    +0.024 A 
ATOM     17  C   UNL     1      13.761   8.516  17.992  0.00  0.00    +0.003 A 
ATOM     18  C   UNL     1      12.777   6.883  19.414  0.00  0.00    +0.111 A 
ATOM     19  C   UNL     1      12.723   7.626  18.246  0.00  0.00    +0.020 A 
ENDBRANCH  11  13
ENDBRANCH   3  11
TORSDOF 4
ENDMDL
MODEL 5
REMARK VINA RESULT:      -7.0     27.049     29.413
REMARK  Name = 51137246
REMARK  4 active torsions:
REMARK  status: ('A' for Active; 'I' for Inactive)
REMARK    1  A    between atoms: N_3  and  C_11
REMARK    2  A    between atoms: C_7  and  C_12
REMARK    3  A    between atoms: C_11  and  C_13
REMARK    4  A    between atoms: C_14  and  C_16
REMARK                            x       y       z     vdW  Elec       q    Type
REMARK                         _______ _______ _______ _____ _____    ______ ____
ROOT
ATOM      3  N   UNL     1     -16.812   2.769  26.602  0.00  0.00    -0.296 NA
ATOM      7  C   UNL     1     -16.265   4.457  25.069  0.00  0.00    +0.092 C 
ATOM      8  C   UNL     1     -17.795   4.313  25.153  0.00  0.00    +0.029 C 
ATOM      9  C   UNL     1     -15.719   3.178  25.719  0.00  0.00    +0.097 C 
ATOM     10  C   UNL     1     -18.027   2.960  25.812  0.00  0.00    +0.085 C 
ENDROOT
BRANCH   7  12
ATOM      2  O   UNL     1     -14.885   5.751  23.514  0.00  0.00    -0.420 OA
ATOM      4  N   UNL     1     -15.937   4.014  22.574  0.00  0.00    -0.112 NA
ATOM      5  N   UNL     1     -15.201   4.651  21.591  0.00  0.00    -0.107 NA
ATOM     12  C   UNL     1     -15.723   4.690  23.678  0.00  0.00    +0.222 A 
ATOM     14  C   UNL     1     -14.604   5.658  22.186  0.00  0.00    +0.248 A 
BRANCH  14  16
ATOM      1 CL   UNL     1     -10.931   9.793  20.008  0.00  0.00    -0.084 Cl
ATOM     16  C   UNL     1     -13.718   6.656  21.661  0.00  0.00    +0.039 A 
ATOM     20  C   UNL     1     -12.447   6.294  21.213  0.00  0.00    +0.014 A 
ATOM     21  C   UNL     1     -14.126   7.988  21.596  0.00  0.00    +0.014 A 
ATOM     22  C   UNL     1     -11.585   7.264  20.702  0.00  0.00    +0.021 A 
ATOM     23  C   UNL     1     -13.265   8.958  21.085  0.00  0.00    +0.021 A 
ATOM     24  C   UNL     1     -11.994   8.596  20.638  0.00  0.00    +0.041 A 
ENDBRANCH  14  16
ENDBRANCH   7  12
BRANCH   3  11
ATOM     11  C   UNL     1     -16.664   1.398  27.070  0.00  0.00    +0.139 C 
BRANCH  11  13
ATOM      6  N   UNL     1     -15.429   0.205  28.792  0.00  0.00    -0.259 NA
ATOM     13  C   UNL     1     -16.083   1.339  28.457  0.00  0.00    +0.055 A 
ATOM     15  C   UNL     1     -16.240   2.424  29.305  0.00  0.00    +0.024 A 
ATOM     17  C   UNL     1     -15.689   2.338  30.579  0.00  0.00    +0.003 A 
ATOM     18  C   UNL     1     -14.907   0.159  30.039  0.00  0.00    +0.111 A 
ATOM     19  C   UNL     1     -15.009   1.188  30.961  0.00  0.00    +0.020 A 
ENDBRANCH  11  13
ENDBRANCH   3  11
TORSDOF 4
ENDMDL
MODEL 6
REMARK VINA RESULT:      -6.9     26.346     28.727
REMARK  Name = 51137246
REMARK  4 active torsions:
REMARK  status: ('A' for Active; 'I' for Inactive)
REMARK    1  A    between atoms: N_3  and  C_11
REMARK    2  A    between atoms: C_7  and  C_12
REMARK    3  A    between atoms: C_11  and  C_13
REMARK    4  A    between atoms: C_14  and  C_16
REMARK                            x       y       z     vdW  Elec       q    Type
REMARK                         _______ _______ _______ _____ _____    ______ ____
ROOT
ATOM      3  N   UNL     1      -2.181 -10.942  13.882  0.00  0.00    -0.296 NA
ATOM      7  C   UNL     1      -3.207 -10.208  15.859  0.00  0.00    +0.092 C 
ATOM      8  C   UNL     1      -1.783 -10.703  16.170  0.00  0.00    +0.029 C 
ATOM      9  C   UNL     1      -3.514 -10.763  14.461  0.00  0.00    +0.097 C 
ATOM     10  C   UNL     1      -1.379 -11.527  14.955  0.00  0.00    +0.085 C 
ENDROOT
BRANCH   7  12
ATOM      2  O   UNL     1      -5.498 -10.069  16.711  0.00  0.00    -0.420 OA
ATOM      4  N   UNL     1      -4.141 -11.350  17.945  0.00  0.00    -0.112 NA
ATOM      5  N   UNL     1      -5.392 -11.360  18.536  0.00  0.00    -0.107 NA
ATOM     12  C   UNL     1      -4.250 -10.585  16.885  0.00  0.00    +0.222 A 
ATOM     14  C   UNL     1      -6.150 -10.599  17.781  0.00  0.00    +0.248 A 
BRANCH  14  16
ATOM      1 CL   UNL     1     -11.891  -9.149  18.308  0.00  0.00    -0.084 Cl
ATOM     16  C   UNL     1      -7.536 -10.249  17.909  0.00  0.00    +0.039 A 
ATOM     20  C   UNL     1      -8.061  -9.195  17.160  0.00  0.00    +0.014 A 
ATOM     21  C   UNL     1      -8.359 -10.963  18.780  0.00  0.00    +0.014 A 
ATOM     22  C   UNL     1      -9.407  -8.855  17.284  0.00  0.00    +0.021 A 
ATOM     23  C   UNL     1      -9.705 -10.623  18.903  0.00  0.00    +0.021 A 
ATOM     24  C   UNL     1     -10.230  -9.569  18.155  0.00  0.00    +0.041 A 
ENDBRANCH  14  16
ENDBRANCH   7  12
BRANCH   3  11
ATOM     11  C   UNL     1      -2.202 -11.775  12.688  0.00  0.00    +0.139 C 
BRANCH  11  13
ATOM      6  N   UNL     1      -3.879 -11.743  10.926  0.00  0.00    -0.259 NA
ATOM     13  C   UNL     1      -2.869 -11.079  11.532  0.00  0.00    +0.055 A 
ATOM     15  C   UNL     1      -2.429  -9.821  11.151  0.00  0.00    +0.024 A 
ATOM     17  C   UNL     1      -3.068  -9.205  10.081  0.00  0.00    +0.003 A 
ATOM     18  C   UNL     1      -4.475 -11.112   9.889  0.00  0.00    +0.111 A 
ATOM     19  C   UNL     1      -4.111  -9.856   9.432  0.00  0.00    +0.020 A 
ENDBRANCH  11  13
ENDBRANCH   3  11
TORSDOF 4
ENDMDL
MODEL 7
REMARK VINA RESULT:      -6.7     26.512     29.442
REMARK  Name = 51137246
REMARK  4 active torsions:
REMARK  status: ('A' for Active; 'I' for Inactive)
REMARK    1  A    between atoms: N_3  and  C_11
REMARK    2  A    between atoms: C_7  and  C_12
REMARK    3  A    between atoms: C_11  and  C_13
REMARK    4  A    between atoms: C_14  and  C_16
REMARK                            x       y       z     vdW  Elec       q    Type
REMARK                         _______ _______ _______ _____ _____    ______ ____
ROOT
ATOM      3  N   UNL     1      -4.565 -11.660  17.261  0.00  0.00    -0.296 NA
ATOM      7  C   UNL     1      -6.186 -10.733  18.679  0.00  0.00    +0.092 C 
ATOM      8  C   UNL     1      -5.616 -12.013  19.316  0.00  0.00    +0.029 C 
ATOM      9  C   UNL     1      -5.751 -10.804  17.208  0.00  0.00    +0.097 C 
ATOM     10  C   UNL     1      -4.922 -12.745  18.175  0.00  0.00    +0.085 C 
ENDROOT
BRANCH   7  12
ATOM      2  O   UNL     1      -8.294  -9.706  17.972  0.00  0.00    -0.420 OA
ATOM      4  N   UNL     1      -8.493 -11.089  19.719  0.00  0.00    -0.112 NA
ATOM      5  N   UNL     1      -9.747 -10.584  19.429  0.00  0.00    -0.107 NA
ATOM     12  C   UNL     1      -7.677 -10.550  18.845  0.00  0.00    +0.222 A 
ATOM     14  C   UNL     1      -9.582  -9.782  18.403  0.00  0.00    +0.248 A 
BRANCH  14  16
ATOM      1 CL   UNL     1     -13.525  -6.496  15.404  0.00  0.00    -0.084 Cl
ATOM     16  C   UNL     1     -10.534  -8.989  17.679  0.00  0.00    +0.039 A 
ATOM     20  C   UNL     1     -11.832  -9.462  17.484  0.00  0.00    +0.014 A 
ATOM     21  C   UNL     1     -10.162  -7.745  17.170  0.00  0.00    +0.014 A 
ATOM     22  C   UNL     1     -12.756  -8.691  16.781  0.00  0.00    +0.021 A 
ATOM     23  C   UNL     1     -11.086  -6.974  16.467  0.00  0.00    +0.021 A 
ATOM     24  C   UNL     1     -12.384  -7.447  16.273  0.00  0.00    +0.041 A 
ENDBRANCH  14  16
ENDBRANCH   7  12
BRANCH   3  11
ATOM     11  C   UNL     1      -4.175 -12.149  15.946  0.00  0.00    +0.139 C 
BRANCH  11  13
ATOM      6  N   UNL     1      -3.141 -11.129  13.995  0.00  0.00    -0.259 NA
ATOM     13  C   UNL     1      -3.090 -11.304  15.334  0.00  0.00    +0.055 A 
ATOM     15  C   UNL     1      -2.113 -10.757  16.151  0.00  0.00    +0.024 A 
ATOM     17  C   UNL     1      -1.126  -9.979  15.555  0.00  0.00    +0.003 A 
ATOM     18  C   UNL     1      -2.164 -10.368  13.451  0.00  0.00    +0.111 A 
ATOM     19  C   UNL     1      -1.145  -9.777  14.179  0.00  0.00    +0.020 A 
ENDBRANCH  11  13
ENDBRANCH   3  11
TORSDOF 4
ENDMDL
MODEL 8
REMARK VINA RESULT:      -6.6     27.980     29.513
REMARK  Name = 51137246
REMARK  4 active torsions:
REMARK  status: ('A' for Active; 'I' for Inactive)
REMARK    1  A    between atoms: N_3  and  C_11
REMARK    2  A    between atoms: C_7  and  C_12
REMARK    3  A    between atoms: C_11  and  C_13
REMARK    4  A    between atoms: C_14  and  C_16
REMARK                            x       y       z     vdW  Elec       q    Type
REMARK                         _______ _______ _______ _____ _____    ______ ____
ROOT
ATOM      3  N   UNL     1     -11.940  -6.519  14.477  0.00  0.00    -0.296 NA
ATOM      7  C   UNL     1     -10.218  -7.864  15.327  0.00  0.00    +0.092 C 
ATOM      8  C   UNL     1     -10.995  -8.642  14.250  0.00  0.00    +0.029 C 
ATOM      9  C   UNL     1     -11.128  -6.681  15.684  0.00  0.00    +0.097 C 
ATOM     10  C   UNL     1     -12.302  -7.879  14.080  0.00  0.00    +0.085 C 
ENDROOT
BRANCH   7  12
ATOM      2  O   UNL     1      -8.506  -9.061  16.604  0.00  0.00    -0.420 OA
ATOM      4  N   UNL     1     -10.535  -9.091  17.546  0.00  0.00    -0.112 NA
ATOM      5  N   UNL     1      -9.674  -9.798  18.365  0.00  0.00    -0.107 NA
ATOM     12  C   UNL     1      -9.811  -8.680  16.532  0.00  0.00    +0.222 A 
ATOM     14  C   UNL     1      -8.502  -9.754  17.776  0.00  0.00    +0.248 A 
BRANCH  14  16
ATOM      1 CL   UNL     1      -3.276 -12.069  19.407  0.00  0.00    -0.084 Cl
ATOM     16  C   UNL     1      -7.240 -10.312  18.170  0.00  0.00    +0.039 A 
ATOM     20  C   UNL     1      -7.100 -10.901  19.427  0.00  0.00    +0.014 A 
ATOM     21  C   UNL     1      -6.154 -10.268  17.295  0.00  0.00    +0.014 A 
ATOM     22  C   UNL     1      -5.874 -11.444  19.809  0.00  0.00    +0.021 A 
ATOM     23  C   UNL     1      -4.929 -10.811  17.678  0.00  0.00    +0.021 A 
ATOM     24  C   UNL     1      -4.788 -11.400  18.935  0.00  0.00    +0.041 A 
ENDBRANCH  14  16
ENDBRANCH   7  12
BRANCH   3  11
ATOM     11  C   UNL     1     -13.107  -5.678  14.702  0.00  0.00    +0.139 C 
BRANCH  11  13
ATOM      6  N   UNL     1     -14.694  -4.573  13.226  0.00  0.00    -0.259 NA
ATOM     13  C   UNL     1     -13.393  -4.789  13.521  0.00  0.00    +0.055 A 
ATOM     15  C   UNL     1     -12.335  -4.246  12.809  0.00  0.00    +0.024 A 
ATOM     17  C   UNL     1     -12.633  -3.427  11.725  0.00  0.00    +0.003 A 
ATOM     18  C   UNL     1     -14.944  -3.773  12.165  0.00  0.00    +0.111 A 
ATOM     19  C   UNL     1     -13.960  -3.182  11.390  0.00  0.00    +0.020 A 
ENDBRANCH  11  13
ENDBRANCH   3  11
TORSDOF 4
ENDMDL
MODEL 9
REMARK VINA RESULT:      -6.5      3.632      8.716
REMARK  Name = 51137246
REMARK  4 active torsions:
REMARK  status: ('A' for Active; 'I' for Inactive)
REMARK    1  A    between atoms: N_3  and  C_11
REMARK    2  A    between atoms: C_7  and  C_12
REMARK    3  A    between atoms: C_11  and  C_13
REMARK    4  A    between atoms: C_14  and  C_16
REMARK                            x       y       z     vdW  Elec       q    Type
REMARK                         _______ _______ _______ _____ _____    ______ ____
ROOT
ATOM      3  N   UNL     1      17.271   6.588  20.948  0.00  0.00    -0.296 NA
ATOM      7  C   UNL     1      14.999   6.321  20.435  0.00  0.00    +0.092 C 
ATOM      8  C   UNL     1      15.818   6.380  19.133  0.00  0.00    +0.029 C 
ATOM      9  C   UNL     1      15.948   6.857  21.515  0.00  0.00    +0.097 C 
ATOM     10  C   UNL     1      17.163   6.967  19.541  0.00  0.00    +0.085 C 
ENDROOT
BRANCH   7  12
ATOM      2  O   UNL     1      13.576   8.179  21.157  0.00  0.00    -0.420 OA
ATOM      4  N   UNL     1      12.591   6.782  19.713  0.00  0.00    -0.112 NA
ATOM      5  N   UNL     1      11.683   7.775  20.034  0.00  0.00    -0.107 NA
ATOM     12  C   UNL     1      13.680   7.058  20.391  0.00  0.00    +0.222 A 
ATOM     14  C   UNL     1      12.302   8.567  20.879  0.00  0.00    +0.248 A 
BRANCH  14  16
ATOM      1 CL   UNL     1      10.430  13.497  23.622  0.00  0.00    -0.084 Cl
ATOM     16  C   UNL     1      11.850   9.757  21.541  0.00  0.00    +0.039 A 
ATOM     20  C   UNL     1      11.174   9.664  22.758  0.00  0.00    +0.014 A 
ATOM     21  C   UNL     1      12.088  11.006  20.969  0.00  0.00    +0.014 A 
ATOM     22  C   UNL     1      10.735  10.821  23.401  0.00  0.00    +0.021 A 
ATOM     23  C   UNL     1      11.649  12.163  21.612  0.00  0.00    +0.021 A 
ATOM     24  C   UNL     1      10.972  12.070  22.829  0.00  0.00    +0.041 A 
ENDBRANCH  14  16
ENDBRANCH   7  12
BRANCH   3  11
ATOM     11  C   UNL     1      18.328   7.314  21.638  0.00  0.00    +0.139 C 
BRANCH  11  13
ATOM      6  N   UNL     1      20.164   6.473  22.993  0.00  0.00    -0.259 NA
ATOM     13  C   UNL     1      19.578   6.487  21.776  0.00  0.00    +0.055 A 
ATOM     15  C   UNL     1      20.058   5.794  20.675  0.00  0.00    +0.024 A 
ATOM     17  C   UNL     1      21.213   5.037  20.837  0.00  0.00    +0.003 A 
ATOM     18  C   UNL     1      21.286   5.727  23.111  0.00  0.00    +0.111 A 
ATOM     19  C   UNL     1      21.845   4.998  22.074  0.00  0.00    +0.020 A 
ENDBRANCH  11  13
ENDBRANCH   3  11
TORSDOF 4
ENDMDL
MODEL 10
REMARK VINA RESULT:      -6.4     27.285     29.727
REMARK  Name = 51137246
REMARK  4 active torsions:
REMARK  status: ('A' for Active; 'I' for Inactive)
REMARK    1  A    between atoms: N_3  and  C_11
REMARK    2  A    between atoms: C_7  and  C_12
REMARK    3  A    between atoms: C_11  and  C_13
REMARK    4  A    between atoms: C_14  and  C_16
REMARK                            x       y       z     vdW  Elec       q    Type
REMARK                         _______ _______ _______ _____ _____    ______ ____
ROOT
ATOM      3  N   UNL     1     -15.100   5.485  22.385  0.00  0.00    -0.296 NA
ATOM      7  C   UNL     1     -15.997   3.606  23.463  0.00  0.00    +0.092 C 
ATOM      8  C   UNL     1     -16.999   4.128  22.418  0.00  0.00    +0.029 C 
ATOM      9  C   UNL     1     -14.997   4.755  23.650  0.00  0.00    +0.097 C 
ATOM     10  C   UNL     1     -16.532   5.541  22.097  0.00  0.00    +0.085 C 
ENDROOT
BRANCH   7  12
ATOM      2  O   UNL     1     -15.781   3.021  25.831  0.00  0.00    -0.420 OA
ATOM      4  N   UNL     1     -17.862   2.836  25.031  0.00  0.00    -0.112 NA
ATOM      5  N   UNL     1     -17.884   2.478  26.367  0.00  0.00    -0.107 NA
ATOM     12  C   UNL     1     -16.615   3.144  24.762  0.00  0.00    +0.222 A 
ATOM     14  C   UNL     1     -16.648   2.601  26.792  0.00  0.00    +0.248 A 
BRANCH  14  16
ATOM      1 CL   UNL     1     -14.304   1.629  32.167  0.00  0.00    -0.084 Cl
ATOM     16  C   UNL     1     -16.082   2.367  28.089  0.00  0.00    +0.039 A 
ATOM     20  C   UNL     1     -15.436   3.401  28.766  0.00  0.00    +0.014 A 
ATOM     21  C   UNL     1     -16.179   1.104  28.674  0.00  0.00    +0.014 A 
ATOM     22  C   UNL     1     -14.886   3.173  30.027  0.00  0.00    +0.021 A 
ATOM     23  C   UNL     1     -15.629   0.876  29.935  0.00  0.00    +0.021 A 
ATOM     24  C   UNL     1     -14.983   1.911  30.612  0.00  0.00    +0.041 A 
ENDBRANCH  14  16
ENDBRANCH   7  12
BRANCH   3  11
ATOM     11  C   UNL     1     -14.497   6.808  22.458  0.00  0.00    +0.139 C 
BRANCH  11  13
ATOM      6  N   UNL     1     -14.240   7.803  20.253  0.00  0.00    -0.259 NA
ATOM     13  C   UNL     1     -13.650   7.105  21.249  0.00  0.00    +0.055 A 
ATOM     15  C   UNL     1     -12.338   6.661  21.214  0.00  0.00    +0.024 A 
ATOM     17  C   UNL     1     -11.582   6.953  20.083  0.00  0.00    +0.003 A 
ATOM     18  C   UNL     1     -13.474   8.067  19.170  0.00  0.00    +0.111 A 
ATOM     19  C   UNL     1     -12.154   7.669  19.038  0.00  0.00    +0.020 A 
ENDBRANCH  11  13
ENDBRANCH   3  11
TORSDOF 4
ENDMDL
