MODEL 1
REMARK VINA RESULT:      -5.4      0.000      0.000
REMARK  Name = 38026421
REMARK  13 active torsions:
REMARK  status: ('A' for Active; 'I' for Inactive)
REMARK    1  A    between atoms: O_2  and  C_16
REMARK    2  A    between atoms: O_4  and  C_26
REMARK    3  A    between atoms: O_4  and  C_27
REMARK    4  A    between atoms: N_6  and  C_14
REMARK    5  A    between atoms: N_6  and  C_17
REMARK    6  A    between atoms: N_6  and  C_18
REMARK    7  A    between atoms: C_7  and  C_11
REMARK    8  A    between atoms: C_8  and  C_13
REMARK    9  A    between atoms: C_11  and  C_14
REMARK   10  A    between atoms: C_13  and  C_16
REMARK   11  A    between atoms: C_15  and  C_19
REMARK   12  A    between atoms: C_17  and  C_20
REMARK   13  A    between atoms: C_18  and  C_21
REMARK                            x       y       z     vdW  Elec       q    Type
REMARK                         _______ _______ _______ _____ _____    ______ ____
ROOT
ATOM      1  O   UNL     1      -1.424  -9.855  12.414  0.00  0.00    -0.270 OA
ATOM      5  N   UNL     1      -2.684 -11.243  13.814  0.00  0.00    -0.297 N 
ATOM      7  C   UNL     1      -4.602 -11.563  15.363  0.00  0.00    +0.011 C 
ATOM      8  C   UNL     1      -3.599 -11.537  16.545  0.00  0.00    +0.006 C 
ATOM      9  C   UNL     1      -2.336 -10.731  16.199  0.00  0.00    +0.023 C 
ATOM     10  C   UNL     1      -3.890 -12.040  14.083  0.00  0.00    +0.112 C 
ATOM     12  C   UNL     1      -1.706 -11.224  14.899  0.00  0.00    +0.108 C 
ATOM     15  C   UNL     1      -2.428 -10.528  12.641  0.00  0.00    +0.247 C 
ENDROOT
BRANCH  15  19
ATOM     19  C   UNL     1      -3.434 -10.570  11.574  0.00  0.00    +0.037 A 
ATOM     22  C   UNL     1      -4.442  -9.607  11.527  0.00  0.00    +0.016 A 
ATOM     23  C   UNL     1      -3.385 -11.576  10.608  0.00  0.00    +0.016 A 
ATOM     24  C   UNL     1      -5.398  -9.648  10.513  0.00  0.00    +0.046 A 
ATOM     25  C   UNL     1      -4.342 -11.617   9.595  0.00  0.00    +0.046 A 
ATOM     26  C   UNL     1      -5.349 -10.653   9.547  0.00  0.00    +0.120 A 
BRANCH  26   4
ATOM      4  O   UNL     1      -6.284 -10.693   8.558  0.00  0.00    -0.495 OA
ATOM     27  C   UNL     1      -5.960 -10.040   7.332  0.00  0.00    +0.277 C 
ENDBRANCH  26   4
ENDBRANCH  15  19
BRANCH   7  11
ATOM     11  C   UNL     1      -5.306 -10.224  15.113  0.00  0.00    +0.020 C 
BRANCH  11  14
ATOM     14  C   UNL     1      -6.703 -10.442  14.550  0.00  0.00    +0.084 C 
BRANCH  14   6
ATOM      6  N   UNL     1      -7.663 -10.563  15.641  0.00  0.00    -0.303 NA
BRANCH   6  17
ATOM     17  C   UNL     1      -9.034 -10.519  15.129  0.00  0.00    +0.081 C 
ATOM     20  C   UNL     1      -9.192  -9.434  14.078  0.00  0.00    +0.020 C 
ENDBRANCH   6  17
BRANCH   6  18
ATOM     18  C   UNL     1      -7.455  -9.503  16.630  0.00  0.00    +0.081 C 
ATOM     21  C   UNL     1      -7.724 -10.006  18.038  0.00  0.00    +0.020 C 
ENDBRANCH   6  18
ENDBRANCH  14   6
ENDBRANCH  11  14
ENDBRANCH   7  11
BRANCH   8  13
ATOM     13  C   UNL     1      -4.221 -11.030  17.847  0.00  0.00    +0.124 C 
BRANCH  13  16
ATOM      3  O   UNL     1      -3.349 -12.177  19.814  0.00  0.00    -0.251 OA
ATOM     16  C   UNL     1      -4.180 -12.078  18.925  0.00  0.00    +0.305 C 
BRANCH  16   2
ATOM      2  O   UNL     1      -5.226 -12.932  18.773  0.00  0.00    -0.481 OA
ATOM     28  H   UNL     1      -4.928 -13.857  18.647  0.00  0.00    +0.295 HD
ENDBRANCH  16   2
ENDBRANCH  13  16
ENDBRANCH   8  13
TORSDOF 10
ENDMDL
MODEL 2
REMARK VINA RESULT:      -5.3      2.689      6.309
REMARK  Name = 38026421
REMARK  13 active torsions:
REMARK  status: ('A' for Active; 'I' for Inactive)
REMARK    1  A    between atoms: O_2  and  C_16
REMARK    2  A    between atoms: O_4  and  C_26
REMARK    3  A    between atoms: O_4  and  C_27
REMARK    4  A    between atoms: N_6  and  C_14
REMARK    5  A    between atoms: N_6  and  C_17
REMARK    6  A    between atoms: N_6  and  C_18
REMARK    7  A    between atoms: C_7  and  C_11
REMARK    8  A    between atoms: C_8  and  C_13
REMARK    9  A    between atoms: C_11  and  C_14
REMARK   10  A    between atoms: C_13  and  C_16
REMARK   11  A    between atoms: C_15  and  C_19
REMARK   12  A    between atoms: C_17  and  C_20
REMARK   13  A    between atoms: C_18  and  C_21
REMARK                            x       y       z     vdW  Elec       q    Type
REMARK                         _______ _______ _______ _____ _____    ______ ____
ROOT
ATOM      1  O   UNL     1      -8.798 -11.057  18.557  0.00  0.00    -0.270 OA
ATOM      5  N   UNL     1      -6.846 -10.138  17.652  0.00  0.00    -0.297 N 
ATOM      7  C   UNL     1      -5.199  -9.990  15.797  0.00  0.00    +0.011 C 
ATOM      8  C   UNL     1      -4.222 -10.839  16.649  0.00  0.00    +0.006 C 
ATOM      9  C   UNL     1      -4.974 -11.740  17.643  0.00  0.00    +0.023 C 
ATOM     10  C   UNL     1      -6.170  -9.228  16.717  0.00  0.00    +0.112 C 
ATOM     12  C   UNL     1      -5.951 -10.931  18.493  0.00  0.00    +0.108 C 
ATOM     15  C   UNL     1      -8.229 -10.293  17.780  0.00  0.00    +0.247 C 
ENDROOT
BRANCH  15  19
ATOM     19  C   UNL     1      -9.096  -9.481  16.920  0.00  0.00    +0.037 A 
ATOM     22  C   UNL     1      -9.606  -8.269  17.388  0.00  0.00    +0.016 A 
ATOM     23  C   UNL     1      -9.414  -9.921  15.635  0.00  0.00    +0.016 A 
ATOM     24  C   UNL     1     -10.431  -7.498  16.570  0.00  0.00    +0.046 A 
ATOM     25  C   UNL     1     -10.241  -9.150  14.818  0.00  0.00    +0.046 A 
ATOM     26  C   UNL     1     -10.749  -7.939  15.285  0.00  0.00    +0.120 A 
BRANCH  26   4
ATOM      4  O   UNL     1     -11.555  -7.185  14.488  0.00  0.00    -0.495 OA
ATOM     27  C   UNL     1     -11.672  -5.800  14.806  0.00  0.00    +0.277 C 
ENDBRANCH  26   4
ENDBRANCH  15  19
BRANCH   7  11
ATOM     11  C   UNL     1      -5.979 -10.799  14.753  0.00  0.00    +0.020 C 
BRANCH  11  14
ATOM     14  C   UNL     1      -6.116 -10.018  13.453  0.00  0.00    +0.084 C 
BRANCH  14   6
ATOM      6  N   UNL     1      -5.063 -10.414  12.525  0.00  0.00    -0.303 NA
BRANCH   6  17
ATOM     17  C   UNL     1      -5.416 -10.039  11.154  0.00  0.00    +0.081 C 
ATOM     20  C   UNL     1      -5.226  -8.549  10.927  0.00  0.00    +0.020 C 
ENDBRANCH   6  17
BRANCH   6  18
ATOM     18  C   UNL     1      -4.816 -11.855  12.610  0.00  0.00    +0.081 C 
ATOM     21  C   UNL     1      -3.468 -12.217  12.010  0.00  0.00    +0.020 C 
ENDBRANCH   6  18
ENDBRANCH  14   6
ENDBRANCH  11  14
ENDBRANCH   7  11
BRANCH   8  13
ATOM     13  C   UNL     1      -3.250 -11.664  15.805  0.00  0.00    +0.124 C 
BRANCH  13  16
ATOM      3  O   UNL     1      -1.836 -10.226  14.436  0.00  0.00    -0.251 OA
ATOM     16  C   UNL     1      -2.018 -10.878  15.453  0.00  0.00    +0.305 C 
BRANCH  16   2
ATOM      2  O   UNL     1      -1.101 -10.993  16.449  0.00  0.00    -0.481 OA
ATOM     28  H   UNL     1      -1.501 -11.337  17.275  0.00  0.00    +0.295 HD
ENDBRANCH  16   2
ENDBRANCH  13  16
ENDBRANCH   8  13
TORSDOF 10
ENDMDL
MODEL 3
REMARK VINA RESULT:      -5.1     21.041     23.377
REMARK  Name = 38026421
REMARK  13 active torsions:
REMARK  status: ('A' for Active; 'I' for Inactive)
REMARK    1  A    between atoms: O_2  and  C_16
REMARK    2  A    between atoms: O_4  and  C_26
REMARK    3  A    between atoms: O_4  and  C_27
REMARK    4  A    between atoms: N_6  and  C_14
REMARK    5  A    between atoms: N_6  and  C_17
REMARK    6  A    between atoms: N_6  and  C_18
REMARK    7  A    between atoms: C_7  and  C_11
REMARK    8  A    between atoms: C_8  and  C_13
REMARK    9  A    between atoms: C_11  and  C_14
REMARK   10  A    between atoms: C_13  and  C_16
REMARK   11  A    between atoms: C_15  and  C_19
REMARK   12  A    between atoms: C_17  and  C_20
REMARK   13  A    between atoms: C_18  and  C_21
REMARK                            x       y       z     vdW  Elec       q    Type
REMARK                         _______ _______ _______ _____ _____    ______ ____
ROOT
ATOM      1  O   UNL     1     -12.696   8.050  16.207  0.00  0.00    -0.270 OA
ATOM      5  N   UNL     1     -10.973   9.313  17.162  0.00  0.00    -0.297 N 
ATOM      7  C   UNL     1     -10.221  11.320  18.420  0.00  0.00    +0.011 C 
ATOM      8  C   UNL     1      -9.713  11.918  17.083  0.00  0.00    +0.006 C 
ATOM      9  C   UNL     1     -10.494  11.362  15.881  0.00  0.00    +0.023 C 
ATOM     10  C   UNL     1     -10.226   9.783  18.337  0.00  0.00    +0.112 C 
ATOM     12  C   UNL     1     -10.497   9.836  15.883  0.00  0.00    +0.108 C 
ATOM     15  C   UNL     1     -12.065   8.441  17.187  0.00  0.00    +0.247 C 
ENDROOT
BRANCH  15  19
ATOM     19  C   UNL     1     -12.514   7.937  18.490  0.00  0.00    +0.037 A 
ATOM     22  C   UNL     1     -13.821   8.175  18.917  0.00  0.00    +0.016 A 
ATOM     23  C   UNL     1     -11.634   7.222  19.303  0.00  0.00    +0.016 A 
ATOM     24  C   UNL     1     -14.247   7.697  20.155  0.00  0.00    +0.046 A 
ATOM     25  C   UNL     1     -12.061   6.744  20.542  0.00  0.00    +0.046 A 
ATOM     26  C   UNL     1     -13.367   6.982  20.968  0.00  0.00    +0.120 A 
BRANCH  26   4
ATOM      4  O   UNL     1     -13.785   6.515  22.177  0.00  0.00    -0.495 OA
ATOM     27  C   UNL     1     -14.918   7.153  22.763  0.00  0.00    +0.277 C 
ENDBRANCH  26   4
ENDBRANCH  15  19
BRANCH   7  11
ATOM     11  C   UNL     1     -11.602  11.834  18.848  0.00  0.00    +0.020 C 
BRANCH  11  14
ATOM     14  C   UNL     1     -12.025  11.214  20.172  0.00  0.00    +0.084 C 
BRANCH  14   6
ATOM      6  N   UNL     1     -13.271  11.820  20.627  0.00  0.00    -0.303 NA
BRANCH   6  17
ATOM     17  C   UNL     1     -13.790  11.113  21.800  0.00  0.00    +0.081 C 
ATOM     20  C   UNL     1     -12.711  10.267  22.453  0.00  0.00    +0.020 C 
ENDBRANCH   6  17
BRANCH   6  18
ATOM     18  C   UNL     1     -14.266  11.820  19.552  0.00  0.00    +0.081 C 
ATOM     21  C   UNL     1     -15.611  11.319  20.051  0.00  0.00    +0.020 C 
ENDBRANCH   6  18
ENDBRANCH  14   6
ENDBRANCH  11  14
ENDBRANCH   7  11
BRANCH   8  13
ATOM     13  C   UNL     1      -9.721  13.448  17.069  0.00  0.00    +0.124 C 
BRANCH  13  16
ATOM      3  O   UNL     1      -7.304  13.538  16.770  0.00  0.00    -0.251 OA
ATOM     16  C   UNL     1      -8.335  14.010  17.223  0.00  0.00    +0.305 C 
BRANCH  16   2
ATOM      2  O   UNL     1      -8.382  15.150  17.960  0.00  0.00    -0.481 OA
ATOM     28  H   UNL     1      -7.609  15.728  17.789  0.00  0.00    +0.295 HD
ENDBRANCH  16   2
ENDBRANCH  13  16
ENDBRANCH   8  13
TORSDOF 10
ENDMDL
MODEL 4
REMARK VINA RESULT:      -5.1     20.785     23.120
REMARK  Name = 38026421
REMARK  13 active torsions:
REMARK  status: ('A' for Active; 'I' for Inactive)
REMARK    1  A    between atoms: O_2  and  C_16
REMARK    2  A    between atoms: O_4  and  C_26
REMARK    3  A    between atoms: O_4  and  C_27
REMARK    4  A    between atoms: N_6  and  C_14
REMARK    5  A    between atoms: N_6  and  C_17
REMARK    6  A    between atoms: N_6  and  C_18
REMARK    7  A    between atoms: C_7  and  C_11
REMARK    8  A    between atoms: C_8  and  C_13
REMARK    9  A    between atoms: C_11  and  C_14
REMARK   10  A    between atoms: C_13  and  C_16
REMARK   11  A    between atoms: C_15  and  C_19
REMARK   12  A    between atoms: C_17  and  C_20
REMARK   13  A    between atoms: C_18  and  C_21
REMARK                            x       y       z     vdW  Elec       q    Type
REMARK                         _______ _______ _______ _____ _____    ______ ____
ROOT
ATOM      1  O   UNL     1     -13.073   8.143  16.098  0.00  0.00    -0.270 OA
ATOM      5  N   UNL     1     -11.162   9.249  16.875  0.00  0.00    -0.297 N 
ATOM      7  C   UNL     1     -10.126  11.148  18.098  0.00  0.00    +0.011 C 
ATOM      8  C   UNL     1      -9.742  11.768  16.730  0.00  0.00    +0.006 C 
ATOM      9  C   UNL     1     -10.700  11.315  15.615  0.00  0.00    +0.023 C 
ATOM     10  C   UNL     1     -10.248   9.619  17.964  0.00  0.00    +0.112 C 
ATOM     12  C   UNL     1     -10.810   9.793  15.565  0.00  0.00    +0.108 C 
ATOM     15  C   UNL     1     -12.301   8.450  17.006  0.00  0.00    +0.247 C 
ENDROOT
BRANCH  15  19
ATOM     19  C   UNL     1     -12.624   7.922  18.336  0.00  0.00    +0.037 A 
ATOM     22  C   UNL     1     -11.615   7.388  19.137  0.00  0.00    +0.016 A 
ATOM     23  C   UNL     1     -13.940   7.951  18.797  0.00  0.00    +0.016 A 
ATOM     24  C   UNL     1     -11.922   6.884  20.401  0.00  0.00    +0.046 A 
ATOM     25  C   UNL     1     -14.247   7.446  20.061  0.00  0.00    +0.046 A 
ATOM     26  C   UNL     1     -13.238   6.913  20.863  0.00  0.00    +0.120 A 
BRANCH  26   4
ATOM      4  O   UNL     1     -13.537   6.421  22.096  0.00  0.00    -0.495 OA
ATOM     27  C   UNL     1     -13.968   5.063  22.168  0.00  0.00    +0.277 C 
ENDBRANCH  26   4
ENDBRANCH  15  19
BRANCH   7  11
ATOM     11  C   UNL     1     -11.405  11.732  18.711  0.00  0.00    +0.020 C 
BRANCH  11  14
ATOM     14  C   UNL     1     -11.680  11.122  20.078  0.00  0.00    +0.084 C 
BRANCH  14   6
ATOM      6  N   UNL     1     -13.111  10.900  20.242  0.00  0.00    -0.303 NA
BRANCH   6  17
ATOM     17  C   UNL     1     -13.872  11.709  19.286  0.00  0.00    +0.081 C 
ATOM     20  C   UNL     1     -15.365  11.473  19.434  0.00  0.00    +0.020 C 
ENDBRANCH   6  17
BRANCH   6  18
ATOM     18  C   UNL     1     -13.527  11.209  21.612  0.00  0.00    +0.081 C 
ATOM     21  C   UNL     1     -12.982  10.185  22.593  0.00  0.00    +0.020 C 
ENDBRANCH   6  18
ENDBRANCH  14   6
ENDBRANCH  11  14
ENDBRANCH   7  11
BRANCH   8  13
ATOM     13  C   UNL     1      -9.645  13.294  16.769  0.00  0.00    +0.124 C 
BRANCH  13  16
ATOM      3  O   UNL     1      -7.904  14.730  17.689  0.00  0.00    -0.251 OA
ATOM     16  C   UNL     1      -8.238  13.752  17.039  0.00  0.00    +0.305 C 
BRANCH  16   2
ATOM      2  O   UNL     1      -7.358  12.905  16.443  0.00  0.00    -0.481 OA
ATOM     28  H   UNL     1      -6.513  12.849  16.937  0.00  0.00    +0.295 HD
ENDBRANCH  16   2
ENDBRANCH  13  16
ENDBRANCH   8  13
TORSDOF 10
ENDMDL
MODEL 5
REMARK VINA RESULT:      -4.9     23.691     26.080
REMARK  Name = 38026421
REMARK  13 active torsions:
REMARK  status: ('A' for Active; 'I' for Inactive)
REMARK    1  A    between atoms: O_2  and  C_16
REMARK    2  A    between atoms: O_4  and  C_26
REMARK    3  A    between atoms: O_4  and  C_27
REMARK    4  A    between atoms: N_6  and  C_14
REMARK    5  A    between atoms: N_6  and  C_17
REMARK    6  A    between atoms: N_6  and  C_18
REMARK    7  A    between atoms: C_7  and  C_11
REMARK    8  A    between atoms: C_8  and  C_13
REMARK    9  A    between atoms: C_11  and  C_14
REMARK   10  A    between atoms: C_13  and  C_16
REMARK   11  A    between atoms: C_15  and  C_19
REMARK   12  A    between atoms: C_17  and  C_20
REMARK   13  A    between atoms: C_18  and  C_21
REMARK                            x       y       z     vdW  Elec       q    Type
REMARK                         _______ _______ _______ _____ _____    ______ ____
ROOT
ATOM      1  O   UNL     1       9.778   3.742   5.478  0.00  0.00    -0.270 OA
ATOM      5  N   UNL     1      10.867   5.076   3.893  0.00  0.00    -0.297 N 
ATOM      7  C   UNL     1      10.764   6.715   2.028  0.00  0.00    +0.011 C 
ATOM      8  C   UNL     1      11.079   5.558   1.046  0.00  0.00    +0.006 C 
ATOM      9  C   UNL     1      10.617   4.201   1.603  0.00  0.00    +0.023 C 
ATOM     10  C   UNL     1      11.330   6.389   3.422  0.00  0.00    +0.112 C 
ATOM     12  C   UNL     1      11.177   3.959   3.003  0.00  0.00    +0.108 C 
ATOM     15  C   UNL     1      10.173   4.837   5.083  0.00  0.00    +0.247 C 
ENDROOT
BRANCH  15  19
ATOM     19  C   UNL     1       9.879   5.983   5.951  0.00  0.00    +0.037 A 
ATOM     22  C   UNL     1      10.834   6.426   6.867  0.00  0.00    +0.016 A 
ATOM     23  C   UNL     1       8.645   6.627   5.863  0.00  0.00    +0.016 A 
ATOM     24  C   UNL     1      10.554   7.513   7.694  0.00  0.00    +0.046 A 
ATOM     25  C   UNL     1       8.365   7.714   6.691  0.00  0.00    +0.046 A 
ATOM     26  C   UNL     1       9.319   8.157   7.606  0.00  0.00    +0.120 A 
BRANCH  26   4
ATOM      4  O   UNL     1       9.047   9.219   8.413  0.00  0.00    -0.495 OA
ATOM     27  C   UNL     1      10.043  10.236   8.508  0.00  0.00    +0.277 C 
ENDBRANCH  26   4
ENDBRANCH  15  19
BRANCH   7  11
ATOM     11  C   UNL     1       9.272   7.060   2.128  0.00  0.00    +0.020 C 
BRANCH  11  14
ATOM     14  C   UNL     1       9.046   8.553   1.939  0.00  0.00    +0.084 C 
BRANCH  14   6
ATOM      6  N   UNL     1       8.490   9.128   3.158  0.00  0.00    -0.303 NA
BRANCH   6  17
ATOM     17  C   UNL     1       7.110   9.566   2.940  0.00  0.00    +0.081 C 
ATOM     20  C   UNL     1       6.454   9.984   4.245  0.00  0.00    +0.020 C 
ENDBRANCH   6  17
BRANCH   6  18
ATOM     18  C   UNL     1       9.312  10.248   3.621  0.00  0.00    +0.081 C 
ATOM     21  C   UNL     1      10.475   9.762   4.468  0.00  0.00    +0.020 C 
ENDBRANCH   6  18
ENDBRANCH  14   6
ENDBRANCH  11  14
ENDBRANCH   7  11
BRANCH   8  13
ATOM     13  C   UNL     1      10.509   5.788  -0.354  0.00  0.00    +0.124 C 
BRANCH  13  16
ATOM      3  O   UNL     1      10.167   3.922  -1.885  0.00  0.00    -0.251 OA
ATOM     16  C   UNL     1      10.913   4.693  -1.303  0.00  0.00    +0.305 C 
BRANCH  16   2
ATOM      2  O   UNL     1      12.266   4.674  -1.430  0.00  0.00    -0.481 OA
ATOM     28  H   UNL     1      12.548   4.261  -2.273  0.00  0.00    +0.295 HD
ENDBRANCH  16   2
ENDBRANCH  13  16
ENDBRANCH   8  13
TORSDOF 10
ENDMDL
MODEL 6
REMARK VINA RESULT:      -4.9     23.269     26.250
REMARK  Name = 38026421
REMARK  13 active torsions:
REMARK  status: ('A' for Active; 'I' for Inactive)
REMARK    1  A    between atoms: O_2  and  C_16
REMARK    2  A    between atoms: O_4  and  C_26
REMARK    3  A    between atoms: O_4  and  C_27
REMARK    4  A    between atoms: N_6  and  C_14
REMARK    5  A    between atoms: N_6  and  C_17
REMARK    6  A    between atoms: N_6  and  C_18
REMARK    7  A    between atoms: C_7  and  C_11
REMARK    8  A    between atoms: C_8  and  C_13
REMARK    9  A    between atoms: C_11  and  C_14
REMARK   10  A    between atoms: C_13  and  C_16
REMARK   11  A    between atoms: C_15  and  C_19
REMARK   12  A    between atoms: C_17  and  C_20
REMARK   13  A    between atoms: C_18  and  C_21
REMARK                            x       y       z     vdW  Elec       q    Type
REMARK                         _______ _______ _______ _____ _____    ______ ____
ROOT
ATOM      1  O   UNL     1       9.694  10.529   6.520  0.00  0.00    -0.270 OA
ATOM      5  N   UNL     1       8.587   9.285   4.876  0.00  0.00    -0.297 N 
ATOM      7  C   UNL     1       8.668   7.769   2.909  0.00  0.00    +0.011 C 
ATOM      8  C   UNL     1       8.320   8.982   2.009  0.00  0.00    +0.006 C 
ATOM      9  C   UNL     1       8.779  10.306   2.642  0.00  0.00    +0.023 C 
ATOM     10  C   UNL     1       8.127   8.000   4.332  0.00  0.00    +0.112 C 
ATOM     12  C   UNL     1       8.247  10.452   4.065  0.00  0.00    +0.108 C 
ATOM     15  C   UNL     1       9.302   9.456   6.064  0.00  0.00    +0.247 C 
ENDROOT
BRANCH  15  19
ATOM     19  C   UNL     1       9.626   8.261   6.852  0.00  0.00    +0.037 A 
ATOM     22  C   UNL     1       8.668   7.703   7.699  0.00  0.00    +0.016 A 
ATOM     23  C   UNL     1      10.892   7.684   6.756  0.00  0.00    +0.016 A 
ATOM     24  C   UNL     1       8.976   6.569   8.449  0.00  0.00    +0.046 A 
ATOM     25  C   UNL     1      11.200   6.549   7.507  0.00  0.00    +0.046 A 
ATOM     26  C   UNL     1      10.242   5.992   8.353  0.00  0.00    +0.120 A 
BRANCH  26   4
ATOM      4  O   UNL     1      10.542   4.884   9.085  0.00  0.00    -0.495 OA
ATOM     27  C   UNL     1       9.497   4.329   9.881  0.00  0.00    +0.277 C 
ENDBRANCH  26   4
ENDBRANCH  15  19
BRANCH   7  11
ATOM     11  C   UNL     1      10.164   7.436   2.956  0.00  0.00    +0.020 C 
BRANCH  11  14
ATOM     14  C   UNL     1      10.488   6.261   2.044  0.00  0.00    +0.084 C 
BRANCH  14   6
ATOM      6  N   UNL     1      10.203   5.007   2.733  0.00  0.00    -0.303 NA
BRANCH   6  17
ATOM     17  C   UNL     1      10.763   5.023   4.086  0.00  0.00    +0.081 C 
ATOM     20  C   UNL     1       9.793   4.421   5.088  0.00  0.00    +0.020 C 
ENDBRANCH   6  17
BRANCH   6  18
ATOM     18  C   UNL     1      10.735   3.872   1.977  0.00  0.00    +0.081 C 
ATOM     21  C   UNL     1      12.254   3.855   2.008  0.00  0.00    +0.020 C 
ENDBRANCH   6  18
ENDBRANCH  14   6
ENDBRANCH  11  14
ENDBRANCH   7  11
BRANCH   8  13
ATOM     13  C   UNL     1       8.863   8.849   0.586  0.00  0.00    +0.124 C 
BRANCH  13  16
ATOM      3  O   UNL     1       8.605  10.629  -1.059  0.00  0.00    -0.251 OA
ATOM     16  C   UNL     1       8.124   9.739  -0.375  0.00  0.00    +0.305 C 
BRANCH  16   2
ATOM      2  O   UNL     1       6.806   9.412  -0.380  0.00  0.00    -0.481 OA
ATOM     28  H   UNL     1       6.663   8.467  -0.165  0.00  0.00    +0.295 HD
ENDBRANCH  16   2
ENDBRANCH  13  16
ENDBRANCH   8  13
TORSDOF 10
ENDMDL
MODEL 7
REMARK VINA RESULT:      -4.9      3.924      7.261
REMARK  Name = 38026421
REMARK  13 active torsions:
REMARK  status: ('A' for Active; 'I' for Inactive)
REMARK    1  A    between atoms: O_2  and  C_16
REMARK    2  A    between atoms: O_4  and  C_26
REMARK    3  A    between atoms: O_4  and  C_27
REMARK    4  A    between atoms: N_6  and  C_14
REMARK    5  A    between atoms: N_6  and  C_17
REMARK    6  A    between atoms: N_6  and  C_18
REMARK    7  A    between atoms: C_7  and  C_11
REMARK    8  A    between atoms: C_8  and  C_13
REMARK    9  A    between atoms: C_11  and  C_14
REMARK   10  A    between atoms: C_13  and  C_16
REMARK   11  A    between atoms: C_15  and  C_19
REMARK   12  A    between atoms: C_17  and  C_20
REMARK   13  A    between atoms: C_18  and  C_21
REMARK                            x       y       z     vdW  Elec       q    Type
REMARK                         _______ _______ _______ _____ _____    ______ ____
ROOT
ATOM      1  O   UNL     1      -8.109 -13.136  20.021  0.00  0.00    -0.270 OA
ATOM      5  N   UNL     1      -7.111 -11.296  18.976  0.00  0.00    -0.297 N 
ATOM      7  C   UNL     1      -6.534 -10.053  16.902  0.00  0.00    +0.011 C 
ATOM      8  C   UNL     1      -5.080 -10.567  17.046  0.00  0.00    +0.006 C 
ATOM      9  C   UNL     1      -5.023 -11.897  17.815  0.00  0.00    +0.023 C 
ATOM     10  C   UNL     1      -7.211 -10.002  18.284  0.00  0.00    +0.112 C 
ATOM     12  C   UNL     1      -5.749 -11.792  19.154  0.00  0.00    +0.108 C 
ATOM     15  C   UNL     1      -8.188 -12.051  19.447  0.00  0.00    +0.247 C 
ENDROOT
BRANCH  15  19
ATOM     19  C   UNL     1      -9.542 -11.520  19.250  0.00  0.00    +0.037 A 
ATOM     22  C   UNL     1     -10.087 -10.636  20.181  0.00  0.00    +0.016 A 
ATOM     23  C   UNL     1     -10.285 -11.902  18.132  0.00  0.00    +0.016 A 
ATOM     24  C   UNL     1     -11.374 -10.133  19.994  0.00  0.00    +0.046 A 
ATOM     25  C   UNL     1     -11.572 -11.399  17.947  0.00  0.00    +0.046 A 
ATOM     26  C   UNL     1     -12.117 -10.515  18.877  0.00  0.00    +0.120 A 
BRANCH  26   4
ATOM      4  O   UNL     1     -13.373 -10.023  18.695  0.00  0.00    -0.495 OA
ATOM     27  C   UNL     1     -13.636  -9.350  17.466  0.00  0.00    +0.277 C 
ENDBRANCH  26   4
ENDBRANCH  15  19
BRANCH   7  11
ATOM     11  C   UNL     1      -7.389 -10.865  15.920  0.00  0.00    +0.020 C 
BRANCH  11  14
ATOM     14  C   UNL     1      -8.158  -9.947  14.981  0.00  0.00    +0.084 C 
BRANCH  14   6
ATOM      6  N   UNL     1      -9.468  -9.645  15.546  0.00  0.00    -0.303 NA
BRANCH   6  17
ATOM     17  C   UNL     1     -10.533 -10.143  14.673  0.00  0.00    +0.081 C 
ATOM     20  C   UNL     1     -10.743  -9.220  13.484  0.00  0.00    +0.020 C 
ENDBRANCH   6  17
BRANCH   6  18
ATOM     18  C   UNL     1      -9.617  -8.205  15.760  0.00  0.00    +0.081 C 
ATOM     21  C   UNL     1     -10.120  -7.908  17.163  0.00  0.00    +0.020 C 
ENDBRANCH   6  18
ENDBRANCH  14   6
ENDBRANCH  11  14
ENDBRANCH   7  11
BRANCH   8  13
ATOM     13  C   UNL     1      -4.351 -10.688  15.706  0.00  0.00    +0.124 C 
BRANCH  13  16
ATOM      3  O   UNL     1      -2.037 -10.550  16.460  0.00  0.00    -0.251 OA
ATOM     16  C   UNL     1      -2.932 -11.153  15.888  0.00  0.00    +0.305 C 
BRANCH  16   2
ATOM      2  O   UNL     1      -2.772 -12.372  15.310  0.00  0.00    -0.481 OA
ATOM     28  H   UNL     1      -1.922 -12.789  15.566  0.00  0.00    +0.295 HD
ENDBRANCH  16   2
ENDBRANCH  13  16
ENDBRANCH   8  13
TORSDOF 10
ENDMDL
MODEL 8
REMARK VINA RESULT:      -4.8     20.346     23.354
REMARK  Name = 38026421
REMARK  13 active torsions:
REMARK  status: ('A' for Active; 'I' for Inactive)
REMARK    1  A    between atoms: O_2  and  C_16
REMARK    2  A    between atoms: O_4  and  C_26
REMARK    3  A    between atoms: O_4  and  C_27
REMARK    4  A    between atoms: N_6  and  C_14
REMARK    5  A    between atoms: N_6  and  C_17
REMARK    6  A    between atoms: N_6  and  C_18
REMARK    7  A    between atoms: C_7  and  C_11
REMARK    8  A    between atoms: C_8  and  C_13
REMARK    9  A    between atoms: C_11  and  C_14
REMARK   10  A    between atoms: C_13  and  C_16
REMARK   11  A    between atoms: C_15  and  C_19
REMARK   12  A    between atoms: C_17  and  C_20
REMARK   13  A    between atoms: C_18  and  C_21
REMARK                            x       y       z     vdW  Elec       q    Type
REMARK                         _______ _______ _______ _____ _____    ______ ____
ROOT
ATOM      1  O   UNL     1       6.162 -11.945  33.388  0.00  0.00    -0.270 OA
ATOM      5  N   UNL     1       6.483  -9.722  32.732  0.00  0.00    -0.297 N 
ATOM      7  C   UNL     1       7.940  -7.714  32.579  0.00  0.00    +0.011 C 
ATOM      8  C   UNL     1       7.139  -7.093  33.751  0.00  0.00    +0.006 C 
ATOM      9  C   UNL     1       6.517  -8.175  34.649  0.00  0.00    +0.023 C 
ATOM     10  C   UNL     1       7.059  -8.724  31.820  0.00  0.00    +0.112 C 
ATOM     12  C   UNL     1       5.695  -9.167  33.831  0.00  0.00    +0.108 C 
ATOM     15  C   UNL     1       6.637 -11.106  32.624  0.00  0.00    +0.247 C 
ENDROOT
BRANCH  15  19
ATOM     19  C   UNL     1       7.435 -11.627  31.508  0.00  0.00    +0.037 A 
ATOM     22  C   UNL     1       8.798 -11.869  31.679  0.00  0.00    +0.016 A 
ATOM     23  C   UNL     1       6.831 -11.876  30.276  0.00  0.00    +0.016 A 
ATOM     24  C   UNL     1       9.557 -12.362  30.618  0.00  0.00    +0.046 A 
ATOM     25  C   UNL     1       7.591 -12.369  29.214  0.00  0.00    +0.046 A 
ATOM     26  C   UNL     1       8.953 -12.611  29.385  0.00  0.00    +0.120 A 
BRANCH  26   4
ATOM      4  O   UNL     1       9.694 -13.093  28.350  0.00  0.00    -0.495 OA
ATOM     27  C   UNL     1      10.839 -12.335  27.963  0.00  0.00    +0.277 C 
ENDBRANCH  26   4
ENDBRANCH  15  19
BRANCH   7  11
ATOM     11  C   UNL     1       9.258  -8.373  33.005  0.00  0.00    +0.020 C 
BRANCH  11  14
ATOM     14  C   UNL     1      10.417  -7.865  32.160  0.00  0.00    +0.084 C 
BRANCH  14   6
ATOM      6  N   UNL     1      11.083  -6.763  32.843  0.00  0.00    -0.303 NA
BRANCH   6  17
ATOM     17  C   UNL     1      12.178  -6.236  32.027  0.00  0.00    +0.081 C 
ATOM     20  C   UNL     1      12.115  -6.778  30.609  0.00  0.00    +0.020 C 
ENDBRANCH   6  17
BRANCH   6  18
ATOM     18  C   UNL     1      11.585  -7.194  34.149  0.00  0.00    +0.081 C 
ATOM     21  C   UNL     1      11.645  -6.031  35.125  0.00  0.00    +0.020 C 
ENDBRANCH   6  18
ENDBRANCH  14   6
ENDBRANCH  11  14
ENDBRANCH   7  11
BRANCH   8  13
ATOM     13  C   UNL     1       7.961  -6.109  34.585  0.00  0.00    +0.124 C 
BRANCH  13  16
ATOM      3  O   UNL     1       9.068  -4.166  33.613  0.00  0.00    -0.251 OA
ATOM     16  C   UNL     1       8.047  -4.760  33.924  0.00  0.00    +0.305 C 
BRANCH  16   2
ATOM      2  O   UNL     1       6.796  -4.273  33.713  0.00  0.00    -0.481 OA
ATOM     28  H   UNL     1       6.812  -3.435  33.205  0.00  0.00    +0.295 HD
ENDBRANCH  16   2
ENDBRANCH  13  16
ENDBRANCH   8  13
TORSDOF 10
ENDMDL
MODEL 9
REMARK VINA RESULT:      -4.7     25.131     28.131
REMARK  Name = 38026421
REMARK  13 active torsions:
REMARK  status: ('A' for Active; 'I' for Inactive)
REMARK    1  A    between atoms: O_2  and  C_16
REMARK    2  A    between atoms: O_4  and  C_26
REMARK    3  A    between atoms: O_4  and  C_27
REMARK    4  A    between atoms: N_6  and  C_14
REMARK    5  A    between atoms: N_6  and  C_17
REMARK    6  A    between atoms: N_6  and  C_18
REMARK    7  A    between atoms: C_7  and  C_11
REMARK    8  A    between atoms: C_8  and  C_13
REMARK    9  A    between atoms: C_11  and  C_14
REMARK   10  A    between atoms: C_13  and  C_16
REMARK   11  A    between atoms: C_15  and  C_19
REMARK   12  A    between atoms: C_17  and  C_20
REMARK   13  A    between atoms: C_18  and  C_21
REMARK                            x       y       z     vdW  Elec       q    Type
REMARK                         _______ _______ _______ _____ _____    ______ ____
ROOT
ATOM      1  O   UNL     1       9.793   3.953   0.600  0.00  0.00    -0.270 OA
ATOM      5  N   UNL     1      12.115   3.949   0.888  0.00  0.00    -0.297 N 
ATOM      7  C   UNL     1      14.295   5.139   0.798  0.00  0.00    +0.011 C 
ATOM      8  C   UNL     1      14.609   4.382  -0.517  0.00  0.00    +0.006 C 
ATOM      9  C   UNL     1      13.324   3.977  -1.259  0.00  0.00    +0.023 C 
ATOM     10  C   UNL     1      13.314   4.318   1.654  0.00  0.00    +0.112 C 
ATOM     12  C   UNL     1      12.377   3.206  -0.343  0.00  0.00    +0.108 C 
ATOM     15  C   UNL     1      10.798   4.255   1.241  0.00  0.00    +0.247 C 
ENDROOT
BRANCH  15  19
ATOM     19  C   UNL     1      10.573   5.002   2.484  0.00  0.00    +0.037 A 
ATOM     22  C   UNL     1      10.393   6.385   2.442  0.00  0.00    +0.016 A 
ATOM     23  C   UNL     1      10.543   4.331   3.706  0.00  0.00    +0.016 A 
ATOM     24  C   UNL     1      10.181   7.096   3.623  0.00  0.00    +0.046 A 
ATOM     25  C   UNL     1      10.331   5.042   4.887  0.00  0.00    +0.046 A 
ATOM     26  C   UNL     1      10.150   6.424   4.846  0.00  0.00    +0.120 A 
BRANCH  26   4
ATOM      4  O   UNL     1       9.943   7.119   5.998  0.00  0.00    -0.495 OA
ATOM     27  C   UNL     1      10.443   6.542   7.203  0.00  0.00    +0.277 C 
ENDBRANCH  26   4
ENDBRANCH  15  19
BRANCH   7  11
ATOM     11  C   UNL     1      13.755   6.559   0.586  0.00  0.00    +0.020 C 
BRANCH  11  14
ATOM     14  C   UNL     1      13.986   7.418   1.821  0.00  0.00    +0.084 C 
BRANCH  14   6
ATOM      6  N   UNL     1      15.329   7.188   2.340  0.00  0.00    -0.303 NA
BRANCH   6  17
ATOM     17  C   UNL     1      15.310   7.107   3.802  0.00  0.00    +0.081 C 
ATOM     20  C   UNL     1      13.909   7.328   4.345  0.00  0.00    +0.020 C 
ENDBRANCH   6  17
BRANCH   6  18
ATOM     18  C   UNL     1      16.239   8.248   1.902  0.00  0.00    +0.081 C 
ATOM     21  C   UNL     1      17.303   7.703   0.963  0.00  0.00    +0.020 C 
ENDBRANCH   6  18
ENDBRANCH  14   6
ENDBRANCH  11  14
ENDBRANCH   7  11
BRANCH   8  13
ATOM     13  C   UNL     1      15.546   5.156  -1.446  0.00  0.00    +0.124 C 
BRANCH  13  16
ATOM      3  O   UNL     1      17.960   5.242  -1.771  0.00  0.00    -0.251 OA
ATOM     16  C   UNL     1      16.972   4.704  -1.295  0.00  0.00    +0.305 C 
BRANCH  16   2
ATOM      2  O   UNL     1      17.018   3.578  -0.536  0.00  0.00    -0.481 OA
ATOM     28  H   UNL     1      16.239   3.503   0.054  0.00  0.00    +0.295 HD
ENDBRANCH  16   2
ENDBRANCH  13  16
ENDBRANCH   8  13
TORSDOF 10
ENDMDL
MODEL 10
REMARK VINA RESULT:      -4.7     27.618     29.679
REMARK  Name = 38026421
REMARK  13 active torsions:
REMARK  status: ('A' for Active; 'I' for Inactive)
REMARK    1  A    between atoms: O_2  and  C_16
REMARK    2  A    between atoms: O_4  and  C_26
REMARK    3  A    between atoms: O_4  and  C_27
REMARK    4  A    between atoms: N_6  and  C_14
REMARK    5  A    between atoms: N_6  and  C_17
REMARK    6  A    between atoms: N_6  and  C_18
REMARK    7  A    between atoms: C_7  and  C_11
REMARK    8  A    between atoms: C_8  and  C_13
REMARK    9  A    between atoms: C_11  and  C_14
REMARK   10  A    between atoms: C_13  and  C_16
REMARK   11  A    between atoms: C_15  and  C_19
REMARK   12  A    between atoms: C_17  and  C_20
REMARK   13  A    between atoms: C_18  and  C_21
REMARK                            x       y       z     vdW  Elec       q    Type
REMARK                         _______ _______ _______ _____ _____    ______ ____
ROOT
ATOM      1  O   UNL     1      14.633  -9.050  -4.802  0.00  0.00    -0.270 OA
ATOM      5  N   UNL     1      15.924  -7.108  -4.987  0.00  0.00    -0.297 N 
ATOM      7  C   UNL     1      17.431  -5.421  -3.955  0.00  0.00    +0.011 C 
ATOM      8  C   UNL     1      16.233  -4.438  -3.909  0.00  0.00    +0.006 C 
ATOM      9  C   UNL     1      14.890  -5.184  -3.846  0.00  0.00    +0.023 C 
ATOM     10  C   UNL     1      17.229  -6.439  -5.092  0.00  0.00    +0.112 C 
ATOM     12  C   UNL     1      14.773  -6.207  -4.973  0.00  0.00    +0.108 C 
ATOM     15  C   UNL     1      15.722  -8.487  -4.897  0.00  0.00    +0.247 C 
ENDROOT
BRANCH  15  19
ATOM     19  C   UNL     1      16.902  -9.360  -4.913  0.00  0.00    +0.037 A 
ATOM     22  C   UNL     1      17.321  -9.942  -6.110  0.00  0.00    +0.016 A 
ATOM     23  C   UNL     1      17.602  -9.609  -3.733  0.00  0.00    +0.016 A 
ATOM     24  C   UNL     1      18.441 -10.772  -6.125  0.00  0.00    +0.046 A 
ATOM     25  C   UNL     1      18.722 -10.440  -3.749  0.00  0.00    +0.046 A 
ATOM     26  C   UNL     1      19.141 -11.022  -4.945  0.00  0.00    +0.120 A 
BRANCH  26   4
ATOM      4  O   UNL     1      20.235 -11.833  -4.961  0.00  0.00    -0.495 OA
ATOM     27  C   UNL     1      20.128 -13.053  -5.691  0.00  0.00    +0.277 C 
ENDBRANCH  26   4
ENDBRANCH  15  19
BRANCH   7  11
ATOM     11  C   UNL     1      17.691  -6.149  -2.629  0.00  0.00    +0.020 C 
BRANCH  11  14
ATOM     14  C   UNL     1      19.149  -6.014  -2.213  0.00  0.00    +0.084 C 
BRANCH  14   6
ATOM      6  N   UNL     1      19.337  -4.776  -1.466  0.00  0.00    -0.303 NA
BRANCH   6  17
ATOM     17  C   UNL     1      20.652  -4.197  -1.752  0.00  0.00    +0.081 C 
ATOM     20  C   UNL     1      20.847  -3.989  -3.244  0.00  0.00    +0.020 C 
ENDBRANCH   6  17
BRANCH   6  18
ATOM     18  C   UNL     1      19.189  -5.014  -0.029  0.00  0.00    +0.081 C 
ATOM     21  C   UNL     1      20.539  -5.025   0.668  0.00  0.00    +0.020 C 
ENDBRANCH   6  18
ENDBRANCH  14   6
ENDBRANCH  11  14
ENDBRANCH   7  11
BRANCH   8  13
ATOM     13  C   UNL     1      16.337  -3.419  -2.774  0.00  0.00    +0.124 C 
BRANCH  13  16
ATOM      3  O   UNL     1      17.713  -1.956  -4.156  0.00  0.00    -0.251 OA
ATOM     16  C   UNL     1      17.385  -2.378  -3.058  0.00  0.00    +0.305 C 
BRANCH  16   2
ATOM      2  O   UNL     1      17.938  -1.955  -1.891  0.00  0.00    -0.481 OA
ATOM     28  H   UNL     1      18.798  -2.391  -1.715  0.00  0.00    +0.295 HD
ENDBRANCH  16   2
ENDBRANCH  13  16
ENDBRANCH   8  13
TORSDOF 10
ENDMDL
