MODEL 1
REMARK VINA RESULT:      -6.2      0.000      0.000
REMARK  Name = 28960258
REMARK  10 active torsions:
REMARK  status: ('A' for Active; 'I' for Inactive)
REMARK    1  A    between atoms: O_3  and  C_11
REMARK    2  A    between atoms: O_4  and  C_27
REMARK    3  A    between atoms: O_4  and  C_32
REMARK    4  A    between atoms: N_5  and  C_8
REMARK    5  A    between atoms: N_5  and  C_14
REMARK    6  A    between atoms: N_5  and  C_15
REMARK    7  A    between atoms: N_6  and  C_13
REMARK    8  A    between atoms: N_7  and  C_26
REMARK    9  A    between atoms: C_9  and  C_14
REMARK   10  A    between atoms: C_10  and  C_15
REMARK                            x       y       z     vdW  Elec       q    Type
REMARK                         _______ _______ _______ _____ _____    ______ ____
ROOT
ATOM      1  O   UNL     1      12.405   7.608  22.088  0.00  0.00    -0.343 OA
ATOM      2  O   UNL     1      11.380   7.038  20.078  0.00  0.00    -0.347 OA
ATOM      8  C   UNL     1      12.595   9.690  20.859  0.00  0.00    +0.118 C 
ATOM     11  C   UNL     1      13.930   9.004  20.493  0.00  0.00    +0.156 C 
ATOM     12  C   UNL     1      11.653   8.746  21.642  0.00  0.00    +0.167 C 
ATOM     13  C   UNL     1      13.723   7.538  20.058  0.00  0.00    +0.143 C 
ATOM     20  C   UNL     1      12.581   6.888  20.857  0.00  0.00    +0.270 C 
ATOM     21  C   UNL     1      10.637   8.063  20.745  0.00  0.00    +0.196 C 
ENDROOT
BRANCH  13   6
ATOM      6  N   UNL     1      14.975   6.800  20.259  0.00  0.00    -0.290 NA
ATOM      7  N   UNL     1      17.807   6.470  20.433  0.00  0.00    -0.325 N 
ATOM     22  C   UNL     1      15.719   7.349  21.400  0.00  0.00    +0.104 C 
ATOM     23  C   UNL     1      15.805   6.856  19.049  0.00  0.00    +0.104 C 
ATOM     24  C   UNL     1      17.001   6.553  21.655  0.00  0.00    +0.120 C 
ATOM     25  C   UNL     1      17.090   6.042  19.227  0.00  0.00    +0.120 C 
BRANCH   7  26
ATOM     26  C   UNL     1      19.174   6.184  20.522  0.00  0.00    +0.072 A 
ATOM     27  C   UNL     1      20.089   7.182  20.856  0.00  0.00    +0.141 A 
ATOM     28  C   UNL     1      19.619   4.885  20.273  0.00  0.00    +0.027 A 
ATOM     29  C   UNL     1      21.449   6.881  20.943  0.00  0.00    +0.047 A 
ATOM     30  C   UNL     1      20.978   4.584  20.359  0.00  0.00    +0.002 A 
ATOM     31  C   UNL     1      21.893   5.582  20.693  0.00  0.00    +0.004 A 
BRANCH  27   4
ATOM      4  O   UNL     1      19.676   8.456  21.104  0.00  0.00    -0.493 OA
ATOM     32  C   UNL     1      19.734   8.906  22.456  0.00  0.00    +0.277 C 
ENDBRANCH  27   4
ENDBRANCH   7  26
ENDBRANCH  13   6
BRANCH  11   3
ATOM      3  O   UNL     1      14.564   9.709  19.425  0.00  0.00    -0.388 OA
ATOM     33  H   UNL     1      13.887  10.241  18.972  0.00  0.00    +0.210 HD
ENDBRANCH  11   3
BRANCH   8   5
ATOM      5  N   UNL     1      12.892  10.865  21.690  0.00  0.00    -0.294 NA
BRANCH   5  14
ATOM     14  C   UNL     1      13.937  10.547  22.661  0.00  0.00    +0.088 C 
BRANCH  14   9
ATOM      9  C   UNL     1      14.906  11.676  22.806  0.00  0.00    +0.003 C 
ATOM     16  C   UNL     1      16.335  11.472  22.402  0.00  0.00    +0.005 C 
ATOM     17  C   UNL     1      15.439  12.346  21.574  0.00  0.00    +0.005 C 
ENDBRANCH  14   9
ENDBRANCH   5  14
BRANCH   5  15
ATOM     15  C   UNL     1      11.684  11.326  22.366  0.00  0.00    +0.088 C 
BRANCH  15  10
ATOM     10  C   UNL     1      11.205  12.624  21.801  0.00  0.00    +0.003 C 
ATOM     18  C   UNL     1      11.980  13.271  20.691  0.00  0.00    +0.005 C 
ATOM     19  C   UNL     1      11.993  13.873  22.066  0.00  0.00    +0.005 C 
ENDBRANCH  15  10
ENDBRANCH   5  15
ENDBRANCH   8   5
TORSDOF 9
ENDMDL
MODEL 2
REMARK VINA RESULT:      -5.8     17.410     19.608
REMARK  Name = 28960258
REMARK  10 active torsions:
REMARK  status: ('A' for Active; 'I' for Inactive)
REMARK    1  A    between atoms: O_3  and  C_11
REMARK    2  A    between atoms: O_4  and  C_27
REMARK    3  A    between atoms: O_4  and  C_32
REMARK    4  A    between atoms: N_5  and  C_8
REMARK    5  A    between atoms: N_5  and  C_14
REMARK    6  A    between atoms: N_5  and  C_15
REMARK    7  A    between atoms: N_6  and  C_13
REMARK    8  A    between atoms: N_7  and  C_26
REMARK    9  A    between atoms: C_9  and  C_14
REMARK   10  A    between atoms: C_10  and  C_15
REMARK                            x       y       z     vdW  Elec       q    Type
REMARK                         _______ _______ _______ _____ _____    ______ ____
ROOT
ATOM      1  O   UNL     1      11.944   8.391   4.555  0.00  0.00    -0.343 OA
ATOM      2  O   UNL     1      13.966   7.242   4.434  0.00  0.00    -0.347 OA
ATOM      8  C   UNL     1      11.618   6.687   6.251  0.00  0.00    +0.118 C 
ATOM     11  C   UNL     1      11.026   5.988   5.007  0.00  0.00    +0.156 C 
ATOM     12  C   UNL     1      12.318   8.019   5.890  0.00  0.00    +0.167 C 
ATOM     13  C   UNL     1      11.964   6.094   3.786  0.00  0.00    +0.143 C 
ATOM     20  C   UNL     1      12.699   7.445   3.779  0.00  0.00    +0.270 C 
ATOM     21  C   UNL     1      13.817   7.859   5.716  0.00  0.00    +0.196 C 
ENDROOT
BRANCH  13   6
ATOM      6  N   UNL     1      11.172   5.934   2.561  0.00  0.00    -0.290 NA
ATOM      7  N   UNL     1      10.675   5.135  -0.135  0.00  0.00    -0.325 N 
ATOM     22  C   UNL     1      11.031   4.514   2.221  0.00  0.00    +0.104 C 
ATOM     23  C   UNL     1      11.799   6.655   1.446  0.00  0.00    +0.104 C 
ATOM     24  C   UNL     1      10.160   4.330   0.976  0.00  0.00    +0.120 C 
ATOM     25  C   UNL     1      10.952   6.543   0.176  0.00  0.00    +0.120 C 
BRANCH   7  26
ATOM     26  C   UNL     1      10.323   4.810  -1.450  0.00  0.00    +0.072 A 
ATOM     27  C   UNL     1      11.081   3.898  -2.184  0.00  0.00    +0.141 A 
ATOM     28  C   UNL     1       9.200   5.406  -2.026  0.00  0.00    +0.027 A 
ATOM     29  C   UNL     1      10.717   3.582  -3.493  0.00  0.00    +0.047 A 
ATOM     30  C   UNL     1       8.836   5.090  -3.334  0.00  0.00    +0.002 A 
ATOM     31  C   UNL     1       9.595   4.178  -4.068  0.00  0.00    +0.004 A 
BRANCH  27   4
ATOM      4  O   UNL     1      12.181   3.305  -1.640  0.00  0.00    -0.493 OA
ATOM     32  C   UNL     1      13.452   3.836  -2.008  0.00  0.00    +0.277 C 
ENDBRANCH  27   4
ENDBRANCH   7  26
ENDBRANCH  13   6
BRANCH  11   3
ATOM      3  O   UNL     1      10.800   4.606   5.286  0.00  0.00    -0.388 OA
ATOM     33  H   UNL     1      11.114   4.425   6.188  0.00  0.00    +0.210 HD
ENDBRANCH  11   3
BRANCH   8   5
ATOM      5  N   UNL     1      10.522   6.963   7.191  0.00  0.00    -0.294 NA
BRANCH   5  14
ATOM     14  C   UNL     1      10.467   8.390   7.500  0.00  0.00    +0.088 C 
BRANCH  14   9
ATOM      9  C   UNL     1       9.107   8.951   7.236  0.00  0.00    +0.003 C 
ATOM     16  C   UNL     1       8.943  10.013   6.190  0.00  0.00    +0.005 C 
ATOM     17  C   UNL     1       8.421   8.628   5.942  0.00  0.00    +0.005 C 
ENDBRANCH  14   9
ENDBRANCH   5  14
BRANCH   5  15
ATOM     15  C   UNL     1      10.691   6.178   8.410  0.00  0.00    +0.088 C 
BRANCH  15  10
ATOM     10  C   UNL     1       9.446   5.423   8.748  0.00  0.00    +0.003 C 
ATOM     18  C   UNL     1       9.382   4.653  10.033  0.00  0.00    +0.005 C 
ATOM     19  C   UNL     1       9.470   3.923   8.725  0.00  0.00    +0.005 C 
ENDBRANCH  15  10
ENDBRANCH   5  15
ENDBRANCH   8   5
TORSDOF 9
ENDMDL
MODEL 3
REMARK VINA RESULT:      -5.7     29.084     32.303
REMARK  Name = 28960258
REMARK  10 active torsions:
REMARK  status: ('A' for Active; 'I' for Inactive)
REMARK    1  A    between atoms: O_3  and  C_11
REMARK    2  A    between atoms: O_4  and  C_27
REMARK    3  A    between atoms: O_4  and  C_32
REMARK    4  A    between atoms: N_5  and  C_8
REMARK    5  A    between atoms: N_5  and  C_14
REMARK    6  A    between atoms: N_5  and  C_15
REMARK    7  A    between atoms: N_6  and  C_13
REMARK    8  A    between atoms: N_7  and  C_26
REMARK    9  A    between atoms: C_9  and  C_14
REMARK   10  A    between atoms: C_10  and  C_15
REMARK                            x       y       z     vdW  Elec       q    Type
REMARK                         _______ _______ _______ _____ _____    ______ ____
ROOT
ATOM      1  O   UNL     1      -9.534 -11.224  15.318  0.00  0.00    -0.343 OA
ATOM      2  O   UNL     1     -11.353 -11.561  16.730  0.00  0.00    -0.347 OA
ATOM      8  C   UNL     1      -8.590 -10.586  17.459  0.00  0.00    +0.118 C 
ATOM     11  C   UNL     1      -9.109  -9.225  16.944  0.00  0.00    +0.156 C 
ATOM     12  C   UNL     1      -9.036 -11.758  16.554  0.00  0.00    +0.167 C 
ATOM     13  C   UNL     1     -10.557  -9.323  16.417  0.00  0.00    +0.143 C 
ATOM     20  C   UNL     1     -10.797 -10.681  15.736  0.00  0.00    +0.270 C 
ATOM     21  C   UNL     1     -10.285 -12.448  17.071  0.00  0.00    +0.196 C 
ENDROOT
BRANCH  13   6
ATOM      6  N   UNL     1     -10.796  -8.226  15.473  0.00  0.00    -0.290 NA
ATOM      7  N   UNL     1     -12.334  -6.220  14.143  0.00  0.00    -0.325 N 
ATOM     22  C   UNL     1     -11.213  -7.013  16.188  0.00  0.00    +0.104 C 
ATOM     23  C   UNL     1     -11.821  -8.605  14.492  0.00  0.00    +0.104 C 
ATOM     24  C   UNL     1     -11.412  -5.845  15.219  0.00  0.00    +0.120 C 
ATOM     25  C   UNL     1     -12.038  -7.489  13.467  0.00  0.00    +0.120 C 
BRANCH   7  26
ATOM     26  C   UNL     1     -12.989  -5.223  13.412  0.00  0.00    +0.072 A 
ATOM     27  C   UNL     1     -14.373  -5.071  13.500  0.00  0.00    +0.141 A 
ATOM     28  C   UNL     1     -12.246  -4.375  12.590  0.00  0.00    +0.027 A 
ATOM     29  C   UNL     1     -15.014  -4.071  12.766  0.00  0.00    +0.047 A 
ATOM     30  C   UNL     1     -12.886  -3.377  11.857  0.00  0.00    +0.002 A 
ATOM     31  C   UNL     1     -14.269  -3.225  11.944  0.00  0.00    +0.004 A 
BRANCH  27   4
ATOM      4  O   UNL     1     -15.118  -5.888  14.297  0.00  0.00    -0.493 OA
ATOM     32  C   UNL     1     -16.107  -6.691  13.657  0.00  0.00    +0.277 C 
ENDBRANCH  27   4
ENDBRANCH   7  26
ENDBRANCH  13   6
BRANCH  11   3
ATOM      3  O   UNL     1      -9.075  -8.259  17.996  0.00  0.00    -0.388 OA
ATOM     33  H   UNL     1      -9.258  -8.719  18.833  0.00  0.00    +0.210 HD
ENDBRANCH  11   3
BRANCH   8   5
ATOM      5  N   UNL     1      -7.121 -10.538  17.490  0.00  0.00    -0.294 NA
BRANCH   5  14
ATOM     14  C   UNL     1      -6.651 -10.304  18.853  0.00  0.00    +0.088 C 
BRANCH  14   9
ATOM      9  C   UNL     1      -5.906 -11.487  19.381  0.00  0.00    +0.003 C 
ATOM     16  C   UNL     1      -5.578 -12.620  18.454  0.00  0.00    +0.005 C 
ATOM     17  C   UNL     1      -4.488 -11.713  18.946  0.00  0.00    +0.005 C 
ENDBRANCH  14   9
ENDBRANCH   5  14
BRANCH   5  15
ATOM     15  C   UNL     1      -6.630  -9.499  16.590  0.00  0.00    +0.088 C 
BRANCH  15  10
ATOM     10  C   UNL     1      -5.544 -10.017  15.702  0.00  0.00    +0.003 C 
ATOM     18  C   UNL     1      -5.768 -10.062  14.220  0.00  0.00    +0.005 C 
ATOM     19  C   UNL     1      -5.730 -11.336  15.012  0.00  0.00    +0.005 C 
ENDBRANCH  15  10
ENDBRANCH   5  15
ENDBRANCH   8   5
TORSDOF 9
ENDMDL
MODEL 4
REMARK VINA RESULT:      -5.6     17.592     19.754
REMARK  Name = 28960258
REMARK  10 active torsions:
REMARK  status: ('A' for Active; 'I' for Inactive)
REMARK    1  A    between atoms: O_3  and  C_11
REMARK    2  A    between atoms: O_4  and  C_27
REMARK    3  A    between atoms: O_4  and  C_32
REMARK    4  A    between atoms: N_5  and  C_8
REMARK    5  A    between atoms: N_5  and  C_14
REMARK    6  A    between atoms: N_5  and  C_15
REMARK    7  A    between atoms: N_6  and  C_13
REMARK    8  A    between atoms: N_7  and  C_26
REMARK    9  A    between atoms: C_9  and  C_14
REMARK   10  A    between atoms: C_10  and  C_15
REMARK                            x       y       z     vdW  Elec       q    Type
REMARK                         _______ _______ _______ _____ _____    ______ ____
ROOT
ATOM      1  O   UNL     1      11.928   8.315   4.372  0.00  0.00    -0.343 OA
ATOM      2  O   UNL     1      13.902   7.088   4.253  0.00  0.00    -0.347 OA
ATOM      8  C   UNL     1      11.566   6.675   6.121  0.00  0.00    +0.118 C 
ATOM     11  C   UNL     1      10.927   5.963   4.908  0.00  0.00    +0.156 C 
ATOM     12  C   UNL     1      12.309   7.968   5.711  0.00  0.00    +0.167 C 
ATOM     13  C   UNL     1      11.848   5.999   3.670  0.00  0.00    +0.143 C 
ATOM     20  C   UNL     1      12.633   7.320   3.612  0.00  0.00    +0.270 C 
ATOM     21  C   UNL     1      13.798   7.746   5.518  0.00  0.00    +0.196 C 
ENDROOT
BRANCH  13   6
ATOM      6  N   UNL     1      11.030   5.834   2.463  0.00  0.00    -0.290 NA
ATOM      7  N   UNL     1      10.495   5.084  -0.241  0.00  0.00    -0.325 N 
ATOM     22  C   UNL     1      10.945   4.418   2.087  0.00  0.00    +0.104 C 
ATOM     23  C   UNL     1      11.592   6.613   1.351  0.00  0.00    +0.104 C 
ATOM     24  C   UNL     1      10.049   4.227   0.861  0.00  0.00    +0.120 C 
ATOM     25  C   UNL     1      10.716   6.495   0.101  0.00  0.00    +0.120 C 
BRANCH   7  26
ATOM     26  C   UNL     1      10.121   4.777  -1.554  0.00  0.00    +0.072 A 
ATOM     27  C   UNL     1      10.809   3.804  -2.279  0.00  0.00    +0.141 A 
ATOM     28  C   UNL     1       9.050   5.455  -2.137  0.00  0.00    +0.027 A 
ATOM     29  C   UNL     1      10.424   3.507  -3.587  0.00  0.00    +0.047 A 
ATOM     30  C   UNL     1       8.666   5.158  -3.445  0.00  0.00    +0.002 A 
ATOM     31  C   UNL     1       9.353   4.185  -4.170  0.00  0.00    +0.004 A 
BRANCH  27   4
ATOM      4  O   UNL     1      11.857   3.132  -1.728  0.00  0.00    -0.493 OA
ATOM     32  C   UNL     1      13.167   3.584  -2.067  0.00  0.00    +0.277 C 
ENDBRANCH  27   4
ENDBRANCH   7  26
ENDBRANCH  13   6
BRANCH  11   3
ATOM      3  O   UNL     1      10.654   4.599   5.230  0.00  0.00    -0.388 OA
ATOM     33  H   UNL     1      11.469   4.088   5.089  0.00  0.00    +0.210 HD
ENDBRANCH  11   3
BRANCH   8   5
ATOM      5  N   UNL     1      10.497   7.019   7.070  0.00  0.00    -0.294 NA
BRANCH   5  14
ATOM     14  C   UNL     1      10.632   6.231   8.293  0.00  0.00    +0.088 C 
BRANCH  14   9
ATOM      9  C   UNL     1       9.399   5.432   8.564  0.00  0.00    +0.003 C 
ATOM     16  C   UNL     1       9.515   3.949   8.761  0.00  0.00    +0.005 C 
ATOM     17  C   UNL     1       9.196   4.839   9.927  0.00  0.00    +0.005 C 
ENDBRANCH  14   9
ENDBRANCH   5  14
BRANCH   5  15
ATOM     15  C   UNL     1       9.189   6.802   6.459  0.00  0.00    +0.088 C 
BRANCH  15  10
ATOM     10  C   UNL     1       8.366   8.049   6.477  0.00  0.00    +0.003 C 
ATOM     18  C   UNL     1       8.460   9.006   5.326  0.00  0.00    +0.005 C 
ATOM     19  C   UNL     1       9.048   9.374   6.657  0.00  0.00    +0.005 C 
ENDBRANCH  15  10
ENDBRANCH   5  15
ENDBRANCH   8   5
TORSDOF 9
ENDMDL
MODEL 5
REMARK VINA RESULT:      -5.6     28.731     32.498
REMARK  Name = 28960258
REMARK  10 active torsions:
REMARK  status: ('A' for Active; 'I' for Inactive)
REMARK    1  A    between atoms: O_3  and  C_11
REMARK    2  A    between atoms: O_4  and  C_27
REMARK    3  A    between atoms: O_4  and  C_32
REMARK    4  A    between atoms: N_5  and  C_8
REMARK    5  A    between atoms: N_5  and  C_14
REMARK    6  A    between atoms: N_5  and  C_15
REMARK    7  A    between atoms: N_6  and  C_13
REMARK    8  A    between atoms: N_7  and  C_26
REMARK    9  A    between atoms: C_9  and  C_14
REMARK   10  A    between atoms: C_10  and  C_15
REMARK                            x       y       z     vdW  Elec       q    Type
REMARK                         _______ _______ _______ _____ _____    ______ ____
ROOT
ATOM      1  O   UNL     1     -10.411 -10.946  15.744  0.00  0.00    -0.343 OA
ATOM      2  O   UNL     1     -12.175 -10.793  17.255  0.00  0.00    -0.347 OA
ATOM      8  C   UNL     1      -9.268 -10.120  17.717  0.00  0.00    +0.118 C 
ATOM     11  C   UNL     1      -9.626  -8.798  17.004  0.00  0.00    +0.156 C 
ATOM     12  C   UNL     1      -9.920 -11.344  17.032  0.00  0.00    +0.167 C 
ATOM     13  C   UNL     1     -11.102  -8.770  16.551  0.00  0.00    +0.143 C 
ATOM     20  C   UNL     1     -11.563 -10.169  16.111  0.00  0.00    +0.270 C 
ATOM     21  C   UNL     1     -11.219 -11.759  17.699  0.00  0.00    +0.196 C 
ENDROOT
BRANCH  13   6
ATOM      6  N   UNL     1     -11.244  -7.812  15.449  0.00  0.00    -0.290 NA
ATOM      7  N   UNL     1     -12.617  -5.950  13.775  0.00  0.00    -0.325 N 
ATOM     22  C   UNL     1     -11.621  -6.489  15.962  0.00  0.00    +0.104 C 
ATOM     23  C   UNL     1     -12.249  -8.280  14.487  0.00  0.00    +0.104 C 
ATOM     24  C   UNL     1     -11.719  -5.467  14.827  0.00  0.00    +0.120 C 
ATOM     25  C   UNL     1     -12.366  -7.317  13.303  0.00  0.00    +0.120 C 
BRANCH   7  26
ATOM     26  C   UNL     1     -13.189  -5.040  12.878  0.00  0.00    +0.072 A 
ATOM     27  C   UNL     1     -14.567  -4.830  12.861  0.00  0.00    +0.141 A 
ATOM     28  C   UNL     1     -12.365  -4.338  11.996  0.00  0.00    +0.027 A 
ATOM     29  C   UNL     1     -15.123  -3.918  11.963  0.00  0.00    +0.047 A 
ATOM     30  C   UNL     1     -12.921  -3.427  11.099  0.00  0.00    +0.002 A 
ATOM     31  C   UNL     1     -14.300  -3.217  11.081  0.00  0.00    +0.004 A 
BRANCH  27   4
ATOM      4  O   UNL     1     -15.389  -5.504  13.714  0.00  0.00    -0.493 OA
ATOM     32  C   UNL     1     -16.234  -6.503  13.145  0.00  0.00    +0.277 C 
ENDBRANCH  27   4
ENDBRANCH   7  26
ENDBRANCH  13   6
BRANCH  11   3
ATOM      3  O   UNL     1      -9.401  -7.694  17.881  0.00  0.00    -0.388 OA
ATOM     33  H   UNL     1      -9.743  -6.892  17.450  0.00  0.00    +0.210 HD
ENDBRANCH  11   3
BRANCH   8   5
ATOM      5  N   UNL     1      -7.807 -10.279  17.688  0.00  0.00    -0.294 NA
BRANCH   5  14
ATOM     14  C   UNL     1      -7.279  -9.869  16.388  0.00  0.00    +0.088 C 
BRANCH  14   9
ATOM      9  C   UNL     1      -6.099 -10.697  15.995  0.00  0.00    +0.003 C 
ATOM     16  C   UNL     1      -5.277 -10.285  14.810  0.00  0.00    +0.005 C 
ATOM     17  C   UNL     1      -4.718 -10.146  16.196  0.00  0.00    +0.005 C 
ENDBRANCH  14   9
ENDBRANCH   5  14
BRANCH   5  15
ATOM     15  C   UNL     1      -7.442 -11.662  17.979  0.00  0.00    +0.088 C 
BRANCH  15  10
ATOM     10  C   UNL     1      -6.804 -11.784  19.325  0.00  0.00    +0.003 C 
ATOM     18  C   UNL     1      -6.095 -10.599  19.911  0.00  0.00    +0.005 C 
ATOM     19  C   UNL     1      -5.307 -11.781  19.429  0.00  0.00    +0.005 C 
ENDBRANCH  15  10
ENDBRANCH   5  15
ENDBRANCH   8   5
TORSDOF 9
ENDMDL
MODEL 6
REMARK VINA RESULT:      -5.6      2.238      4.339
REMARK  Name = 28960258
REMARK  10 active torsions:
REMARK  status: ('A' for Active; 'I' for Inactive)
REMARK    1  A    between atoms: O_3  and  C_11
REMARK    2  A    between atoms: O_4  and  C_27
REMARK    3  A    between atoms: O_4  and  C_32
REMARK    4  A    between atoms: N_5  and  C_8
REMARK    5  A    between atoms: N_5  and  C_14
REMARK    6  A    between atoms: N_5  and  C_15
REMARK    7  A    between atoms: N_6  and  C_13
REMARK    8  A    between atoms: N_7  and  C_26
REMARK    9  A    between atoms: C_9  and  C_14
REMARK   10  A    between atoms: C_10  and  C_15
REMARK                            x       y       z     vdW  Elec       q    Type
REMARK                         _______ _______ _______ _____ _____    ______ ____
ROOT
ATOM      1  O   UNL     1      15.773   9.994  19.764  0.00  0.00    -0.343 OA
ATOM      2  O   UNL     1      15.867  10.934  21.891  0.00  0.00    -0.347 OA
ATOM      8  C   UNL     1      14.278   8.529  20.990  0.00  0.00    +0.118 C 
ATOM     11  C   UNL     1      15.621   7.783  21.146  0.00  0.00    +0.156 C 
ATOM     12  C   UNL     1      14.458   9.919  20.334  0.00  0.00    +0.167 C 
ATOM     13  C   UNL     1      16.759   8.731  21.580  0.00  0.00    +0.143 C 
ATOM     20  C   UNL     1      16.584  10.120  20.944  0.00  0.00    +0.270 C 
ATOM     21  C   UNL     1      14.544  11.037  21.357  0.00  0.00    +0.196 C 
ENDROOT
BRANCH  13   6
ATOM      6  N   UNL     1      18.045   8.145  21.187  0.00  0.00    -0.290 NA
ATOM      7  N   UNL     1      20.353   6.488  21.480  0.00  0.00    -0.325 N 
ATOM     22  C   UNL     1      17.932   6.686  21.073  0.00  0.00    +0.104 C 
ATOM     23  C   UNL     1      19.088   8.490  22.161  0.00  0.00    +0.104 C 
ATOM     24  C   UNL     1      19.252   6.066  20.609  0.00  0.00    +0.120 C 
ATOM     25  C   UNL     1      20.446   7.931  21.732  0.00  0.00    +0.120 C 
BRANCH   7  26
ATOM     26  C   UNL     1      21.532   5.735  21.523  0.00  0.00    +0.072 A 
ATOM     27  C   UNL     1      22.012   5.235  22.733  0.00  0.00    +0.141 A 
ATOM     28  C   UNL     1      22.229   5.487  20.339  0.00  0.00    +0.027 A 
ATOM     29  C   UNL     1      23.188   4.484  22.760  0.00  0.00    +0.047 A 
ATOM     30  C   UNL     1      23.404   4.738  20.367  0.00  0.00    +0.002 A 
ATOM     31  C   UNL     1      23.885   4.237  21.577  0.00  0.00    +0.004 A 
BRANCH  27   4
ATOM      4  O   UNL     1      21.347   5.466  23.899  0.00  0.00    -0.493 OA
ATOM     32  C   UNL     1      21.953   6.367  24.823  0.00  0.00    +0.277 C 
ENDBRANCH  27   4
ENDBRANCH   7  26
ENDBRANCH  13   6
BRANCH  11   3
ATOM      3  O   UNL     1      15.495   6.750  22.123  0.00  0.00    -0.388 OA
ATOM     33  H   UNL     1      16.383   6.402  22.310  0.00  0.00    +0.210 HD
ENDBRANCH  11   3
BRANCH   8   5
ATOM      5  N   UNL     1      13.393   7.714  20.145  0.00  0.00    -0.294 NA
BRANCH   5  14
ATOM     14  C   UNL     1      12.709   8.558  19.167  0.00  0.00    +0.088 C 
BRANCH  14   9
ATOM      9  C   UNL     1      12.874   8.026  17.780  0.00  0.00    +0.003 C 
ATOM     16  C   UNL     1      13.698   8.798  16.793  0.00  0.00    +0.005 C 
ATOM     17  C   UNL     1      14.215   7.505  17.352  0.00  0.00    +0.005 C 
ENDBRANCH  14   9
ENDBRANCH   5  14
BRANCH   5  15
ATOM     15  C   UNL     1      12.427   6.994  20.970  0.00  0.00    +0.088 C 
BRANCH  15  10
ATOM     10  C   UNL     1      11.183   7.796  21.176  0.00  0.00    +0.003 C 
ATOM     18  C   UNL     1      11.000   8.547  22.462  0.00  0.00    +0.005 C 
ATOM     19  C   UNL     1      10.170   7.329  22.180  0.00  0.00    +0.005 C 
ENDBRANCH  15  10
ENDBRANCH   5  15
ENDBRANCH   8   5
TORSDOF 9
ENDMDL
MODEL 7
REMARK VINA RESULT:      -5.5     28.371     30.579
REMARK  Name = 28960258
REMARK  10 active torsions:
REMARK  status: ('A' for Active; 'I' for Inactive)
REMARK    1  A    between atoms: O_3  and  C_11
REMARK    2  A    between atoms: O_4  and  C_27
REMARK    3  A    between atoms: O_4  and  C_32
REMARK    4  A    between atoms: N_5  and  C_8
REMARK    5  A    between atoms: N_5  and  C_14
REMARK    6  A    between atoms: N_5  and  C_15
REMARK    7  A    between atoms: N_6  and  C_13
REMARK    8  A    between atoms: N_7  and  C_26
REMARK    9  A    between atoms: C_9  and  C_14
REMARK   10  A    between atoms: C_10  and  C_15
REMARK                            x       y       z     vdW  Elec       q    Type
REMARK                         _______ _______ _______ _____ _____    ______ ____
ROOT
ATOM      1  O   UNL     1      -3.243 -10.280  13.525  0.00  0.00    -0.343 OA
ATOM      2  O   UNL     1      -2.703 -12.323  12.549  0.00  0.00    -0.347 OA
ATOM      8  C   UNL     1      -4.632 -11.796  14.811  0.00  0.00    +0.118 C 
ATOM     11  C   UNL     1      -5.601 -11.392  13.677  0.00  0.00    +0.156 C 
ATOM     12  C   UNL     1      -3.200 -11.265  14.567  0.00  0.00    +0.167 C 
ATOM     13  C   UNL     1      -4.936 -11.493  12.288  0.00  0.00    +0.143 C 
ATOM     20  C   UNL     1      -3.450 -11.105  12.366  0.00  0.00    +0.270 C 
ATOM     21  C   UNL     1      -2.299 -12.302  13.920  0.00  0.00    +0.196 C 
ENDROOT
BRANCH  13   6
ATOM      6  N   UNL     1      -5.647 -10.613  11.354  0.00  0.00    -0.290 NA
ATOM      7  N   UNL     1      -6.465  -9.647   8.794  0.00  0.00    -0.325 N 
ATOM     22  C   UNL     1      -6.587 -11.386  10.533  0.00  0.00    +0.104 C 
ATOM     23  C   UNL     1      -4.695  -9.904  10.489  0.00  0.00    +0.104 C 
ATOM     24  C   UNL     1      -7.375 -10.473   9.592  0.00  0.00    +0.120 C 
ATOM     25  C   UNL     1      -5.422  -8.941   9.547  0.00  0.00    +0.120 C 
BRANCH   7  26
ATOM     26  C   UNL     1      -6.916  -9.073   7.599  0.00  0.00    +0.072 A 
ATOM     27  C   UNL     1      -7.801  -7.995   7.618  0.00  0.00    +0.141 A 
ATOM     28  C   UNL     1      -6.471  -9.589   6.381  0.00  0.00    +0.027 A 
ATOM     29  C   UNL     1      -8.241  -7.432   6.420  0.00  0.00    +0.047 A 
ATOM     30  C   UNL     1      -6.910  -9.026   5.184  0.00  0.00    +0.002 A 
ATOM     31  C   UNL     1      -7.796  -7.948   5.202  0.00  0.00    +0.004 A 
BRANCH  27   4
ATOM      4  O   UNL     1      -8.248  -7.477   8.796  0.00  0.00    -0.493 OA
ATOM     32  C   UNL     1      -9.588  -6.991   8.824  0.00  0.00    +0.277 C 
ENDBRANCH  27   4
ENDBRANCH   7  26
ENDBRANCH  13   6
BRANCH  11   3
ATOM      3  O   UNL     1      -6.750 -12.239  13.692  0.00  0.00    -0.388 OA
ATOM     33  H   UNL     1      -7.541 -11.675  13.644  0.00  0.00    +0.210 HD
ENDBRANCH  11   3
BRANCH   8   5
ATOM      5  N   UNL     1      -5.140 -11.238  16.072  0.00  0.00    -0.294 NA
BRANCH   5  14
ATOM     14  C   UNL     1      -5.638  -9.880  15.861  0.00  0.00    +0.088 C 
BRANCH  14   9
ATOM      9  C   UNL     1      -6.779  -9.572  16.776  0.00  0.00    +0.003 C 
ATOM     16  C   UNL     1      -8.155  -9.408  16.201  0.00  0.00    +0.005 C 
ATOM     17  C   UNL     1      -7.823 -10.620  17.022  0.00  0.00    +0.005 C 
ENDBRANCH  14   9
ENDBRANCH   5  14
BRANCH   5  15
ATOM     15  C   UNL     1      -4.093 -11.251  17.089  0.00  0.00    +0.088 C 
BRANCH  15  10
ATOM     10  C   UNL     1      -4.431 -12.184  18.207  0.00  0.00    +0.003 C 
ATOM     18  C   UNL     1      -5.009 -11.629  19.475  0.00  0.00    +0.005 C 
ATOM     19  C   UNL     1      -3.604 -12.157  19.458  0.00  0.00    +0.005 C 
ENDBRANCH  15  10
ENDBRANCH   5  15
ENDBRANCH   8   5
TORSDOF 9
ENDMDL
MODEL 8
REMARK VINA RESULT:      -5.5     16.088     17.742
REMARK  Name = 28960258
REMARK  10 active torsions:
REMARK  status: ('A' for Active; 'I' for Inactive)
REMARK    1  A    between atoms: O_3  and  C_11
REMARK    2  A    between atoms: O_4  and  C_27
REMARK    3  A    between atoms: O_4  and  C_32
REMARK    4  A    between atoms: N_5  and  C_8
REMARK    5  A    between atoms: N_5  and  C_14
REMARK    6  A    between atoms: N_5  and  C_15
REMARK    7  A    between atoms: N_6  and  C_13
REMARK    8  A    between atoms: N_7  and  C_26
REMARK    9  A    between atoms: C_9  and  C_14
REMARK   10  A    between atoms: C_10  and  C_15
REMARK                            x       y       z     vdW  Elec       q    Type
REMARK                         _______ _______ _______ _____ _____    ______ ____
ROOT
ATOM      1  O   UNL     1      11.031   6.535   7.024  0.00  0.00    -0.343 OA
ATOM      2  O   UNL     1       9.430   4.935   7.570  0.00  0.00    -0.347 OA
ATOM      8  C   UNL     1       9.004   7.867   6.987  0.00  0.00    +0.118 C 
ATOM     11  C   UNL     1       9.097   7.423   5.510  0.00  0.00    +0.156 C 
ATOM     12  C   UNL     1      10.057   7.161   7.873  0.00  0.00    +0.167 C 
ATOM     13  C   UNL     1       9.366   5.908   5.381  0.00  0.00    +0.143 C 
ATOM     20  C   UNL     1      10.282   5.419   6.515  0.00  0.00    +0.270 C 
ATOM     21  C   UNL     1       9.496   5.943   8.583  0.00  0.00    +0.196 C 
ENDROOT
BRANCH  13   6
ATOM      6  N   UNL     1       9.978   5.643   4.075  0.00  0.00    -0.290 NA
ATOM      7  N   UNL     1      12.092   4.976   2.274  0.00  0.00    -0.325 N 
ATOM     22  C   UNL     1      10.505   4.274   4.021  0.00  0.00    +0.104 C 
ATOM     23  C   UNL     1      11.056   6.604   3.807  0.00  0.00    +0.104 C 
ATOM     24  C   UNL     1      11.097   3.966   2.644  0.00  0.00    +0.120 C 
ATOM     25  C   UNL     1      11.666   6.372   2.422  0.00  0.00    +0.120 C 
BRANCH   7  26
ATOM     26  C   UNL     1      13.050   4.681   1.298  0.00  0.00    +0.072 A 
ATOM     27  C   UNL     1      12.739   4.787  -0.058  0.00  0.00    +0.141 A 
ATOM     28  C   UNL     1      14.328   4.279   1.690  0.00  0.00    +0.027 A 
ATOM     29  C   UNL     1      13.705   4.492  -1.021  0.00  0.00    +0.047 A 
ATOM     30  C   UNL     1      15.293   3.984   0.728  0.00  0.00    +0.002 A 
ATOM     31  C   UNL     1      14.981   4.089  -0.628  0.00  0.00    +0.004 A 
BRANCH  27   4
ATOM      4  O   UNL     1      11.498   5.178  -0.462  0.00  0.00    -0.493 OA
ATOM     32  C   UNL     1      10.847   4.364  -1.436  0.00  0.00    +0.277 C 
ENDBRANCH  27   4
ENDBRANCH   7  26
ENDBRANCH  13   6
BRANCH  11   3
ATOM      3  O   UNL     1       7.878   7.726   4.832  0.00  0.00    -0.388 OA
ATOM     33  H   UNL     1       7.994   8.573   4.368  0.00  0.00    +0.210 HD
ENDBRANCH  11   3
BRANCH   8   5
ATOM      5  N   UNL     1       9.227   9.319   7.047  0.00  0.00    -0.294 NA
BRANCH   5  14
ATOM     14  C   UNL     1      10.147   9.734   5.990  0.00  0.00    +0.088 C 
BRANCH  14   9
ATOM      9  C   UNL     1       9.691  10.999   5.338  0.00  0.00    +0.003 C 
ATOM     16  C   UNL     1       9.053  10.936   3.982  0.00  0.00    +0.005 C 
ATOM     17  C   UNL     1       8.221  11.256   5.188  0.00  0.00    +0.005 C 
ENDBRANCH  14   9
ENDBRANCH   5  14
BRANCH   5  15
ATOM     15  C   UNL     1       9.743   9.699   8.358  0.00  0.00    +0.088 C 
BRANCH  15  10
ATOM     10  C   UNL     1       9.261  11.055   8.761  0.00  0.00    +0.003 C 
ATOM     18  C   UNL     1      10.137  11.920   9.619  0.00  0.00    +0.005 C 
ATOM     19  C   UNL     1       8.894  11.305  10.194  0.00  0.00    +0.005 C 
ENDBRANCH  15  10
ENDBRANCH   5  15
ENDBRANCH   8   5
TORSDOF 9
ENDMDL
MODEL 9
REMARK VINA RESULT:      -5.4     26.755     30.306
REMARK  Name = 28960258
REMARK  10 active torsions:
REMARK  status: ('A' for Active; 'I' for Inactive)
REMARK    1  A    between atoms: O_3  and  C_11
REMARK    2  A    between atoms: O_4  and  C_27
REMARK    3  A    between atoms: O_4  and  C_32
REMARK    4  A    between atoms: N_5  and  C_8
REMARK    5  A    between atoms: N_5  and  C_14
REMARK    6  A    between atoms: N_5  and  C_15
REMARK    7  A    between atoms: N_6  and  C_13
REMARK    8  A    between atoms: N_7  and  C_26
REMARK    9  A    between atoms: C_9  and  C_14
REMARK   10  A    between atoms: C_10  and  C_15
REMARK                            x       y       z     vdW  Elec       q    Type
REMARK                         _______ _______ _______ _____ _____    ______ ____
ROOT
ATOM      1  O   UNL     1      -6.901 -10.580  18.190  0.00  0.00    -0.343 OA
ATOM      2  O   UNL     1      -6.787 -12.861  18.638  0.00  0.00    -0.347 OA
ATOM      8  C   UNL     1      -9.242 -11.202  18.060  0.00  0.00    +0.118 C 
ATOM     11  C   UNL     1      -8.808 -11.363  16.586  0.00  0.00    +0.156 C 
ATOM     12  C   UNL     1      -8.039 -10.926  18.993  0.00  0.00    +0.167 C 
ATOM     13  C   UNL     1      -7.496 -12.165  16.458  0.00  0.00    +0.143 C 
ATOM     20  C   UNL     1      -6.552 -11.858  17.632  0.00  0.00    +0.270 C 
ATOM     21  C   UNL     1      -7.523 -12.187  19.662  0.00  0.00    +0.196 C 
ENDROOT
BRANCH  13   6
ATOM      6  N   UNL     1      -6.854 -11.828  15.182  0.00  0.00    -0.290 NA
ATOM      7  N   UNL     1      -4.777 -10.836  13.491  0.00  0.00    -0.325 N 
ATOM     22  C   UNL     1      -5.606 -12.582  15.018  0.00  0.00    +0.104 C 
ATOM     23  C   UNL     1      -6.581 -10.386  15.109  0.00  0.00    +0.104 C 
ATOM     24  C   UNL     1      -4.955 -12.280  13.666  0.00  0.00    +0.120 C 
ATOM     25  C   UNL     1      -5.963 -10.013  13.760  0.00  0.00    +0.120 C 
BRANCH   7  26
ATOM     26  C   UNL     1      -3.842 -10.359  12.566  0.00  0.00    +0.072 A 
ATOM     27  C   UNL     1      -2.475 -10.453  12.825  0.00  0.00    +0.141 A 
ATOM     28  C   UNL     1      -4.288  -9.784  11.375  0.00  0.00    +0.027 A 
ATOM     29  C   UNL     1      -1.553  -9.975  11.892  0.00  0.00    +0.047 A 
ATOM     30  C   UNL     1      -3.367  -9.305  10.444  0.00  0.00    +0.002 A 
ATOM     31  C   UNL     1      -2.000  -9.400  10.702  0.00  0.00    +0.004 A 
BRANCH  27   4
ATOM      4  O   UNL     1      -2.018 -11.011  13.981  0.00  0.00    -0.493 OA
ATOM     32  C   UNL     1      -1.449 -10.128  14.946  0.00  0.00    +0.277 C 
ENDBRANCH  27   4
ENDBRANCH   7  26
ENDBRANCH  13   6
BRANCH  11   3
ATOM      3  O   UNL     1      -9.827 -12.040  15.849  0.00  0.00    -0.388 OA
ATOM     33  H   UNL     1      -9.620 -12.990  15.852  0.00  0.00    +0.210 HD
ENDBRANCH  11   3
BRANCH   8   5
ATOM      5  N   UNL     1     -10.179 -10.072  18.144  0.00  0.00    -0.294 NA
BRANCH   5  14
ATOM     14  C   UNL     1      -9.556  -8.857  17.624  0.00  0.00    +0.088 C 
BRANCH  14   9
ATOM      9  C   UNL     1     -10.351  -8.277  16.499  0.00  0.00    +0.003 C 
ATOM     16  C   UNL     1     -11.832  -8.103  16.661  0.00  0.00    +0.005 C 
ATOM     17  C   UNL     1     -10.932  -6.902  16.647  0.00  0.00    +0.005 C 
ENDBRANCH  14   9
ENDBRANCH   5  14
BRANCH   5  15
ATOM     15  C   UNL     1     -10.616  -9.878  19.523  0.00  0.00    +0.088 C 
BRANCH  15  10
ATOM     10  C   UNL     1     -11.932 -10.539  19.776  0.00  0.00    +0.003 C 
ATOM     18  C   UNL     1     -13.194  -9.844  19.357  0.00  0.00    +0.005 C 
ATOM     19  C   UNL     1     -12.852  -9.966  20.813  0.00  0.00    +0.005 C 
ENDBRANCH  15  10
ENDBRANCH   5  15
ENDBRANCH   8   5
TORSDOF 9
ENDMDL
MODEL 10
REMARK VINA RESULT:      -5.4     26.778     30.714
REMARK  Name = 28960258
REMARK  10 active torsions:
REMARK  status: ('A' for Active; 'I' for Inactive)
REMARK    1  A    between atoms: O_3  and  C_11
REMARK    2  A    between atoms: O_4  and  C_27
REMARK    3  A    between atoms: O_4  and  C_32
REMARK    4  A    between atoms: N_5  and  C_8
REMARK    5  A    between atoms: N_5  and  C_14
REMARK    6  A    between atoms: N_5  and  C_15
REMARK    7  A    between atoms: N_6  and  C_13
REMARK    8  A    between atoms: N_7  and  C_26
REMARK    9  A    between atoms: C_9  and  C_14
REMARK   10  A    between atoms: C_10  and  C_15
REMARK                            x       y       z     vdW  Elec       q    Type
REMARK                         _______ _______ _______ _____ _____    ______ ____
ROOT
ATOM      1  O   UNL     1      -2.800 -12.095  14.922  0.00  0.00    -0.343 OA
ATOM      2  O   UNL     1      -1.895 -10.232  15.984  0.00  0.00    -0.347 OA
ATOM      8  C   UNL     1      -3.871 -10.294  13.701  0.00  0.00    +0.118 C 
ATOM     11  C   UNL     1      -4.908 -10.556  14.816  0.00  0.00    +0.156 C 
ATOM     12  C   UNL     1      -2.565 -11.093  13.922  0.00  0.00    +0.167 C 
ATOM     13  C   UNL     1      -4.246 -10.639  16.208  0.00  0.00    +0.143 C 
ATOM     20  C   UNL     1      -2.858 -11.295  16.114  0.00  0.00    +0.270 C 
ATOM     21  C   UNL     1      -1.492 -10.271  14.612  0.00  0.00    +0.196 C 
ENDROOT
BRANCH  13   6
ATOM      6  N   UNL     1      -5.117 -11.408  17.105  0.00  0.00    -0.290 NA
ATOM      7  N   UNL     1      -7.507 -11.976  18.561  0.00  0.00    -0.325 N 
ATOM     22  C   UNL     1      -6.333 -11.834  16.401  0.00  0.00    +0.104 C 
ATOM     23  C   UNL     1      -5.477 -10.608  18.283  0.00  0.00    +0.104 C 
ATOM     24  C   UNL     1      -7.224 -12.684  17.309  0.00  0.00    +0.120 C 
ATOM     25  C   UNL     1      -6.339 -11.418  19.253  0.00  0.00    +0.120 C 
BRANCH   7  26
ATOM     26  C   UNL     1      -8.614 -12.347  19.333  0.00  0.00    +0.072 A 
ATOM     27  C   UNL     1      -9.715 -11.499  19.451  0.00  0.00    +0.141 A 
ATOM     28  C   UNL     1      -8.610 -13.579  19.989  0.00  0.00    +0.027 A 
ATOM     29  C   UNL     1     -10.812 -11.882  20.223  0.00  0.00    +0.047 A 
ATOM     30  C   UNL     1      -9.706 -13.962  20.761  0.00  0.00    +0.002 A 
ATOM     31  C   UNL     1     -10.807 -13.114  20.879  0.00  0.00    +0.004 A 
BRANCH  27   4
ATOM      4  O   UNL     1      -9.739 -10.292  18.820  0.00  0.00    -0.493 OA
ATOM     32  C   UNL     1     -11.019  -9.706  18.589  0.00  0.00    +0.277 C 
ENDBRANCH  27   4
ENDBRANCH   7  26
ENDBRANCH  13   6
BRANCH  11   3
ATOM      3  O   UNL     1      -5.878  -9.509  14.838  0.00  0.00    -0.388 OA
ATOM     33  H   UNL     1      -5.975  -9.170  13.931  0.00  0.00    +0.210 HD
ENDBRANCH  11   3
BRANCH   8   5
ATOM      5  N   UNL     1      -4.464 -10.694  12.417  0.00  0.00    -0.294 NA
BRANCH   5  14
ATOM     14  C   UNL     1      -5.169 -11.966  12.560  0.00  0.00    +0.088 C 
BRANCH  14   9
ATOM      9  C   UNL     1      -5.263 -12.685  11.253  0.00  0.00    +0.003 C 
ATOM     16  C   UNL     1      -6.167 -13.876  11.135  0.00  0.00    +0.005 C 
ATOM     17  C   UNL     1      -6.530 -12.589  10.454  0.00  0.00    +0.005 C 
ENDBRANCH  14   9
ENDBRANCH   5  14
BRANCH   5  15
ATOM     15  C   UNL     1      -3.431 -10.790  11.390  0.00  0.00    +0.088 C 
BRANCH  15  10
ATOM     10  C   UNL     1      -3.398  -9.564  10.536  0.00  0.00    +0.003 C 
ATOM     18  C   UNL     1      -4.630  -8.715  10.422  0.00  0.00    +0.005 C 
ATOM     19  C   UNL     1      -4.178  -9.543   9.254  0.00  0.00    +0.005 C 
ENDBRANCH  15  10
ENDBRANCH   5  15
ENDBRANCH   8   5
TORSDOF 9
ENDMDL
