MODEL 1
REMARK VINA RESULT:      -7.2      0.000      0.000
REMARK  Name = 75536707
REMARK  10 active torsions:
REMARK  status: ('A' for Active; 'I' for Inactive)
REMARK    1  A    between atoms: S_1  and  N_7
REMARK    2  A    between atoms: S_1  and  C_15
REMARK    3  A    between atoms: O_3  and  C_9
REMARK    4  A    between atoms: N_6  and  C_8
REMARK    5  A    between atoms: N_6  and  C_13
REMARK    6  A    between atoms: N_7  and  C_12
REMARK    7  A    between atoms: C_10  and  C_12
REMARK    8  A    between atoms: C_13  and  C_14
REMARK    9  A    between atoms: C_22  and  C_26
REMARK   10  A    between atoms: C_25  and  C_27
REMARK                            x       y       z     vdW  Elec       q    Type
REMARK                         _______ _______ _______ _____ _____    ______ ____
ROOT
ATOM      2  O   UNL     1      11.045   8.804  20.185  0.00  0.00    -0.371 OA
ATOM      8  C   UNL     1      12.420   6.934  19.680  0.00  0.00    +0.111 C 
ATOM      9  C   UNL     1      12.168   6.973  21.175  0.00  0.00    +0.164 C 
ATOM     10  C   UNL     1      10.914   7.835  21.240  0.00  0.00    +0.164 C 
ATOM     11  C   UNL     1      12.069   8.358  19.278  0.00  0.00    +0.181 C 
ENDROOT
BRANCH   9   3
ATOM      3  O   UNL     1      11.951   5.688  21.725  0.00  0.00    -0.388 OA
ATOM     29  H   UNL     1      11.038   5.421  21.529  0.00  0.00    +0.210 HD
ENDBRANCH   9   3
BRANCH   8   6
ATOM      6  N   UNL     1      13.782   6.567  19.327  0.00  0.00    -0.305 NA
ATOM     28  H   UNL     1      13.842   6.440  18.317  0.00  0.00    +0.123 HD
BRANCH   6  13
ATOM     13  C   UNL     1      14.726   7.604  19.729  0.00  0.00    +0.116 C 
BRANCH  13  14
ATOM     14  C   UNL     1      16.111   7.051  19.934  0.00  0.00    -0.034 A 
ATOM     16  C   UNL     1      16.638   6.132  19.026  0.00  0.00    +0.005 A 
ATOM     17  C   UNL     1      16.867   7.456  21.034  0.00  0.00    +0.005 A 
ATOM     20  C   UNL     1      17.920   5.618  19.219  0.00  0.00    +0.003 A 
ATOM     21  C   UNL     1      18.150   6.941  21.227  0.00  0.00    +0.003 A 
ATOM     22  C   UNL     1      18.676   6.022  20.318  0.00  0.00    -0.050 A 
ATOM     26  C   UNL     1      20.047   5.472  20.524  0.00  0.00    +0.044 C 
ENDBRANCH  13  14
ENDBRANCH   6  13
ENDBRANCH   8   6
BRANCH  10  12
ATOM     12  C   UNL     1      10.742   8.545  22.570  0.00  0.00    +0.140 C 
BRANCH  12   7
ATOM      7  N   UNL     1      10.367   9.954  22.335  0.00  0.00    -0.187 NA
ATOM     30  H   UNL     1       9.919  10.151  21.431  0.00  0.00    +0.148 HD
BRANCH   7   1
ATOM      1  S   UNL     1      11.229  11.205  23.101  0.00  0.00    +0.058 S 
ATOM      4  O   UNL     1      11.459  10.849  24.489  0.00  0.00    -0.153 OA
ATOM      5  O   UNL     1      10.617  12.475  22.764  0.00  0.00    -0.153 OA
BRANCH   1  15
ATOM     15  C   UNL     1      12.783  11.141  22.260  0.00  0.00    +0.105 A 
ATOM     18  C   UNL     1      13.890  10.565  22.883  0.00  0.00    +0.029 A 
ATOM     19  C   UNL     1      12.903  11.669  20.974  0.00  0.00    +0.029 A 
ATOM     23  C   UNL     1      15.116  10.516  22.221  0.00  0.00    +0.005 A 
ATOM     24  C   UNL     1      14.129  11.621  20.313  0.00  0.00    +0.005 A 
ATOM     25  C   UNL     1      15.237  11.045  20.936  0.00  0.00    -0.050 A 
ATOM     27  C   UNL     1      16.548  10.994  20.228  0.00  0.00    +0.044 C 
ENDBRANCH   1  15
ENDBRANCH   7   1
ENDBRANCH  12   7
ENDBRANCH  10  12
TORSDOF 8
ENDMDL
MODEL 2
REMARK VINA RESULT:      -7.1      2.091      3.045
REMARK  Name = 75536707
REMARK  10 active torsions:
REMARK  status: ('A' for Active; 'I' for Inactive)
REMARK    1  A    between atoms: S_1  and  N_7
REMARK    2  A    between atoms: S_1  and  C_15
REMARK    3  A    between atoms: O_3  and  C_9
REMARK    4  A    between atoms: N_6  and  C_8
REMARK    5  A    between atoms: N_6  and  C_13
REMARK    6  A    between atoms: N_7  and  C_12
REMARK    7  A    between atoms: C_10  and  C_12
REMARK    8  A    between atoms: C_13  and  C_14
REMARK    9  A    between atoms: C_22  and  C_26
REMARK   10  A    between atoms: C_25  and  C_27
REMARK                            x       y       z     vdW  Elec       q    Type
REMARK                         _______ _______ _______ _____ _____    ______ ____
ROOT
ATOM      2  O   UNL     1      11.091   8.599  19.462  0.00  0.00    -0.371 OA
ATOM      8  C   UNL     1      12.659   6.815  19.483  0.00  0.00    +0.111 C 
ATOM      9  C   UNL     1      12.313   7.186  20.912  0.00  0.00    +0.164 C 
ATOM     10  C   UNL     1      10.985   7.905  20.716  0.00  0.00    +0.164 C 
ATOM     11  C   UNL     1      12.205   8.056  18.731  0.00  0.00    +0.181 C 
ENDROOT
BRANCH   9   3
ATOM      3  O   UNL     1      12.181   6.056  21.753  0.00  0.00    -0.388 OA
ATOM     29  H   UNL     1      11.807   5.328  21.230  0.00  0.00    +0.210 HD
ENDBRANCH   9   3
BRANCH   8   6
ATOM      6  N   UNL     1      14.068   6.516  19.283  0.00  0.00    -0.305 NA
ATOM     28  H   UNL     1      14.269   6.513  18.283  0.00  0.00    +0.123 HD
BRANCH   6  13
ATOM     13  C   UNL     1      14.913   7.514  19.930  0.00  0.00    +0.116 C 
BRANCH  13  14
ATOM     14  C   UNL     1      16.322   7.017  20.118  0.00  0.00    -0.034 A 
ATOM     16  C   UNL     1      16.871   6.114  19.208  0.00  0.00    +0.005 A 
ATOM     17  C   UNL     1      17.077   7.456  21.206  0.00  0.00    +0.005 A 
ATOM     20  C   UNL     1      18.175   5.651  19.385  0.00  0.00    +0.003 A 
ATOM     21  C   UNL     1      18.380   6.992  21.383  0.00  0.00    +0.003 A 
ATOM     22  C   UNL     1      18.930   6.090  20.472  0.00  0.00    -0.050 A 
ATOM     26  C   UNL     1      20.324   5.594  20.661  0.00  0.00    +0.044 C 
ENDBRANCH  13  14
ENDBRANCH   6  13
ENDBRANCH   8   6
BRANCH  10  12
ATOM     12  C   UNL     1      10.667   8.892  21.825  0.00  0.00    +0.140 C 
BRANCH  12   7
ATOM      7  N   UNL     1      11.871   9.112  22.652  0.00  0.00    -0.187 NA
ATOM     30  H   UNL     1      11.826   8.744  23.610  0.00  0.00    +0.148 HD
BRANCH   7   1
ATOM      1  S   UNL     1      12.888  10.441  22.341  0.00  0.00    +0.058 S 
ATOM      4  O   UNL     1      12.634  10.937  21.001  0.00  0.00    -0.153 OA
ATOM      5  O   UNL     1      14.238  10.108  22.753  0.00  0.00    -0.153 OA
BRANCH   1  15
ATOM     15  C   UNL     1      12.278  11.639  23.489  0.00  0.00    +0.105 A 
ATOM     18  C   UNL     1      12.682  12.970  23.386  0.00  0.00    +0.029 A 
ATOM     19  C   UNL     1      11.395  11.253  24.497  0.00  0.00    +0.029 A 
ATOM     23  C   UNL     1      12.203  13.916  24.292  0.00  0.00    +0.005 A 
ATOM     24  C   UNL     1      10.917  12.199  25.404  0.00  0.00    +0.005 A 
ATOM     25  C   UNL     1      11.321  13.531  25.303  0.00  0.00    -0.050 A 
ATOM     27  C   UNL     1      10.809  14.541  26.271  0.00  0.00    +0.044 C 
ENDBRANCH   1  15
ENDBRANCH   7   1
ENDBRANCH  12   7
ENDBRANCH  10  12
TORSDOF 8
ENDMDL
MODEL 3
REMARK VINA RESULT:      -6.9     27.166     30.419
REMARK  Name = 75536707
REMARK  10 active torsions:
REMARK  status: ('A' for Active; 'I' for Inactive)
REMARK    1  A    between atoms: S_1  and  N_7
REMARK    2  A    between atoms: S_1  and  C_15
REMARK    3  A    between atoms: O_3  and  C_9
REMARK    4  A    between atoms: N_6  and  C_8
REMARK    5  A    between atoms: N_6  and  C_13
REMARK    6  A    between atoms: N_7  and  C_12
REMARK    7  A    between atoms: C_10  and  C_12
REMARK    8  A    between atoms: C_13  and  C_14
REMARK    9  A    between atoms: C_22  and  C_26
REMARK   10  A    between atoms: C_25  and  C_27
REMARK                            x       y       z     vdW  Elec       q    Type
REMARK                         _______ _______ _______ _____ _____    ______ ____
ROOT
ATOM      2  O   UNL     1     -17.228   5.540  24.642  0.00  0.00    -0.371 OA
ATOM      8  C   UNL     1     -15.912   4.280  23.119  0.00  0.00    +0.111 C 
ATOM      9  C   UNL     1     -15.697   3.741  24.520  0.00  0.00    +0.164 C 
ATOM     10  C   UNL     1     -16.943   4.257  25.227  0.00  0.00    +0.164 C 
ATOM     11  C   UNL     1     -16.494   5.654  23.410  0.00  0.00    +0.181 C 
ENDROOT
BRANCH   9   3
ATOM      3  O   UNL     1     -15.620   2.329  24.555  0.00  0.00    -0.388 OA
ATOM     29  H   UNL     1     -14.685   2.075  24.628  0.00  0.00    +0.210 HD
ENDBRANCH   9   3
BRANCH   8   6
ATOM      6  N   UNL     1     -14.695   4.339  22.324  0.00  0.00    -0.305 NA
ATOM     28  H   UNL     1     -14.944   4.408  21.337  0.00  0.00    +0.123 HD
BRANCH   6  13
ATOM     13  C   UNL     1     -13.886   5.498  22.687  0.00  0.00    +0.116 C 
BRANCH  13  14
ATOM     14  C   UNL     1     -13.430   6.264  21.475  0.00  0.00    -0.034 A 
ATOM     16  C   UNL     1     -12.071   6.342  21.169  0.00  0.00    +0.005 A 
ATOM     17  C   UNL     1     -14.365   6.900  20.658  0.00  0.00    +0.005 A 
ATOM     20  C   UNL     1     -11.648   7.055  20.048  0.00  0.00    +0.003 A 
ATOM     21  C   UNL     1     -13.942   7.613  19.537  0.00  0.00    +0.003 A 
ATOM     22  C   UNL     1     -12.583   7.690  19.232  0.00  0.00    -0.050 A 
ATOM     26  C   UNL     1     -12.130   8.453  18.032  0.00  0.00    +0.044 C 
ENDBRANCH  13  14
ENDBRANCH   6  13
ENDBRANCH   8   6
BRANCH  10  12
ATOM     12  C   UNL     1     -16.764   4.406  26.727  0.00  0.00    +0.140 C 
BRANCH  12   7
ATOM      7  N   UNL     1     -15.983   3.266  27.248  0.00  0.00    -0.187 NA
ATOM     30  H   UNL     1     -15.052   3.137  26.833  0.00  0.00    +0.148 HD
BRANCH   7   1
ATOM      1  S   UNL     1     -16.783   1.905  27.883  0.00  0.00    +0.058 S 
ATOM      4  O   UNL     1     -16.361   0.719  27.161  0.00  0.00    -0.153 OA
ATOM      5  O   UNL     1     -18.194   2.210  28.025  0.00  0.00    -0.153 OA
BRANCH   1  15
ATOM     15  C   UNL     1     -16.107   1.817  29.514  0.00  0.00    +0.105 A 
ATOM     18  C   UNL     1     -16.124   2.944  30.336  0.00  0.00    +0.029 A 
ATOM     19  C   UNL     1     -15.555   0.623  29.978  0.00  0.00    +0.029 A 
ATOM     23  C   UNL     1     -15.589   2.876  31.623  0.00  0.00    +0.005 A 
ATOM     24  C   UNL     1     -15.020   0.556  31.264  0.00  0.00    +0.005 A 
ATOM     25  C   UNL     1     -15.036   1.683  32.087  0.00  0.00    -0.050 A 
ATOM     27  C   UNL     1     -14.464   1.610  33.461  0.00  0.00    +0.044 C 
ENDBRANCH   1  15
ENDBRANCH   7   1
ENDBRANCH  12   7
ENDBRANCH  10  12
TORSDOF 8
ENDMDL
MODEL 4
REMARK VINA RESULT:      -6.7      2.604      4.824
REMARK  Name = 75536707
REMARK  10 active torsions:
REMARK  status: ('A' for Active; 'I' for Inactive)
REMARK    1  A    between atoms: S_1  and  N_7
REMARK    2  A    between atoms: S_1  and  C_15
REMARK    3  A    between atoms: O_3  and  C_9
REMARK    4  A    between atoms: N_6  and  C_8
REMARK    5  A    between atoms: N_6  and  C_13
REMARK    6  A    between atoms: N_7  and  C_12
REMARK    7  A    between atoms: C_10  and  C_12
REMARK    8  A    between atoms: C_13  and  C_14
REMARK    9  A    between atoms: C_22  and  C_26
REMARK   10  A    between atoms: C_25  and  C_27
REMARK                            x       y       z     vdW  Elec       q    Type
REMARK                         _______ _______ _______ _____ _____    ______ ____
ROOT
ATOM      2  O   UNL     1      16.266   6.071  18.950  0.00  0.00    -0.371 OA
ATOM      8  C   UNL     1      17.399   6.315  21.023  0.00  0.00    +0.111 C 
ATOM      9  C   UNL     1      16.059   7.019  21.107  0.00  0.00    +0.164 C 
ATOM     10  C   UNL     1      15.297   6.336  19.979  0.00  0.00    +0.164 C 
ATOM     11  C   UNL     1      17.582   6.193  19.518  0.00  0.00    +0.181 C 
ENDROOT
BRANCH   9   3
ATOM      3  O   UNL     1      15.423   6.836  22.357  0.00  0.00    -0.388 OA
ATOM     29  H   UNL     1      16.099   6.595  23.012  0.00  0.00    +0.210 HD
ENDBRANCH   9   3
BRANCH   8   6
ATOM      6  N   UNL     1      18.482   7.043  21.666  0.00  0.00    -0.305 NA
ATOM     28  H   UNL     1      18.636   6.656  22.597  0.00  0.00    +0.123 HD
BRANCH   6  13
ATOM     13  C   UNL     1      19.718   6.933  20.899  0.00  0.00    +0.116 C 
BRANCH  13  14
ATOM     14  C   UNL     1      20.599   5.826  21.413  0.00  0.00    -0.034 A 
ATOM     16  C   UNL     1      21.250   5.964  22.639  0.00  0.00    +0.005 A 
ATOM     17  C   UNL     1      20.766   4.662  20.662  0.00  0.00    +0.005 A 
ATOM     20  C   UNL     1      22.068   4.940  23.113  0.00  0.00    +0.003 A 
ATOM     21  C   UNL     1      21.586   3.638  21.137  0.00  0.00    +0.003 A 
ATOM     22  C   UNL     1      22.237   3.777  22.363  0.00  0.00    -0.050 A 
ATOM     26  C   UNL     1      23.113   2.681  22.871  0.00  0.00    +0.044 C 
ENDBRANCH  13  14
ENDBRANCH   6  13
ENDBRANCH   8   6
BRANCH  10  12
ATOM     12  C   UNL     1      14.170   7.183  19.416  0.00  0.00    +0.140 C 
BRANCH  12   7
ATOM      7  N   UNL     1      13.545   7.961  20.504  0.00  0.00    -0.187 NA
ATOM     30  H   UNL     1      14.133   8.123  21.331  0.00  0.00    +0.148 HD
BRANCH   7   1
ATOM      1  S   UNL     1      11.855   7.942  20.703  0.00  0.00    +0.058 S 
ATOM      4  O   UNL     1      11.491   6.884  21.626  0.00  0.00    -0.153 OA
ATOM      5  O   UNL     1      11.225   8.023  19.399  0.00  0.00    -0.153 OA
BRANCH   1  15
ATOM     15  C   UNL     1      11.569   9.489  21.510  0.00  0.00    +0.105 A 
ATOM     18  C   UNL     1      11.922  10.681  20.877  0.00  0.00    +0.029 A 
ATOM     19  C   UNL     1      10.993   9.518  22.780  0.00  0.00    +0.029 A 
ATOM     23  C   UNL     1      11.699  11.902  21.514  0.00  0.00    +0.005 A 
ATOM     24  C   UNL     1      10.770  10.738  23.417  0.00  0.00    +0.005 A 
ATOM     25  C   UNL     1      11.123  11.931  22.785  0.00  0.00    -0.050 A 
ATOM     27  C   UNL     1      10.885  13.235  23.466  0.00  0.00    +0.044 C 
ENDBRANCH   1  15
ENDBRANCH   7   1
ENDBRANCH  12   7
ENDBRANCH  10  12
TORSDOF 8
ENDMDL
MODEL 5
REMARK VINA RESULT:      -6.6      3.220      5.648
REMARK  Name = 75536707
REMARK  10 active torsions:
REMARK  status: ('A' for Active; 'I' for Inactive)
REMARK    1  A    between atoms: S_1  and  N_7
REMARK    2  A    between atoms: S_1  and  C_15
REMARK    3  A    between atoms: O_3  and  C_9
REMARK    4  A    between atoms: N_6  and  C_8
REMARK    5  A    between atoms: N_6  and  C_13
REMARK    6  A    between atoms: N_7  and  C_12
REMARK    7  A    between atoms: C_10  and  C_12
REMARK    8  A    between atoms: C_13  and  C_14
REMARK    9  A    between atoms: C_22  and  C_26
REMARK   10  A    between atoms: C_25  and  C_27
REMARK                            x       y       z     vdW  Elec       q    Type
REMARK                         _______ _______ _______ _____ _____    ______ ____
ROOT
ATOM      2  O   UNL     1      16.800   7.741  20.918  0.00  0.00    -0.371 OA
ATOM      8  C   UNL     1      18.358   6.356  19.779  0.00  0.00    +0.111 C 
ATOM      9  C   UNL     1      16.957   5.832  19.530  0.00  0.00    +0.164 C 
ATOM     10  C   UNL     1      16.121   7.066  19.845  0.00  0.00    +0.164 C 
ATOM     11  C   UNL     1      18.141   7.226  21.007  0.00  0.00    +0.181 C 
ENDROOT
BRANCH   9   3
ATOM      3  O   UNL     1      16.766   5.395  18.198  0.00  0.00    -0.388 OA
ATOM     29  H   UNL     1      16.362   4.512  18.221  0.00  0.00    +0.210 HD
ENDBRANCH   9   3
BRANCH   8   6
ATOM      6  N   UNL     1      19.343   5.308  19.995  0.00  0.00    -0.305 NA
ATOM     28  H   UNL     1      19.768   5.062  19.102  0.00  0.00    +0.123 HD
BRANCH   6  13
ATOM     13  C   UNL     1      20.390   5.752  20.909  0.00  0.00    +0.116 C 
BRANCH  13  14
ATOM     14  C   UNL     1      21.604   4.865  20.843  0.00  0.00    -0.034 A 
ATOM     16  C   UNL     1      21.507   3.521  21.203  0.00  0.00    +0.005 A 
ATOM     17  C   UNL     1      22.827   5.388  20.423  0.00  0.00    +0.005 A 
ATOM     20  C   UNL     1      22.633   2.700  21.144  0.00  0.00    +0.003 A 
ATOM     21  C   UNL     1      23.954   4.567  20.365  0.00  0.00    +0.003 A 
ATOM     22  C   UNL     1      23.856   3.223  20.725  0.00  0.00    -0.050 A 
ATOM     26  C   UNL     1      25.061   2.345  20.663  0.00  0.00    +0.044 C 
ENDBRANCH  13  14
ENDBRANCH   6  13
ENDBRANCH   8   6
BRANCH  10  12
ATOM     12  C   UNL     1      14.700   6.737  20.264  0.00  0.00    +0.140 C 
BRANCH  12   7
ATOM      7  N   UNL     1      13.879   6.475  19.065  0.00  0.00    -0.187 NA
ATOM     30  H   UNL     1      14.180   5.684  18.483  0.00  0.00    +0.148 HD
BRANCH   7   1
ATOM      1  S   UNL     1      13.022   7.746  18.325  0.00  0.00    +0.058 S 
ATOM      4  O   UNL     1      11.902   7.201  17.580  0.00  0.00    -0.153 OA
ATOM      5  O   UNL     1      13.965   8.637  17.677  0.00  0.00    -0.153 OA
BRANCH   1  15
ATOM     15  C   UNL     1      12.374   8.609  19.725  0.00  0.00    +0.105 A 
ATOM     18  C   UNL     1      11.328   8.054  20.463  0.00  0.00    +0.029 A 
ATOM     19  C   UNL     1      12.907   9.845  20.092  0.00  0.00    +0.029 A 
ATOM     23  C   UNL     1      10.815   8.734  21.567  0.00  0.00    +0.005 A 
ATOM     24  C   UNL     1      12.393  10.526  21.195  0.00  0.00    +0.005 A 
ATOM     25  C   UNL     1      11.347   9.971  21.933  0.00  0.00    -0.050 A 
ATOM     27  C   UNL     1      10.799  10.699  23.113  0.00  0.00    +0.044 C 
ENDBRANCH   1  15
ENDBRANCH   7   1
ENDBRANCH  12   7
ENDBRANCH  10  12
TORSDOF 8
ENDMDL
MODEL 6
REMARK VINA RESULT:      -6.3     26.508     28.527
REMARK  Name = 75536707
REMARK  10 active torsions:
REMARK  status: ('A' for Active; 'I' for Inactive)
REMARK    1  A    between atoms: S_1  and  N_7
REMARK    2  A    between atoms: S_1  and  C_15
REMARK    3  A    between atoms: O_3  and  C_9
REMARK    4  A    between atoms: N_6  and  C_8
REMARK    5  A    between atoms: N_6  and  C_13
REMARK    6  A    between atoms: N_7  and  C_12
REMARK    7  A    between atoms: C_10  and  C_12
REMARK    8  A    between atoms: C_13  and  C_14
REMARK    9  A    between atoms: C_22  and  C_26
REMARK   10  A    between atoms: C_25  and  C_27
REMARK                            x       y       z     vdW  Elec       q    Type
REMARK                         _______ _______ _______ _____ _____    ______ ____
ROOT
ATOM      2  O   UNL     1      -4.952 -11.730  15.829  0.00  0.00    -0.371 OA
ATOM      8  C   UNL     1      -3.045 -11.166  14.531  0.00  0.00    +0.111 C 
ATOM      9  C   UNL     1      -2.759 -10.860  15.988  0.00  0.00    +0.164 C 
ATOM     10  C   UNL     1      -3.794 -11.735  16.681  0.00  0.00    +0.164 C 
ATOM     11  C   UNL     1      -4.564 -11.244  14.532  0.00  0.00    +0.181 C 
ENDROOT
BRANCH   9   3
ATOM      3  O   UNL     1      -1.440 -11.203  16.369  0.00  0.00    -0.388 OA
ATOM     29  H   UNL     1      -1.176 -11.997  15.875  0.00  0.00    +0.210 HD
ENDBRANCH   9   3
BRANCH   8   6
ATOM      6  N   UNL     1      -2.532 -10.162  13.612  0.00  0.00    -0.305 NA
ATOM     28  H   UNL     1      -1.820  -9.608  14.089  0.00  0.00    +0.123 HD
BRANCH   6  13
ATOM     13  C   UNL     1      -1.935 -10.784  12.435  0.00  0.00    +0.116 C 
BRANCH  13  14
ATOM     14  C   UNL     1      -2.791 -10.599  11.210  0.00  0.00    -0.034 A 
ATOM     16  C   UNL     1      -2.936  -9.332  10.644  0.00  0.00    +0.005 A 
ATOM     17  C   UNL     1      -3.442 -11.695  10.643  0.00  0.00    +0.005 A 
ATOM     20  C   UNL     1      -3.732  -9.162   9.511  0.00  0.00    +0.003 A 
ATOM     21  C   UNL     1      -4.238 -11.523   9.510  0.00  0.00    +0.003 A 
ATOM     22  C   UNL     1      -4.383 -10.256   8.944  0.00  0.00    -0.050 A 
ATOM     26  C   UNL     1      -5.234 -10.073   7.733  0.00  0.00    +0.044 C 
ENDBRANCH  13  14
ENDBRANCH   6  13
ENDBRANCH   8   6
BRANCH  10  12
ATOM     12  C   UNL     1      -4.172 -11.238  18.065  0.00  0.00    +0.140 C 
BRANCH  12   7
ATOM      7  N   UNL     1      -5.502 -10.599  18.014  0.00  0.00    -0.187 NA
ATOM     30  H   UNL     1      -5.514  -9.617  17.712  0.00  0.00    +0.148 HD
BRANCH   7   1
ATOM      1  S   UNL     1      -6.751 -11.148  19.032  0.00  0.00    +0.058 S 
ATOM      4  O   UNL     1      -6.509 -10.682  20.384  0.00  0.00    -0.153 OA
ATOM      5  O   UNL     1      -6.983 -12.557  18.775  0.00  0.00    -0.153 OA
BRANCH   1  15
ATOM     15  C   UNL     1      -8.148 -10.271  18.396  0.00  0.00    +0.105 A 
ATOM     18  C   UNL     1      -7.968  -9.285  17.425  0.00  0.00    +0.029 A 
ATOM     19  C   UNL     1      -9.428 -10.561  18.866  0.00  0.00    +0.029 A 
ATOM     23  C   UNL     1      -9.069  -8.590  16.924  0.00  0.00    +0.005 A 
ATOM     24  C   UNL     1     -10.529  -9.867  18.365  0.00  0.00    +0.005 A 
ATOM     25  C   UNL     1     -10.350  -8.880  17.395  0.00  0.00    -0.050 A 
ATOM     27  C   UNL     1     -11.527  -8.138  16.860  0.00  0.00    +0.044 C 
ENDBRANCH   1  15
ENDBRANCH   7   1
ENDBRANCH  12   7
ENDBRANCH  10  12
TORSDOF 8
ENDMDL
MODEL 7
REMARK VINA RESULT:      -6.2      3.484      5.640
REMARK  Name = 75536707
REMARK  10 active torsions:
REMARK  status: ('A' for Active; 'I' for Inactive)
REMARK    1  A    between atoms: S_1  and  N_7
REMARK    2  A    between atoms: S_1  and  C_15
REMARK    3  A    between atoms: O_3  and  C_9
REMARK    4  A    between atoms: N_6  and  C_8
REMARK    5  A    between atoms: N_6  and  C_13
REMARK    6  A    between atoms: N_7  and  C_12
REMARK    7  A    between atoms: C_10  and  C_12
REMARK    8  A    between atoms: C_13  and  C_14
REMARK    9  A    between atoms: C_22  and  C_26
REMARK   10  A    between atoms: C_25  and  C_27
REMARK                            x       y       z     vdW  Elec       q    Type
REMARK                         _______ _______ _______ _____ _____    ______ ____
ROOT
ATOM      2  O   UNL     1      16.770   7.620  21.117  0.00  0.00    -0.371 OA
ATOM      8  C   UNL     1      18.388   6.376  19.903  0.00  0.00    +0.111 C 
ATOM      9  C   UNL     1      17.010   5.821  19.600  0.00  0.00    +0.164 C 
ATOM     10  C   UNL     1      16.127   6.999  19.991  0.00  0.00    +0.164 C 
ATOM     11  C   UNL     1      18.127   7.149  21.186  0.00  0.00    +0.181 C 
ENDROOT
BRANCH   9   3
ATOM      3  O   UNL     1      16.848   5.472  18.239  0.00  0.00    -0.388 OA
ATOM     29  H   UNL     1      17.709   5.186  17.892  0.00  0.00    +0.210 HD
ENDBRANCH   9   3
BRANCH   8   6
ATOM      6  N   UNL     1      19.408   5.351  20.057  0.00  0.00    -0.305 NA
ATOM     28  H   UNL     1      19.717   5.047  19.134  0.00  0.00    +0.123 HD
BRANCH   6  13
ATOM     13  C   UNL     1      20.559   5.863  20.793  0.00  0.00    +0.116 C 
BRANCH  13  14
ATOM     14  C   UNL     1      21.705   4.886  20.791  0.00  0.00    -0.034 A 
ATOM     16  C   UNL     1      21.490   3.558  21.159  0.00  0.00    +0.005 A 
ATOM     17  C   UNL     1      22.982   5.310  20.424  0.00  0.00    +0.005 A 
ATOM     20  C   UNL     1      22.551   2.654  21.159  0.00  0.00    +0.003 A 
ATOM     21  C   UNL     1      24.044   4.406  20.426  0.00  0.00    +0.003 A 
ATOM     22  C   UNL     1      23.829   3.077  20.793  0.00  0.00    -0.050 A 
ATOM     26  C   UNL     1      24.964   2.110  20.795  0.00  0.00    +0.044 C 
ENDBRANCH  13  14
ENDBRANCH   6  13
ENDBRANCH   8   6
BRANCH  10  12
ATOM     12  C   UNL     1      14.714   6.591  20.367  0.00  0.00    +0.140 C 
BRANCH  12   7
ATOM      7  N   UNL     1      13.865   7.794  20.478  0.00  0.00    -0.187 NA
ATOM     30  H   UNL     1      13.907   8.288  21.378  0.00  0.00    +0.148 HD
BRANCH   7   1
ATOM      1  S   UNL     1      12.445   7.924  19.549  0.00  0.00    +0.058 S 
ATOM      4  O   UNL     1      11.460   8.697  20.281  0.00  0.00    -0.153 OA
ATOM      5  O   UNL     1      12.103   6.616  19.024  0.00  0.00    -0.153 OA
BRANCH   1  15
ATOM     15  C   UNL     1      12.996   8.901  18.182  0.00  0.00    +0.105 A 
ATOM     18  C   UNL     1      14.115   9.721  18.319  0.00  0.00    +0.029 A 
ATOM     19  C   UNL     1      12.311   8.853  16.968  0.00  0.00    +0.029 A 
ATOM     23  C   UNL     1      14.550  10.494  17.243  0.00  0.00    +0.005 A 
ATOM     24  C   UNL     1      12.745   9.626  15.892  0.00  0.00    +0.005 A 
ATOM     25  C   UNL     1      13.864  10.447  16.029  0.00  0.00    -0.050 A 
ATOM     27  C   UNL     1      14.328  11.273  14.878  0.00  0.00    +0.044 C 
ENDBRANCH   1  15
ENDBRANCH   7   1
ENDBRANCH  12   7
ENDBRANCH  10  12
TORSDOF 8
ENDMDL
MODEL 8
REMARK VINA RESULT:      -6.2     27.410     30.810
REMARK  Name = 75536707
REMARK  10 active torsions:
REMARK  status: ('A' for Active; 'I' for Inactive)
REMARK    1  A    between atoms: S_1  and  N_7
REMARK    2  A    between atoms: S_1  and  C_15
REMARK    3  A    between atoms: O_3  and  C_9
REMARK    4  A    between atoms: N_6  and  C_8
REMARK    5  A    between atoms: N_6  and  C_13
REMARK    6  A    between atoms: N_7  and  C_12
REMARK    7  A    between atoms: C_10  and  C_12
REMARK    8  A    between atoms: C_13  and  C_14
REMARK    9  A    between atoms: C_22  and  C_26
REMARK   10  A    between atoms: C_25  and  C_27
REMARK                            x       y       z     vdW  Elec       q    Type
REMARK                         _______ _______ _______ _____ _____    ______ ____
ROOT
ATOM      2  O   UNL     1     -18.388   2.660  25.274  0.00  0.00    -0.371 OA
ATOM      8  C   UNL     1     -16.667   3.449  26.709  0.00  0.00    +0.111 C 
ATOM      9  C   UNL     1     -16.189   3.531  25.271  0.00  0.00    +0.164 C 
ATOM     10  C   UNL     1     -17.513   3.517  24.520  0.00  0.00    +0.164 C 
ATOM     11  C   UNL     1     -17.826   2.473  26.585  0.00  0.00    +0.181 C 
ENDROOT
BRANCH   9   3
ATOM      3  O   UNL     1     -15.448   4.707  25.009  0.00  0.00    -0.388 OA
ATOM     29  H   UNL     1     -14.832   4.525  24.281  0.00  0.00    +0.210 HD
ENDBRANCH   9   3
BRANCH   8   6
ATOM      6  N   UNL     1     -15.644   2.997  27.639  0.00  0.00    -0.305 NA
ATOM     28  H   UNL     1     -15.494   3.718  28.345  0.00  0.00    +0.123 HD
BRANCH   6  13
ATOM     13  C   UNL     1     -16.047   1.763  28.303  0.00  0.00    +0.116 C 
BRANCH  13  14
ATOM     14  C   UNL     1     -15.634   1.746  29.751  0.00  0.00    -0.034 A 
ATOM     16  C   UNL     1     -15.220   0.553  30.345  0.00  0.00    +0.005 A 
ATOM     17  C   UNL     1     -15.670   2.922  30.500  0.00  0.00    +0.005 A 
ATOM     20  C   UNL     1     -14.841   0.537  31.686  0.00  0.00    +0.003 A 
ATOM     21  C   UNL     1     -15.291   2.906  31.842  0.00  0.00    +0.003 A 
ATOM     22  C   UNL     1     -14.877   1.713  32.436  0.00  0.00    -0.050 A 
ATOM     26  C   UNL     1     -14.472   1.695  33.871  0.00  0.00    +0.044 C 
ENDBRANCH  13  14
ENDBRANCH   6  13
ENDBRANCH   8   6
BRANCH  10  12
ATOM     12  C   UNL     1     -17.391   3.001  23.097  0.00  0.00    +0.140 C 
BRANCH  12   7
ATOM      7  N   UNL     1     -16.324   3.741  22.393  0.00  0.00    -0.187 NA
ATOM     30  H   UNL     1     -15.400   3.723  22.840  0.00  0.00    +0.148 HD
BRANCH   7   1
ATOM      1  S   UNL     1     -16.719   5.065  21.400  0.00  0.00    +0.058 S 
ATOM      4  O   UNL     1     -17.542   5.998  22.147  0.00  0.00    -0.153 OA
ATOM      5  O   UNL     1     -17.161   4.572  20.110  0.00  0.00    -0.153 OA
BRANCH   1  15
ATOM     15  C   UNL     1     -15.137   5.815  21.152  0.00  0.00    +0.105 A 
ATOM     18  C   UNL     1     -15.007   6.894  20.277  0.00  0.00    +0.029 A 
ATOM     19  C   UNL     1     -14.019   5.326  21.827  0.00  0.00    +0.029 A 
ATOM     23  C   UNL     1     -13.759   7.485  20.079  0.00  0.00    +0.005 A 
ATOM     24  C   UNL     1     -12.771   5.916  21.629  0.00  0.00    +0.005 A 
ATOM     25  C   UNL     1     -12.641   6.996  20.754  0.00  0.00    -0.050 A 
ATOM     27  C   UNL     1     -11.307   7.626  20.543  0.00  0.00    +0.044 C 
ENDBRANCH   1  15
ENDBRANCH   7   1
ENDBRANCH  12   7
ENDBRANCH  10  12
TORSDOF 8
ENDMDL
MODEL 9
REMARK VINA RESULT:      -6.1     26.424     29.009
REMARK  Name = 75536707
REMARK  10 active torsions:
REMARK  status: ('A' for Active; 'I' for Inactive)
REMARK    1  A    between atoms: S_1  and  N_7
REMARK    2  A    between atoms: S_1  and  C_15
REMARK    3  A    between atoms: O_3  and  C_9
REMARK    4  A    between atoms: N_6  and  C_8
REMARK    5  A    between atoms: N_6  and  C_13
REMARK    6  A    between atoms: N_7  and  C_12
REMARK    7  A    between atoms: C_10  and  C_12
REMARK    8  A    between atoms: C_13  and  C_14
REMARK    9  A    between atoms: C_22  and  C_26
REMARK   10  A    between atoms: C_25  and  C_27
REMARK                            x       y       z     vdW  Elec       q    Type
REMARK                         _______ _______ _______ _____ _____    ______ ____
ROOT
ATOM      2  O   UNL     1      -6.005 -11.675  18.269  0.00  0.00    -0.371 OA
ATOM      8  C   UNL     1      -7.603 -10.129  17.436  0.00  0.00    +0.111 C 
ATOM      9  C   UNL     1      -6.244  -9.802  16.845  0.00  0.00    +0.164 C 
ATOM     10  C   UNL     1      -5.516 -11.126  17.033  0.00  0.00    +0.164 C 
ATOM     11  C   UNL     1      -7.214 -10.986  18.630  0.00  0.00    +0.181 C 
ENDROOT
BRANCH   9   3
ATOM      3  O   UNL     1      -6.317  -9.430  15.483  0.00  0.00    -0.388 OA
ATOM     29  H   UNL     1      -6.358 -10.238  14.946  0.00  0.00    +0.210 HD
ENDBRANCH   9   3
BRANCH   8   6
ATOM      6  N   UNL     1      -8.374  -8.954  17.810  0.00  0.00    -0.305 NA
ATOM     28  H   UNL     1      -8.129  -8.183  17.189  0.00  0.00    +0.123 HD
BRANCH   6  13
ATOM     13  C   UNL     1      -9.806  -9.209  17.702  0.00  0.00    +0.116 C 
BRANCH  13  14
ATOM     14  C   UNL     1     -10.458  -8.316  16.681  0.00  0.00    -0.034 A 
ATOM     16  C   UNL     1     -10.835  -7.018  17.028  0.00  0.00    +0.005 A 
ATOM     17  C   UNL     1     -10.689  -8.786  15.388  0.00  0.00    +0.005 A 
ATOM     20  C   UNL     1     -11.442  -6.192  16.083  0.00  0.00    +0.003 A 
ATOM     21  C   UNL     1     -11.297  -7.959  14.443  0.00  0.00    +0.003 A 
ATOM     22  C   UNL     1     -11.673  -6.662  14.791  0.00  0.00    -0.050 A 
ATOM     26  C   UNL     1     -12.323  -5.778  13.780  0.00  0.00    +0.044 C 
ENDBRANCH  13  14
ENDBRANCH   6  13
ENDBRANCH   8   6
BRANCH  10  12
ATOM     12  C   UNL     1      -4.007 -10.978  17.098  0.00  0.00    +0.140 C 
BRANCH  12   7
ATOM      7  N   UNL     1      -3.513 -10.390  15.836  0.00  0.00    -0.187 NA
ATOM     30  H   UNL     1      -4.107  -9.663  15.420  0.00  0.00    +0.148 HD
BRANCH   7   1
ATOM      1  S   UNL     1      -2.507 -11.301  14.809  0.00  0.00    +0.058 S 
ATOM      4  O   UNL     1      -2.930 -12.688  14.828  0.00  0.00    -0.153 OA
ATOM      5  O   UNL     1      -1.124 -10.955  15.076  0.00  0.00    -0.153 OA
BRANCH   1  15
ATOM     15  C   UNL     1      -2.909 -10.631  13.223  0.00  0.00    +0.105 A 
ATOM     18  C   UNL     1      -4.244 -10.441  12.866  0.00  0.00    +0.029 A 
ATOM     19  C   UNL     1      -1.893 -10.296  12.328  0.00  0.00    +0.029 A 
ATOM     23  C   UNL     1      -4.563  -9.914  11.614  0.00  0.00    +0.005 A 
ATOM     24  C   UNL     1      -2.212  -9.770  11.077  0.00  0.00    +0.005 A 
ATOM     25  C   UNL     1      -3.547  -9.580  10.718  0.00  0.00    -0.050 A 
ATOM     27  C   UNL     1      -3.887  -9.018   9.381  0.00  0.00    +0.044 C 
ENDBRANCH   1  15
ENDBRANCH   7   1
ENDBRANCH  12   7
ENDBRANCH  10  12
TORSDOF 8
ENDMDL
MODEL 10
REMARK VINA RESULT:      -6.1      1.569      2.033
REMARK  Name = 75536707
REMARK  10 active torsions:
REMARK  status: ('A' for Active; 'I' for Inactive)
REMARK    1  A    between atoms: S_1  and  N_7
REMARK    2  A    between atoms: S_1  and  C_15
REMARK    3  A    between atoms: O_3  and  C_9
REMARK    4  A    between atoms: N_6  and  C_8
REMARK    5  A    between atoms: N_6  and  C_13
REMARK    6  A    between atoms: N_7  and  C_12
REMARK    7  A    between atoms: C_10  and  C_12
REMARK    8  A    between atoms: C_13  and  C_14
REMARK    9  A    between atoms: C_22  and  C_26
REMARK   10  A    between atoms: C_25  and  C_27
REMARK                            x       y       z     vdW  Elec       q    Type
REMARK                         _______ _______ _______ _____ _____    ______ ____
ROOT
ATOM      2  O   UNL     1      11.578   9.497  20.107  0.00  0.00    -0.371 OA
ATOM      8  C   UNL     1      12.401   7.275  19.939  0.00  0.00    +0.111 C 
ATOM      9  C   UNL     1      11.879   7.504  21.345  0.00  0.00    +0.164 C 
ATOM     10  C   UNL     1      10.955   8.694  21.125  0.00  0.00    +0.164 C 
ATOM     11  C   UNL     1      12.581   8.703  19.449  0.00  0.00    +0.181 C 
ENDROOT
BRANCH   9   3
ATOM      3  O   UNL     1      11.181   6.385  21.856  0.00  0.00    -0.388 OA
ATOM     29  H   UNL     1      11.066   6.507  22.813  0.00  0.00    +0.210 HD
ENDBRANCH   9   3
BRANCH   8   6
ATOM      6  N   UNL     1      13.632   6.502  19.893  0.00  0.00    -0.305 NA
ATOM     28  H   UNL     1      13.433   5.582  19.501  0.00  0.00    +0.123 HD
BRANCH   6  13
ATOM     13  C   UNL     1      14.635   7.161  19.063  0.00  0.00    +0.116 C 
BRANCH  13  14
ATOM     14  C   UNL     1      16.034   6.852  19.523  0.00  0.00    -0.034 A 
ATOM     16  C   UNL     1      16.791   5.887  18.857  0.00  0.00    +0.005 A 
ATOM     17  C   UNL     1      16.573   7.527  20.618  0.00  0.00    +0.005 A 
ATOM     20  C   UNL     1      18.086   5.599  19.286  0.00  0.00    +0.003 A 
ATOM     21  C   UNL     1      17.869   7.238  21.047  0.00  0.00    +0.003 A 
ATOM     22  C   UNL     1      18.625   6.274  20.380  0.00  0.00    -0.050 A 
ATOM     26  C   UNL     1      20.011   5.964  20.839  0.00  0.00    +0.044 C 
ENDBRANCH  13  14
ENDBRANCH   6  13
ENDBRANCH   8   6
BRANCH  10  12
ATOM     12  C   UNL     1      10.741   9.527  22.376  0.00  0.00    +0.140 C 
BRANCH  12   7
ATOM      7  N   UNL     1      11.208  10.907  22.138  0.00  0.00    -0.187 NA
ATOM     30  H   UNL     1      11.936  11.014  21.422  0.00  0.00    +0.148 HD
BRANCH   7   1
ATOM      1  S   UNL     1      11.119  12.064  23.383  0.00  0.00    +0.058 S 
ATOM      4  O   UNL     1      10.395  11.504  24.508  0.00  0.00    -0.153 OA
ATOM      5  O   UNL     1      10.718  13.337  22.817  0.00  0.00    -0.153 OA
BRANCH   1  15
ATOM     15  C   UNL     1      12.817  12.220  23.852  0.00  0.00    +0.105 A 
ATOM     18  C   UNL     1      13.767  12.613  22.910  0.00  0.00    +0.029 A 
ATOM     19  C   UNL     1      13.207  11.946  25.163  0.00  0.00    +0.029 A 
ATOM     23  C   UNL     1      15.106  12.735  23.278  0.00  0.00    +0.005 A 
ATOM     24  C   UNL     1      14.546  12.067  25.532  0.00  0.00    +0.005 A 
ATOM     25  C   UNL     1      15.497  12.460  24.589  0.00  0.00    -0.050 A 
ATOM     27  C   UNL     1      16.929  12.589  24.983  0.00  0.00    +0.044 C 
ENDBRANCH   1  15
ENDBRANCH   7   1
ENDBRANCH  12   7
ENDBRANCH  10  12
TORSDOF 8
ENDMDL
