MODEL 1
REMARK VINA RESULT:      -7.3      0.000      0.000
REMARK  Name = 26744574
REMARK  6 active torsions:
REMARK  status: ('A' for Active; 'I' for Inactive)
REMARK    1  A    between atoms: O_4  and  C_11
REMARK    2  A    between atoms: N_6  and  C_13
REMARK    3  A    between atoms: C_9  and  C_14
REMARK    4  A    between atoms: C_13  and  C_15
REMARK    5  A    between atoms: C_16  and  C_19
REMARK    6  A    between atoms: C_19  and  C_22
REMARK                            x       y       z     vdW  Elec       q    Type
REMARK                         _______ _______ _______ _____ _____    ______ ____
ROOT
ATOM      6  N   UNL     1      13.215   7.790  20.116  0.00  0.00    -0.285 NA
ATOM      9  C   UNL     1      12.100   8.688  19.756  0.00  0.00    +0.149 C 
ATOM     10  C   UNL     1      10.917   8.215  20.623  0.00  0.00    +0.061 C 
ATOM     11  C   UNL     1      11.453   7.020  21.402  0.00  0.00    +0.130 C 
ATOM     12  C   UNL     1      12.610   6.533  20.551  0.00  0.00    +0.116 C 
ENDROOT
BRANCH   9  14
ATOM      5  O   UNL     1      12.964  10.811  18.907  0.00  0.00    -0.336 OA
ATOM      7  N   UNL     1      12.291  10.885  21.041  0.00  0.00    -0.194 NA
ATOM      8  N   UNL     1      13.189  12.124  19.341  0.00  0.00    -0.061 NA
ATOM     14  C   UNL     1      12.435  10.149  19.969  0.00  0.00    +0.245 A 
ATOM     16  C   UNL     1      12.768  12.088  20.608  0.00  0.00    +0.176 A 
BRANCH  16  19
ATOM     19  C   UNL     1      12.816  13.269  21.477  0.00  0.00    +0.116 C 
BRANCH  19  22
ATOM      1 CL   UNL     1      11.947  12.779  24.409  0.00  0.00    -0.083 Cl
ATOM      3  F   UNL     1       7.748  15.234  23.034  0.00  0.00    -0.205 F 
ATOM     22  C   UNL     1      11.453  13.788  21.926  0.00  0.00    -0.021 A 
ATOM     24  C   UNL     1      10.995  13.605  23.231  0.00  0.00    +0.047 A 
ATOM     25  C   UNL     1      10.660  14.460  20.996  0.00  0.00    +0.008 A 
ATOM     26  C   UNL     1       9.743  14.094  23.605  0.00  0.00    +0.058 A 
ATOM     27  C   UNL     1       9.409  14.949  21.370  0.00  0.00    +0.039 A 
ATOM     28  C   UNL     1       8.950  14.765  22.675  0.00  0.00    +0.125 A 
ENDBRANCH  19  22
ENDBRANCH  16  19
ENDBRANCH   9  14
BRANCH  11   4
ATOM      4  O   UNL     1      10.455   6.029  21.548  0.00  0.00    -0.390 OA
ATOM     29  H   UNL     1      10.713   5.272  20.995  0.00  0.00    +0.210 HD
ENDBRANCH  11   4
BRANCH   6  13
ATOM     13  C   UNL     1      14.169   7.594  19.031  0.00  0.00    +0.120 C 
BRANCH  13  15
ATOM      2  F   UNL     1      19.315   6.348  20.956  0.00  0.00    -0.205 F 
ATOM     15  C   UNL     1      15.543   7.262  19.546  0.00  0.00    -0.033 A 
ATOM     17  C   UNL     1      16.285   6.244  18.946  0.00  0.00    +0.008 A 
ATOM     18  C   UNL     1      16.076   7.971  20.622  0.00  0.00    +0.008 A 
ATOM     20  C   UNL     1      17.559   5.934  19.422  0.00  0.00    +0.038 A 
ATOM     21  C   UNL     1      17.350   7.662  21.098  0.00  0.00    +0.038 A 
ATOM     23  C   UNL     1      18.092   6.644  20.498  0.00  0.00    +0.123 A 
ENDBRANCH  13  15
ENDBRANCH   6  13
TORSDOF 6
ENDMDL
MODEL 2
REMARK VINA RESULT:      -7.2      3.830      8.024
REMARK  Name = 26744574
REMARK  6 active torsions:
REMARK  status: ('A' for Active; 'I' for Inactive)
REMARK    1  A    between atoms: O_4  and  C_11
REMARK    2  A    between atoms: N_6  and  C_13
REMARK    3  A    between atoms: C_9  and  C_14
REMARK    4  A    between atoms: C_13  and  C_15
REMARK    5  A    between atoms: C_16  and  C_19
REMARK    6  A    between atoms: C_19  and  C_22
REMARK                            x       y       z     vdW  Elec       q    Type
REMARK                         _______ _______ _______ _____ _____    ______ ____
ROOT
ATOM      6  N   UNL     1      12.875   8.600  18.139  0.00  0.00    -0.285 NA
ATOM      9  C   UNL     1      13.763   7.625  17.474  0.00  0.00    +0.149 C 
ATOM     10  C   UNL     1      14.313   8.370  16.243  0.00  0.00    +0.061 C 
ATOM     11  C   UNL     1      13.644   9.738  16.277  0.00  0.00    +0.130 C 
ATOM     12  C   UNL     1      12.388   9.497  17.093  0.00  0.00    +0.116 C 
ENDROOT
BRANCH   9  14
ATOM      5  O   UNL     1      15.683   6.167  17.873  0.00  0.00    -0.336 OA
ATOM      7  N   UNL     1      15.130   7.451  19.622  0.00  0.00    -0.194 NA
ATOM      8  N   UNL     1      16.596   5.855  18.889  0.00  0.00    -0.061 NA
ATOM     14  C   UNL     1      14.856   7.114  18.387  0.00  0.00    +0.245 A 
ATOM     16  C   UNL     1      16.205   6.653  19.887  0.00  0.00    +0.176 A 
BRANCH  16  19
ATOM     19  C   UNL     1      16.889   6.666  21.185  0.00  0.00    +0.116 C 
BRANCH  19  22
ATOM      1 CL   UNL     1      19.701   5.535  20.545  0.00  0.00    -0.083 Cl
ATOM      3  F   UNL     1      21.252  10.246  21.519  0.00  0.00    -0.205 F 
ATOM     22  C   UNL     1      18.086   7.609  21.266  0.00  0.00    -0.021 A 
ATOM     24  C   UNL     1      19.382   7.170  20.991  0.00  0.00    +0.047 A 
ATOM     25  C   UNL     1      17.860   8.937  21.626  0.00  0.00    +0.008 A 
ATOM     26  C   UNL     1      20.451   8.062  21.077  0.00  0.00    +0.058 A 
ATOM     27  C   UNL     1      18.929   9.828  21.710  0.00  0.00    +0.039 A 
ATOM     28  C   UNL     1      20.225   9.390  21.436  0.00  0.00    +0.125 A 
ENDBRANCH  19  22
ENDBRANCH  16  19
ENDBRANCH   9  14
BRANCH  11   4
ATOM      4  O   UNL     1      13.343  10.182  14.969  0.00  0.00    -0.390 OA
ATOM     29  H   UNL     1      13.332  11.155  14.987  0.00  0.00    +0.210 HD
ENDBRANCH  11   4
BRANCH   6  13
ATOM     13  C   UNL     1      11.785   7.975  18.878  0.00  0.00    +0.120 C 
BRANCH  13  15
ATOM      2  F   UNL     1      10.851  10.538  23.808  0.00  0.00    -0.205 F 
ATOM     15  C   UNL     1      11.535   8.659  20.195  0.00  0.00    -0.033 A 
ATOM     17  C   UNL     1      12.048   9.936  20.425  0.00  0.00    +0.008 A 
ATOM     18  C   UNL     1      10.791   8.018  21.184  0.00  0.00    +0.008 A 
ATOM     20  C   UNL     1      11.818  10.571  21.646  0.00  0.00    +0.038 A 
ATOM     21  C   UNL     1      10.561   8.652  22.405  0.00  0.00    +0.038 A 
ATOM     23  C   UNL     1      11.073   9.929  22.636  0.00  0.00    +0.123 A 
ENDBRANCH  13  15
ENDBRANCH   6  13
TORSDOF 6
ENDMDL
MODEL 3
REMARK VINA RESULT:      -7.2      2.254      2.847
REMARK  Name = 26744574
REMARK  6 active torsions:
REMARK  status: ('A' for Active; 'I' for Inactive)
REMARK    1  A    between atoms: O_4  and  C_11
REMARK    2  A    between atoms: N_6  and  C_13
REMARK    3  A    between atoms: C_9  and  C_14
REMARK    4  A    between atoms: C_13  and  C_15
REMARK    5  A    between atoms: C_16  and  C_19
REMARK    6  A    between atoms: C_19  and  C_22
REMARK                            x       y       z     vdW  Elec       q    Type
REMARK                         _______ _______ _______ _____ _____    ______ ____
ROOT
ATOM      6  N   UNL     1      12.932   8.026  21.079  0.00  0.00    -0.285 NA
ATOM      9  C   UNL     1      11.592   8.621  20.905  0.00  0.00    +0.149 C 
ATOM     10  C   UNL     1      10.609   7.488  21.256  0.00  0.00    +0.061 C 
ATOM     11  C   UNL     1      11.490   6.284  21.569  0.00  0.00    +0.130 C 
ATOM     12  C   UNL     1      12.782   6.593  20.837  0.00  0.00    +0.116 C 
ENDROOT
BRANCH   9  14
ATOM      5  O   UNL     1      11.022   9.651  23.048  0.00  0.00    -0.336 OA
ATOM      7  N   UNL     1      11.510  11.118  21.428  0.00  0.00    -0.194 NA
ATOM      8  N   UNL     1      10.894  10.922  23.622  0.00  0.00    -0.061 NA
ATOM     14  C   UNL     1      11.388   9.857  21.755  0.00  0.00    +0.245 A 
ATOM     16  C   UNL     1      11.197  11.733  22.605  0.00  0.00    +0.176 A 
BRANCH  16  19
ATOM     19  C   UNL     1      11.192  13.194  22.748  0.00  0.00    +0.116 C 
BRANCH  19  22
ATOM      1 CL   UNL     1      14.195  13.240  23.503  0.00  0.00    -0.083 Cl
ATOM      3  F   UNL     1      12.532  15.095  27.901  0.00  0.00    -0.205 F 
ATOM     22  C   UNL     1      11.584  13.702  24.132  0.00  0.00    -0.021 A 
ATOM     24  C   UNL     1      12.917  13.752  24.542  0.00  0.00    +0.047 A 
ATOM     25  C   UNL     1      10.572  14.122  24.995  0.00  0.00    +0.008 A 
ATOM     26  C   UNL     1      13.236  14.223  25.815  0.00  0.00    +0.058 A 
ATOM     27  C   UNL     1      10.892  14.593  26.268  0.00  0.00    +0.039 A 
ATOM     28  C   UNL     1      12.224  14.643  26.678  0.00  0.00    +0.125 A 
ENDBRANCH  19  22
ENDBRANCH  16  19
ENDBRANCH   9  14
BRANCH  11   4
ATOM      4  O   UNL     1      10.893   5.091  21.101  0.00  0.00    -0.390 OA
ATOM     29  H   UNL     1       9.959   5.106  21.371  0.00  0.00    +0.210 HD
ENDBRANCH  11   4
BRANCH   6  13
ATOM     13  C   UNL     1      13.943   8.625  20.218  0.00  0.00    +0.120 C 
BRANCH  13  15
ATOM      2  F   UNL     1      18.671   5.563  20.082  0.00  0.00    -0.205 F 
ATOM     15  C   UNL     1      15.206   7.808  20.182  0.00  0.00    -0.033 A 
ATOM     17  C   UNL     1      15.457   6.960  19.103  0.00  0.00    +0.008 A 
ATOM     18  C   UNL     1      16.126   7.897  21.226  0.00  0.00    +0.008 A 
ATOM     20  C   UNL     1      16.627   6.201  19.069  0.00  0.00    +0.038 A 
ATOM     21  C   UNL     1      17.296   7.139  21.193  0.00  0.00    +0.038 A 
ATOM     23  C   UNL     1      17.547   6.291  20.114  0.00  0.00    +0.123 A 
ENDBRANCH  13  15
ENDBRANCH   6  13
TORSDOF 6
ENDMDL
MODEL 4
REMARK VINA RESULT:      -7.2      1.389      1.868
REMARK  Name = 26744574
REMARK  6 active torsions:
REMARK  status: ('A' for Active; 'I' for Inactive)
REMARK    1  A    between atoms: O_4  and  C_11
REMARK    2  A    between atoms: N_6  and  C_13
REMARK    3  A    between atoms: C_9  and  C_14
REMARK    4  A    between atoms: C_13  and  C_15
REMARK    5  A    between atoms: C_16  and  C_19
REMARK    6  A    between atoms: C_19  and  C_22
REMARK                            x       y       z     vdW  Elec       q    Type
REMARK                         _______ _______ _______ _____ _____    ______ ____
ROOT
ATOM      6  N   UNL     1      13.179   7.567  20.185  0.00  0.00    -0.285 NA
ATOM      9  C   UNL     1      12.138   8.557  19.845  0.00  0.00    +0.149 C 
ATOM     10  C   UNL     1      10.922   8.161  20.703  0.00  0.00    +0.061 C 
ATOM     11  C   UNL     1      11.361   6.912  21.457  0.00  0.00    +0.130 C 
ATOM     12  C   UNL     1      12.477   6.353  20.595  0.00  0.00    +0.116 C 
ENDROOT
BRANCH   9  14
ATOM      5  O   UNL     1      12.850  10.731  18.985  0.00  0.00    -0.336 OA
ATOM      7  N   UNL     1      12.764  10.614  21.219  0.00  0.00    -0.194 NA
ATOM      8  N   UNL     1      13.243  11.991  19.455  0.00  0.00    -0.061 NA
ATOM     14  C   UNL     1      12.586   9.982  20.087  0.00  0.00    +0.245 A 
ATOM     16  C   UNL     1      13.167  11.843  20.781  0.00  0.00    +0.176 A 
BRANCH  16  19
ATOM     19  C   UNL     1      13.498  12.933  21.705  0.00  0.00    +0.116 C 
BRANCH  19  22
ATOM      1 CL   UNL     1      10.653  14.073  21.257  0.00  0.00    -0.083 Cl
ATOM      3  F   UNL     1      10.135  13.343  26.232  0.00  0.00    -0.205 F 
ATOM     22  C   UNL     1      12.567  13.056  22.908  0.00  0.00    -0.021 A 
ATOM     24  C   UNL     1      11.272  13.559  22.783  0.00  0.00    +0.047 A 
ATOM     25  C   UNL     1      13.040  12.649  24.155  0.00  0.00    +0.008 A 
ATOM     26  C   UNL     1      10.451  13.656  23.906  0.00  0.00    +0.058 A 
ATOM     27  C   UNL     1      12.219  12.745  25.278  0.00  0.00    +0.039 A 
ATOM     28  C   UNL     1      10.924  13.250  25.153  0.00  0.00    +0.125 A 
ENDBRANCH  19  22
ENDBRANCH  16  19
ENDBRANCH   9  14
BRANCH  11   4
ATOM      4  O   UNL     1      10.288   5.999  21.584  0.00  0.00    -0.390 OA
ATOM     29  H   UNL     1      10.595   5.265  22.144  0.00  0.00    +0.210 HD
ENDBRANCH  11   4
BRANCH   6  13
ATOM     13  C   UNL     1      14.115   7.319  19.096  0.00  0.00    +0.120 C 
BRANCH  13  15
ATOM      2  F   UNL     1      19.342   6.394  20.984  0.00  0.00    -0.205 F 
ATOM     15  C   UNL     1      15.511   7.072  19.601  0.00  0.00    -0.033 A 
ATOM     17  C   UNL     1      16.352   6.191  18.921  0.00  0.00    +0.008 A 
ATOM     18  C   UNL     1      15.964   7.724  20.747  0.00  0.00    +0.008 A 
ATOM     20  C   UNL     1      17.646   5.961  19.388  0.00  0.00    +0.038 A 
ATOM     21  C   UNL     1      17.258   7.494  21.215  0.00  0.00    +0.038 A 
ATOM     23  C   UNL     1      18.100   6.614  20.535  0.00  0.00    +0.123 A 
ENDBRANCH  13  15
ENDBRANCH   6  13
TORSDOF 6
ENDMDL
MODEL 5
REMARK VINA RESULT:      -7.0     26.230     28.506
REMARK  Name = 26744574
REMARK  6 active torsions:
REMARK  status: ('A' for Active; 'I' for Inactive)
REMARK    1  A    between atoms: O_4  and  C_11
REMARK    2  A    between atoms: N_6  and  C_13
REMARK    3  A    between atoms: C_9  and  C_14
REMARK    4  A    between atoms: C_13  and  C_15
REMARK    5  A    between atoms: C_16  and  C_19
REMARK    6  A    between atoms: C_19  and  C_22
REMARK                            x       y       z     vdW  Elec       q    Type
REMARK                         _______ _______ _______ _____ _____    ______ ____
ROOT
ATOM      6  N   UNL     1      -3.060 -10.523  14.072  0.00  0.00    -0.285 NA
ATOM      9  C   UNL     1      -3.429 -11.254  15.300  0.00  0.00    +0.149 C 
ATOM     10  C   UNL     1      -2.324 -10.902  16.315  0.00  0.00    +0.061 C 
ATOM     11  C   UNL     1      -1.358 -10.005  15.551  0.00  0.00    +0.130 C 
ATOM     12  C   UNL     1      -1.607 -10.372  14.100  0.00  0.00    +0.116 C 
ENDROOT
BRANCH   9  14
ATOM      5  O   UNL     1      -4.904  -9.842  16.642  0.00  0.00    -0.336 OA
ATOM      7  N   UNL     1      -5.961 -11.472  15.531  0.00  0.00    -0.194 NA
ATOM      8  N   UNL     1      -6.262  -9.712  16.961  0.00  0.00    -0.061 NA
ATOM     14  C   UNL     1      -4.814 -10.901  15.796  0.00  0.00    +0.245 A 
ATOM     16  C   UNL     1      -6.820 -10.709  16.268  0.00  0.00    +0.176 A 
BRANCH  16  19
ATOM     19  C   UNL     1      -8.264 -10.965  16.299  0.00  0.00    +0.116 C 
BRANCH  19  22
ATOM      1 CL   UNL     1      -8.819  -9.443  13.659  0.00  0.00    -0.083 Cl
ATOM      3  F   UNL     1     -11.498  -6.338  16.614  0.00  0.00    -0.205 F 
ATOM     22  C   UNL     1      -9.134  -9.712  16.353  0.00  0.00    -0.021 A 
ATOM     24  C   UNL     1      -9.427  -8.976  15.205  0.00  0.00    +0.047 A 
ATOM     25  C   UNL     1      -9.639  -9.309  17.589  0.00  0.00    +0.008 A 
ATOM     26  C   UNL     1     -10.226  -7.836  15.293  0.00  0.00    +0.058 A 
ATOM     27  C   UNL     1     -10.439  -8.170  17.677  0.00  0.00    +0.039 A 
ATOM     28  C   UNL     1     -10.731  -7.433  16.529  0.00  0.00    +0.125 A 
ENDBRANCH  19  22
ENDBRANCH  16  19
ENDBRANCH   9  14
BRANCH  11   4
ATOM      4  O   UNL     1      -0.023 -10.263  15.937  0.00  0.00    -0.390 OA
ATOM     29  H   UNL     1       0.549 -10.014  15.190  0.00  0.00    +0.210 HD
ENDBRANCH  11   4
BRANCH   6  13
ATOM     13  C   UNL     1      -3.520 -11.176  12.853  0.00  0.00    +0.120 C 
BRANCH  13  15
ATOM      2  F   UNL     1      -5.850  -7.517   9.258  0.00  0.00    -0.205 F 
ATOM     15  C   UNL     1      -4.143 -10.198  11.893  0.00  0.00    -0.033 A 
ATOM     17  C   UNL     1      -3.437  -9.784  10.764  0.00  0.00    +0.008 A 
ATOM     18  C   UNL     1      -5.426  -9.707  12.131  0.00  0.00    +0.008 A 
ATOM     20  C   UNL     1      -4.012  -8.878   9.874  0.00  0.00    +0.038 A 
ATOM     21  C   UNL     1      -6.003  -8.801  11.241  0.00  0.00    +0.038 A 
ATOM     23  C   UNL     1      -5.296  -8.386  10.112  0.00  0.00    +0.123 A 
ENDBRANCH  13  15
ENDBRANCH   6  13
TORSDOF 6
ENDMDL
MODEL 6
REMARK VINA RESULT:      -6.9      4.000      7.074
REMARK  Name = 26744574
REMARK  6 active torsions:
REMARK  status: ('A' for Active; 'I' for Inactive)
REMARK    1  A    between atoms: O_4  and  C_11
REMARK    2  A    between atoms: N_6  and  C_13
REMARK    3  A    between atoms: C_9  and  C_14
REMARK    4  A    between atoms: C_13  and  C_15
REMARK    5  A    between atoms: C_16  and  C_19
REMARK    6  A    between atoms: C_19  and  C_22
REMARK                            x       y       z     vdW  Elec       q    Type
REMARK                         _______ _______ _______ _____ _____    ______ ____
ROOT
ATOM      6  N   UNL     1      15.030  12.617  17.394  0.00  0.00    -0.285 NA
ATOM      9  C   UNL     1      14.705  11.993  16.096  0.00  0.00    +0.149 C 
ATOM     10  C   UNL     1      16.029  12.011  15.309  0.00  0.00    +0.061 C 
ATOM     11  C   UNL     1      17.026  12.705  16.229  0.00  0.00    +0.130 C 
ATOM     12  C   UNL     1      16.144  13.529  17.148  0.00  0.00    +0.116 C 
ENDROOT
BRANCH   9  14
ATOM      5  O   UNL     1      13.401  10.129  15.203  0.00  0.00    -0.336 OA
ATOM      7  N   UNL     1      14.233   9.765  17.249  0.00  0.00    -0.194 NA
ATOM      8  N   UNL     1      12.982   8.844  15.570  0.00  0.00    -0.061 NA
ATOM     14  C   UNL     1      14.132  10.600  16.246  0.00  0.00    +0.245 A 
ATOM     16  C   UNL     1      13.512   8.702  16.788  0.00  0.00    +0.176 A 
BRANCH  16  19
ATOM     19  C   UNL     1      13.327   7.480  17.579  0.00  0.00    +0.116 C 
BRANCH  19  22
ATOM      1 CL   UNL     1      15.039   6.484  19.960  0.00  0.00    -0.083 Cl
ATOM      3  F   UNL     1      11.293   8.373  22.777  0.00  0.00    -0.205 F 
ATOM     22  C   UNL     1      12.804   7.707  18.994  0.00  0.00    -0.021 A 
ATOM     24  C   UNL     1      13.520   7.286  20.115  0.00  0.00    +0.047 A 
ATOM     25  C   UNL     1      11.578   8.353  19.151  0.00  0.00    +0.008 A 
ATOM     26  C   UNL     1      13.010   7.512  21.393  0.00  0.00    +0.058 A 
ATOM     27  C   UNL     1      11.068   8.579  20.429  0.00  0.00    +0.039 A 
ATOM     28  C   UNL     1      11.783   8.157  21.550  0.00  0.00    +0.125 A 
ENDBRANCH  19  22
ENDBRANCH  16  19
ENDBRANCH   9  14
BRANCH  11   4
ATOM      4  O   UNL     1      17.914  13.516  15.485  0.00  0.00    -0.390 OA
ATOM     29  H   UNL     1      17.447  13.798  14.680  0.00  0.00    +0.210 HD
ENDBRANCH  11   4
BRANCH   6  13
ATOM     13  C   UNL     1      13.893  13.293  18.007  0.00  0.00    +0.120 C 
BRANCH  13  15
ATOM      2  F   UNL     1      12.560  11.057  23.004  0.00  0.00    -0.205 F 
ATOM     15  C   UNL     1      13.538  12.696  19.342  0.00  0.00    -0.033 A 
ATOM     17  C   UNL     1      12.392  13.122  20.013  0.00  0.00    +0.008 A 
ATOM     18  C   UNL     1      14.352  11.715  19.907  0.00  0.00    +0.008 A 
ATOM     20  C   UNL     1      12.061  12.570  21.251  0.00  0.00    +0.038 A 
ATOM     21  C   UNL     1      14.022  11.162  21.144  0.00  0.00    +0.038 A 
ATOM     23  C   UNL     1      12.877  11.589  21.816  0.00  0.00    +0.123 A 
ENDBRANCH  13  15
ENDBRANCH   6  13
TORSDOF 6
ENDMDL
MODEL 7
REMARK VINA RESULT:      -6.9      4.562      5.902
REMARK  Name = 26744574
REMARK  6 active torsions:
REMARK  status: ('A' for Active; 'I' for Inactive)
REMARK    1  A    between atoms: O_4  and  C_11
REMARK    2  A    between atoms: N_6  and  C_13
REMARK    3  A    between atoms: C_9  and  C_14
REMARK    4  A    between atoms: C_13  and  C_15
REMARK    5  A    between atoms: C_16  and  C_19
REMARK    6  A    between atoms: C_19  and  C_22
REMARK                            x       y       z     vdW  Elec       q    Type
REMARK                         _______ _______ _______ _____ _____    ______ ____
ROOT
ATOM      6  N   UNL     1      13.352   7.692  19.838  0.00  0.00    -0.285 NA
ATOM      9  C   UNL     1      12.517   8.600  19.027  0.00  0.00    +0.149 C 
ATOM     10  C   UNL     1      11.196   8.723  19.809  0.00  0.00    +0.061 C 
ATOM     11  C   UNL     1      11.367   7.815  21.020  0.00  0.00    +0.130 C 
ATOM     12  C   UNL     1      12.431   6.829  20.574  0.00  0.00    +0.116 C 
ENDROOT
BRANCH   9  14
ATOM      5  O   UNL     1      13.713  10.560  19.865  0.00  0.00    -0.336 OA
ATOM      7  N   UNL     1      13.318  10.602  17.662  0.00  0.00    -0.194 NA
ATOM      8  N   UNL     1      14.258  11.761  19.395  0.00  0.00    -0.061 NA
ATOM     14  C   UNL     1      13.180   9.938  18.781  0.00  0.00    +0.245 A 
ATOM     16  C   UNL     1      13.985  11.713  18.088  0.00  0.00    +0.176 A 
BRANCH  16  19
ATOM     19  C   UNL     1      14.379  12.790  17.172  0.00  0.00    +0.116 C 
BRANCH  19  22
ATOM      1 CL   UNL     1      14.634  11.394  14.418  0.00  0.00    -0.083 Cl
ATOM      3  F   UNL     1      19.577  12.268  15.011  0.00  0.00    -0.205 F 
ATOM     22  C   UNL     1      15.770  12.634  16.563  0.00  0.00    -0.021 A 
ATOM     24  C   UNL     1      15.962  12.017  15.327  0.00  0.00    +0.047 A 
ATOM     25  C   UNL     1      16.863  13.128  17.275  0.00  0.00    +0.008 A 
ATOM     26  C   UNL     1      17.248  11.894  14.802  0.00  0.00    +0.058 A 
ATOM     27  C   UNL     1      18.149  13.005  16.750  0.00  0.00    +0.039 A 
ATOM     28  C   UNL     1      18.342  12.387  15.514  0.00  0.00    +0.125 A 
ENDBRANCH  19  22
ENDBRANCH  16  19
ENDBRANCH   9  14
BRANCH  11   4
ATOM      4  O   UNL     1      10.151   7.167  21.337  0.00  0.00    -0.390 OA
ATOM     29  H   UNL     1       9.752   7.646  22.084  0.00  0.00    +0.210 HD
ENDBRANCH  11   4
BRANCH   6  13
ATOM     13  C   UNL     1      14.306   6.926  19.046  0.00  0.00    +0.120 C 
BRANCH  13  15
ATOM      2  F   UNL     1      19.481   7.082  21.269  0.00  0.00    -0.205 F 
ATOM     15  C   UNL     1      15.689   6.967  19.640  0.00  0.00    -0.033 A 
ATOM     17  C   UNL     1      15.987   7.883  20.649  0.00  0.00    +0.008 A 
ATOM     18  C   UNL     1      16.672   6.091  19.181  0.00  0.00    +0.008 A 
ATOM     20  C   UNL     1      17.268   7.923  21.200  0.00  0.00    +0.038 A 
ATOM     21  C   UNL     1      17.953   6.130  19.731  0.00  0.00    +0.038 A 
ATOM     23  C   UNL     1      18.251   7.046  20.741  0.00  0.00    +0.123 A 
ENDBRANCH  13  15
ENDBRANCH   6  13
TORSDOF 6
ENDMDL
MODEL 8
REMARK VINA RESULT:      -6.9     26.171     28.710
REMARK  Name = 26744574
REMARK  6 active torsions:
REMARK  status: ('A' for Active; 'I' for Inactive)
REMARK    1  A    between atoms: O_4  and  C_11
REMARK    2  A    between atoms: N_6  and  C_13
REMARK    3  A    between atoms: C_9  and  C_14
REMARK    4  A    between atoms: C_13  and  C_15
REMARK    5  A    between atoms: C_16  and  C_19
REMARK    6  A    between atoms: C_19  and  C_22
REMARK                            x       y       z     vdW  Elec       q    Type
REMARK                         _______ _______ _______ _____ _____    ______ ____
ROOT
ATOM      6  N   UNL     1      -3.117 -10.564  14.233  0.00  0.00    -0.285 NA
ATOM      9  C   UNL     1      -3.403 -11.300  15.480  0.00  0.00    +0.149 C 
ATOM     10  C   UNL     1      -2.249 -10.929  16.431  0.00  0.00    +0.061 C 
ATOM     11  C   UNL     1      -1.344 -10.016  15.614  0.00  0.00    +0.130 C 
ATOM     12  C   UNL     1      -1.668 -10.388  14.179  0.00  0.00    +0.116 C 
ENDROOT
BRANCH   9  14
ATOM      5  O   UNL     1      -5.371 -11.947  16.778  0.00  0.00    -0.336 OA
ATOM      7  N   UNL     1      -5.460  -9.866  15.956  0.00  0.00    -0.194 NA
ATOM      8  N   UNL     1      -6.598 -11.416  17.195  0.00  0.00    -0.061 NA
ATOM     14  C   UNL     1      -4.764 -10.970  16.054  0.00  0.00    +0.245 A 
ATOM     16  C   UNL     1      -6.577 -10.187  16.671  0.00  0.00    +0.176 A 
BRANCH  16  19
ATOM     19  C   UNL     1      -7.687  -9.245  16.855  0.00  0.00    +0.116 C 
BRANCH  19  22
ATOM      1 CL   UNL     1     -10.270  -7.576  17.220  0.00  0.00    -0.083 Cl
ATOM      3  F   UNL     1     -11.405  -9.273  12.596  0.00  0.00    -0.205 F 
ATOM     22  C   UNL     1      -8.709  -9.233  15.722  0.00  0.00    -0.021 A 
ATOM     24  C   UNL     1      -9.895  -8.504  15.815  0.00  0.00    +0.047 A 
ATOM     25  C   UNL     1      -8.434  -9.975  14.574  0.00  0.00    +0.008 A 
ATOM     26  C   UNL     1     -10.805  -8.518  14.758  0.00  0.00    +0.058 A 
ATOM     27  C   UNL     1      -9.344  -9.988  13.517  0.00  0.00    +0.039 A 
ATOM     28  C   UNL     1     -10.530  -9.260  13.610  0.00  0.00    +0.125 A 
ENDBRANCH  19  22
ENDBRANCH  16  19
ENDBRANCH   9  14
BRANCH  11   4
ATOM      4  O   UNL     1       0.016 -10.251  15.923  0.00  0.00    -0.390 OA
ATOM     29  H   UNL     1       0.095 -11.178  16.205  0.00  0.00    +0.210 HD
ENDBRANCH  11   4
BRANCH   6  13
ATOM     13  C   UNL     1      -3.635 -11.225  13.042  0.00  0.00    +0.120 C 
BRANCH  13  15
ATOM      2  F   UNL     1      -5.762  -7.541   9.348  0.00  0.00    -0.205 F 
ATOM     15  C   UNL     1      -4.202 -10.241  12.055  0.00  0.00    -0.033 A 
ATOM     17  C   UNL     1      -5.477  -9.711  12.254  0.00  0.00    +0.008 A 
ATOM     18  C   UNL     1      -3.455  -9.859  10.942  0.00  0.00    +0.008 A 
ATOM     20  C   UNL     1      -6.005  -8.799  11.340  0.00  0.00    +0.038 A 
ATOM     21  C   UNL     1      -3.982  -8.947  10.027  0.00  0.00    +0.038 A 
ATOM     23  C   UNL     1      -5.257  -8.417  10.226  0.00  0.00    +0.123 A 
ENDBRANCH  13  15
ENDBRANCH   6  13
TORSDOF 6
ENDMDL
MODEL 9
REMARK VINA RESULT:      -6.9      4.589      5.842
REMARK  Name = 26744574
REMARK  6 active torsions:
REMARK  status: ('A' for Active; 'I' for Inactive)
REMARK    1  A    between atoms: O_4  and  C_11
REMARK    2  A    between atoms: N_6  and  C_13
REMARK    3  A    between atoms: C_9  and  C_14
REMARK    4  A    between atoms: C_13  and  C_15
REMARK    5  A    between atoms: C_16  and  C_19
REMARK    6  A    between atoms: C_19  and  C_22
REMARK                            x       y       z     vdW  Elec       q    Type
REMARK                         _______ _______ _______ _____ _____    ______ ____
ROOT
ATOM      6  N   UNL     1      13.952   7.580  20.278  0.00  0.00    -0.285 NA
ATOM      9  C   UNL     1      12.888   7.421  19.266  0.00  0.00    +0.149 C 
ATOM     10  C   UNL     1      11.612   7.945  19.950  0.00  0.00    +0.061 C 
ATOM     11  C   UNL     1      12.049   8.333  21.357  0.00  0.00    +0.130 C 
ATOM     12  C   UNL     1      13.297   7.500  21.582  0.00  0.00    +0.116 C 
ENDROOT
BRANCH   9  14
ATOM      5  O   UNL     1      13.628   7.379  16.937  0.00  0.00    -0.336 OA
ATOM      7  N   UNL     1      13.120   9.422  17.699  0.00  0.00    -0.194 NA
ATOM      8  N   UNL     1      13.850   8.258  15.869  0.00  0.00    -0.061 NA
ATOM     14  C   UNL     1      13.200   8.145  17.974  0.00  0.00    +0.245 A 
ATOM     16  C   UNL     1      13.529   9.443  16.397  0.00  0.00    +0.176 A 
BRANCH  16  19
ATOM     19  C   UNL     1      13.613  10.687  15.623  0.00  0.00    +0.116 C 
BRANCH  19  22
ATOM      1 CL   UNL     1      14.169  12.739  17.876  0.00  0.00    -0.083 Cl
ATOM      3  F   UNL     1      18.695  13.165  15.665  0.00  0.00    -0.205 F 
ATOM     22  C   UNL     1      14.976  11.372  15.660  0.00  0.00    -0.021 A 
ATOM     24  C   UNL     1      15.298  12.306  16.645  0.00  0.00    +0.047 A 
ATOM     25  C   UNL     1      15.910  11.043  14.678  0.00  0.00    +0.008 A 
ATOM     26  C   UNL     1      16.555  12.912  16.646  0.00  0.00    +0.058 A 
ATOM     27  C   UNL     1      17.166  11.648  14.680  0.00  0.00    +0.039 A 
ATOM     28  C   UNL     1      17.488  12.583  15.664  0.00  0.00    +0.125 A 
ENDBRANCH  19  22
ENDBRANCH  16  19
ENDBRANCH   9  14
BRANCH  11   4
ATOM      4  O   UNL     1      11.039   8.030  22.298  0.00  0.00    -0.390 OA
ATOM     29  H   UNL     1      11.396   8.222  23.182  0.00  0.00    +0.210 HD
ENDBRANCH  11   4
BRANCH   6  13
ATOM     13  C   UNL     1      15.025   6.603  20.143  0.00  0.00    +0.120 C 
BRANCH  13  15
ATOM      2  F   UNL     1      20.025   8.770  21.578  0.00  0.00    -0.205 F 
ATOM     15  C   UNL     1      16.361   7.181  20.526  0.00  0.00    -0.033 A 
ATOM     17  C   UNL     1      16.475   8.542  20.812  0.00  0.00    +0.008 A 
ATOM     18  C   UNL     1      17.484   6.358  20.596  0.00  0.00    +0.008 A 
ATOM     20  C   UNL     1      17.713   9.079  21.166  0.00  0.00    +0.038 A 
ATOM     21  C   UNL     1      18.722   6.895  20.951  0.00  0.00    +0.038 A 
ATOM     23  C   UNL     1      18.836   8.255  21.236  0.00  0.00    +0.123 A 
ENDBRANCH  13  15
ENDBRANCH   6  13
TORSDOF 6
ENDMDL
MODEL 10
REMARK VINA RESULT:      -6.8     27.457     29.208
REMARK  Name = 26744574
REMARK  6 active torsions:
REMARK  status: ('A' for Active; 'I' for Inactive)
REMARK    1  A    between atoms: O_4  and  C_11
REMARK    2  A    between atoms: N_6  and  C_13
REMARK    3  A    between atoms: C_9  and  C_14
REMARK    4  A    between atoms: C_13  and  C_15
REMARK    5  A    between atoms: C_16  and  C_19
REMARK    6  A    between atoms: C_19  and  C_22
REMARK                            x       y       z     vdW  Elec       q    Type
REMARK                         _______ _______ _______ _____ _____    ______ ____
ROOT
ATOM      6  N   UNL     1      -5.771 -10.903  16.559  0.00  0.00    -0.285 NA
ATOM      9  C   UNL     1      -4.427 -10.874  17.170  0.00  0.00    +0.149 C 
ATOM     10  C   UNL     1      -4.488 -11.913  18.305  0.00  0.00    +0.061 C 
ATOM     11  C   UNL     1      -5.917 -12.439  18.282  0.00  0.00    +0.130 C 
ATOM     12  C   UNL     1      -6.694 -11.323  17.610  0.00  0.00    +0.116 C 
ENDROOT
BRANCH   9  14
ATOM      5  O   UNL     1      -2.068 -10.801  16.535  0.00  0.00    -0.336 OA
ATOM      7  N   UNL     1      -3.404 -11.712  14.987  0.00  0.00    -0.194 NA
ATOM      8  N   UNL     1      -1.236 -11.159  15.466  0.00  0.00    -0.061 NA
ATOM     14  C   UNL     1      -3.326 -11.161  16.171  0.00  0.00    +0.245 A 
ATOM     16  C   UNL     1      -2.097 -11.689  14.593  0.00  0.00    +0.176 A 
BRANCH  16  19
ATOM     19  C   UNL     1      -1.663 -12.212  13.293  0.00  0.00    +0.116 C 
BRANCH  19  22
ATOM      1 CL   UNL     1      -3.538 -13.965  11.559  0.00  0.00    -0.083 Cl
ATOM      3  F   UNL     1      -4.132  -9.740   8.848  0.00  0.00    -0.205 F 
ATOM     22  C   UNL     1      -2.344 -11.573  12.086  0.00  0.00    -0.021 A 
ATOM     24  C   UNL     1      -3.201 -12.299  11.260  0.00  0.00    +0.047 A 
ATOM     25  C   UNL     1      -2.090 -10.228  11.819  0.00  0.00    +0.008 A 
ATOM     26  C   UNL     1      -3.806 -11.680  10.166  0.00  0.00    +0.058 A 
ATOM     27  C   UNL     1      -2.695  -9.608  10.726  0.00  0.00    +0.039 A 
ATOM     28  C   UNL     1      -3.552 -10.335   9.899  0.00  0.00    +0.125 A 
ENDBRANCH  19  22
ENDBRANCH  16  19
ENDBRANCH   9  14
BRANCH  11   4
ATOM      4  O   UNL     1      -6.382 -12.686  19.595  0.00  0.00    -0.390 OA
ATOM     29  H   UNL     1      -5.937 -12.055  20.185  0.00  0.00    +0.210 HD
ENDBRANCH  11   4
BRANCH   6  13
ATOM     13  C   UNL     1      -6.159  -9.631  15.963  0.00  0.00    +0.120 C 
BRANCH  13  15
ATOM      2  F   UNL     1      -8.339 -10.303  10.811  0.00  0.00    -0.205 F 
ATOM     15  C   UNL     1      -6.741  -9.811  14.586  0.00  0.00    -0.033 A 
ATOM     17  C   UNL     1      -8.122  -9.908  14.421  0.00  0.00    +0.008 A 
ATOM     18  C   UNL     1      -5.900  -9.879  13.477  0.00  0.00    +0.008 A 
ATOM     20  C   UNL     1      -8.663 -10.075  13.146  0.00  0.00    +0.038 A 
ATOM     21  C   UNL     1      -6.439 -10.046  12.201  0.00  0.00    +0.038 A 
ATOM     23  C   UNL     1      -7.821 -10.143  12.036  0.00  0.00    +0.123 A 
ENDBRANCH  13  15
ENDBRANCH   6  13
TORSDOF 6
ENDMDL
