MODEL 1
REMARK VINA RESULT:      -7.0      0.000      0.000
REMARK  Name = 71693544
REMARK  12 active torsions:
REMARK  status: ('A' for Active; 'I' for Inactive)
REMARK    1  A    between atoms: O_2  and  C_10
REMARK    2  A    between atoms: N_5  and  C_12
REMARK    3  A    between atoms: N_6  and  C_23
REMARK    4  A    between atoms: N_7  and  C_17
REMARK    5  A    between atoms: C_8  and  C_10
REMARK    6  A    between atoms: C_9  and  C_11
REMARK    7  A    between atoms: C_12  and  C_17
REMARK    8  A    between atoms: C_15  and  C_16
REMARK    9  A    between atoms: C_15  and  C_20
REMARK   10  A    between atoms: C_15  and  C_21
REMARK   11  A    between atoms: C_15  and  C_22
REMARK   12  A    between atoms: C_16  and  C_26
REMARK                            x       y       z     vdW  Elec       q    Type
REMARK                         _______ _______ _______ _____ _____    ______ ____
ROOT
ATOM      1  O   UNL     1      15.202   7.131  18.191  0.00  0.00    -0.361 OA
ATOM      3  O   UNL     1      11.680   7.346  17.706  0.00  0.00    -0.273 OA
ATOM      5  N   UNL     1      12.879   7.278  19.703  0.00  0.00    -0.290 N 
ATOM      8  C   UNL     1      14.198   7.155  20.373  0.00  0.00    +0.135 C 
ATOM      9  C   UNL     1      15.326   7.718  19.487  0.00  0.00    +0.171 C 
ATOM     13  C   UNL     1      12.751   7.370  18.316  0.00  0.00    +0.242 C 
ATOM     14  C   UNL     1      14.038   7.585  17.545  0.00  0.00    +0.256 C 
ENDROOT
BRANCH   9  11
ATOM     11  C   UNL     1      16.722   7.404  19.985  0.00  0.00    -0.017 A 
ATOM     18  C   UNL     1      17.320   6.185  19.665  0.00  0.00    +0.008 A 
ATOM     19  C   UNL     1      17.410   8.334  20.765  0.00  0.00    +0.008 A 
ATOM     23  C   UNL     1      19.293   6.827  20.902  0.00  0.00    +0.033 A 
ATOM     24  C   UNL     1      18.605   5.896  20.123  0.00  0.00    +0.023 A 
ATOM     25  C   UNL     1      18.695   8.046  21.223  0.00  0.00    +0.023 A 
BRANCH  23   6
ATOM      4  O   UNL     1      20.261   6.094  23.649  0.00  0.00    -0.275 OA
ATOM      6  N   UNL     1      20.597   6.534  21.366  0.00  0.00    -0.285 N 
ATOM     26  C   UNL     1      20.980   6.202  22.659  0.00  0.00    +0.218 C 
ATOM     28  H   UNL     1      21.324   6.579  20.656  0.00  0.00    +0.155 HD
BRANCH  26  16
ATOM     16  C   UNL     1      22.480   5.954  22.767  0.00  0.00    +0.102 C 
BRANCH  16  15
ATOM     15  C   UNL     1      22.894   4.464  22.731  0.00  0.00    -0.029 C 
ATOM     20  C   UNL     1      22.928   3.943  24.181  0.00  0.00    +0.011 C 
ATOM     21  C   UNL     1      21.877   3.626  21.938  0.00  0.00    +0.011 C 
ATOM     22  C   UNL     1      24.292   4.280  22.116  0.00  0.00    +0.011 C 
ENDBRANCH  16  15
ENDBRANCH  26  16
ENDBRANCH  23   6
ENDBRANCH   9  11
BRANCH   8  10
ATOM     10  C   UNL     1      14.217   7.818  21.758  0.00  0.00    +0.181 C 
BRANCH  10   2
ATOM      2  O   UNL     1      14.906   6.963  22.647  0.00  0.00    -0.393 OA
ATOM     27  H   UNL     1      14.556   7.133  23.538  0.00  0.00    +0.209 HD
ENDBRANCH  10   2
ENDBRANCH   8  10
BRANCH   5  12
ATOM     12  C   UNL     1      11.679   7.053  20.503  0.00  0.00    +0.123 C 
BRANCH  12  17
ATOM     17  C   UNL     1      10.915   8.350  20.726  0.00  0.00    +0.096 C 
BRANCH  17   7
ATOM      7  N   UNL     1      10.152   8.282  21.966  0.00  0.00    -0.328 NA
ATOM     29  H   UNL     1       9.472   9.041  21.993  0.00  0.00    +0.118 HD
ATOM     30  H   UNL     1       9.615   7.416  21.987  0.00  0.00    +0.118 HD
ENDBRANCH  17   7
ENDBRANCH  12  17
ENDBRANCH   5  12
TORSDOF 9
ENDMDL
MODEL 2
REMARK VINA RESULT:      -6.2      1.988      9.217
REMARK  Name = 71693544
REMARK  12 active torsions:
REMARK  status: ('A' for Active; 'I' for Inactive)
REMARK    1  A    between atoms: O_2  and  C_10
REMARK    2  A    between atoms: N_5  and  C_12
REMARK    3  A    between atoms: N_6  and  C_23
REMARK    4  A    between atoms: N_7  and  C_17
REMARK    5  A    between atoms: C_8  and  C_10
REMARK    6  A    between atoms: C_9  and  C_11
REMARK    7  A    between atoms: C_12  and  C_17
REMARK    8  A    between atoms: C_15  and  C_16
REMARK    9  A    between atoms: C_15  and  C_20
REMARK   10  A    between atoms: C_15  and  C_21
REMARK   11  A    between atoms: C_15  and  C_22
REMARK   12  A    between atoms: C_16  and  C_26
REMARK                            x       y       z     vdW  Elec       q    Type
REMARK                         _______ _______ _______ _____ _____    ______ ____
ROOT
ATOM      1  O   UNL     1      19.899   6.605  23.571  0.00  0.00    -0.361 OA
ATOM      3  O   UNL     1      23.025   5.600  24.954  0.00  0.00    -0.273 OA
ATOM      5  N   UNL     1      22.312   5.517  22.737  0.00  0.00    -0.290 N 
ATOM      8  C   UNL     1      21.218   5.741  21.759  0.00  0.00    +0.135 C 
ATOM      9  C   UNL     1      20.282   6.875  22.222  0.00  0.00    +0.171 C 
ATOM     13  C   UNL     1      22.199   5.878  24.081  0.00  0.00    +0.242 C 
ATOM     14  C   UNL     1      20.999   6.731  24.438  0.00  0.00    +0.256 C 
ENDROOT
BRANCH   9  11
ATOM     11  C   UNL     1      19.007   6.996  21.414  0.00  0.00    -0.017 A 
ATOM     18  C   UNL     1      18.626   5.968  20.551  0.00  0.00    +0.008 A 
ATOM     19  C   UNL     1      18.211   8.135  21.534  0.00  0.00    +0.008 A 
ATOM     23  C   UNL     1      16.656   7.220  19.928  0.00  0.00    +0.033 A 
ATOM     24  C   UNL     1      17.452   6.079  19.808  0.00  0.00    +0.023 A 
ATOM     25  C   UNL     1      17.037   8.247  20.791  0.00  0.00    +0.023 A 
BRANCH  23   6
ATOM      4  O   UNL     1      13.793   6.848  20.753  0.00  0.00    -0.275 OA
ATOM      6  N   UNL     1      15.464   7.331  19.174  0.00  0.00    -0.285 N 
ATOM     26  C   UNL     1      14.161   7.143  19.619  0.00  0.00    +0.218 C 
ATOM     28  H   UNL     1      15.597   7.575  18.196  0.00  0.00    +0.155 HD
BRANCH  26  16
ATOM     16  C   UNL     1      13.140   7.353  18.509  0.00  0.00    +0.102 C 
BRANCH  16  15
ATOM     15  C   UNL     1      12.342   8.676  18.605  0.00  0.00    -0.029 C 
ATOM     20  C   UNL     1      11.759   8.984  17.212  0.00  0.00    +0.011 C 
ATOM     21  C   UNL     1      11.177   8.548  19.601  0.00  0.00    +0.011 C 
ATOM     22  C   UNL     1      13.242   9.850  19.026  0.00  0.00    +0.011 C 
ENDBRANCH  16  15
ENDBRANCH  26  16
ENDBRANCH  23   6
ENDBRANCH   9  11
BRANCH   8  10
ATOM     10  C   UNL     1      21.743   6.018  20.343  0.00  0.00    +0.181 C 
BRANCH  10   2
ATOM      2  O   UNL     1      21.543   4.858  19.563  0.00  0.00    -0.393 OA
ATOM     27  H   UNL     1      21.406   5.148  18.645  0.00  0.00    +0.209 HD
ENDBRANCH  10   2
ENDBRANCH   8  10
BRANCH   5  12
ATOM     12  C   UNL     1      23.436   4.680  22.328  0.00  0.00    +0.123 C 
BRANCH  12  17
ATOM     17  C   UNL     1      23.046   3.209  22.301  0.00  0.00    +0.096 C 
BRANCH  17   7
ATOM      7  N   UNL     1      23.081   2.701  20.935  0.00  0.00    -0.328 NA
ATOM     29  H   UNL     1      23.157   1.685  20.949  0.00  0.00    +0.118 HD
ATOM     30  H   UNL     1      22.199   2.916  20.472  0.00  0.00    +0.118 HD
ENDBRANCH  17   7
ENDBRANCH  12  17
ENDBRANCH   5  12
TORSDOF 9
ENDMDL
MODEL 3
REMARK VINA RESULT:      -6.0     16.587     20.797
REMARK  Name = 71693544
REMARK  12 active torsions:
REMARK  status: ('A' for Active; 'I' for Inactive)
REMARK    1  A    between atoms: O_2  and  C_10
REMARK    2  A    between atoms: N_5  and  C_12
REMARK    3  A    between atoms: N_6  and  C_23
REMARK    4  A    between atoms: N_7  and  C_17
REMARK    5  A    between atoms: C_8  and  C_10
REMARK    6  A    between atoms: C_9  and  C_11
REMARK    7  A    between atoms: C_12  and  C_17
REMARK    8  A    between atoms: C_15  and  C_16
REMARK    9  A    between atoms: C_15  and  C_20
REMARK   10  A    between atoms: C_15  and  C_21
REMARK   11  A    between atoms: C_15  and  C_22
REMARK   12  A    between atoms: C_16  and  C_26
REMARK                            x       y       z     vdW  Elec       q    Type
REMARK                         _______ _______ _______ _____ _____    ______ ____
ROOT
ATOM      1  O   UNL     1       8.889   5.818   4.695  0.00  0.00    -0.361 OA
ATOM      3  O   UNL     1       9.101   7.362   7.899  0.00  0.00    -0.273 OA
ATOM      5  N   UNL     1      10.756   7.131   6.275  0.00  0.00    -0.290 N 
ATOM      8  C   UNL     1      11.149   6.593   4.948  0.00  0.00    +0.135 C 
ATOM      9  C   UNL     1       9.934   6.503   4.003  0.00  0.00    +0.171 C 
ATOM     13  C   UNL     1       9.450   7.046   6.759  0.00  0.00    +0.242 C 
ATOM     14  C   UNL     1       8.402   6.597   5.761  0.00  0.00    +0.256 C 
ENDROOT
BRANCH   9  11
ATOM     11  C   UNL     1      10.198   5.734   2.725  0.00  0.00    -0.017 A 
ATOM     18  C   UNL     1       9.940   6.325   1.489  0.00  0.00    +0.008 A 
ATOM     19  C   UNL     1      10.699   4.433   2.785  0.00  0.00    +0.008 A 
ATOM     23  C   UNL     1      10.684   4.316   0.372  0.00  0.00    +0.033 A 
ATOM     24  C   UNL     1      10.183   5.618   0.312  0.00  0.00    +0.023 A 
ATOM     25  C   UNL     1      10.942   3.725   1.609  0.00  0.00    +0.023 A 
BRANCH  23   6
ATOM      4  O   UNL     1      13.277   3.518  -0.915  0.00  0.00    -0.275 OA
ATOM      6  N   UNL     1      10.932   3.599  -0.822  0.00  0.00    -0.285 N 
ATOM     26  C   UNL     1      12.165   3.263  -1.367  0.00  0.00    +0.218 C 
ATOM     28  H   UNL     1      10.098   3.308  -1.327  0.00  0.00    +0.155 HD
BRANCH  26  16
ATOM     16  C   UNL     1      12.023   2.484  -2.669  0.00  0.00    +0.102 C 
BRANCH  16  15
ATOM     15  C   UNL     1      11.704   3.350  -3.911  0.00  0.00    -0.029 C 
ATOM     20  C   UNL     1      12.618   2.889  -5.062  0.00  0.00    +0.011 C 
ATOM     21  C   UNL     1      10.241   3.171  -4.350  0.00  0.00    +0.011 C 
ATOM     22  C   UNL     1      11.974   4.841  -3.644  0.00  0.00    +0.011 C 
ENDBRANCH  16  15
ENDBRANCH  26  16
ENDBRANCH  23   6
ENDBRANCH   9  11
BRANCH   8  10
ATOM     10  C   UNL     1      12.280   7.401   4.298  0.00  0.00    +0.181 C 
BRANCH  10   2
ATOM      2  O   UNL     1      13.426   6.579   4.227  0.00  0.00    -0.393 OA
ATOM     27  H   UNL     1      13.791   6.515   5.126  0.00  0.00    +0.209 HD
ENDBRANCH  10   2
ENDBRANCH   8  10
BRANCH   5  12
ATOM     12  C   UNL     1      11.817   7.540   7.190  0.00  0.00    +0.123 C 
BRANCH  12  17
ATOM     17  C   UNL     1      12.492   6.334   7.825  0.00  0.00    +0.096 C 
BRANCH  17   7
ATOM      7  N   UNL     1      13.860   6.203   7.339  0.00  0.00    -0.328 NA
ATOM     29  H   UNL     1      14.087   6.994   6.736  0.00  0.00    +0.118 HD
ATOM     30  H   UNL     1      14.506   6.250   8.126  0.00  0.00    +0.118 HD
ENDBRANCH  17   7
ENDBRANCH  12  17
ENDBRANCH   5  12
TORSDOF 9
ENDMDL
MODEL 4
REMARK VINA RESULT:      -5.9     26.542     31.106
REMARK  Name = 71693544
REMARK  12 active torsions:
REMARK  status: ('A' for Active; 'I' for Inactive)
REMARK    1  A    between atoms: O_2  and  C_10
REMARK    2  A    between atoms: N_5  and  C_12
REMARK    3  A    between atoms: N_6  and  C_23
REMARK    4  A    between atoms: N_7  and  C_17
REMARK    5  A    between atoms: C_8  and  C_10
REMARK    6  A    between atoms: C_9  and  C_11
REMARK    7  A    between atoms: C_12  and  C_17
REMARK    8  A    between atoms: C_15  and  C_16
REMARK    9  A    between atoms: C_15  and  C_20
REMARK   10  A    between atoms: C_15  and  C_21
REMARK   11  A    between atoms: C_15  and  C_22
REMARK   12  A    between atoms: C_16  and  C_26
REMARK                            x       y       z     vdW  Elec       q    Type
REMARK                         _______ _______ _______ _____ _____    ______ ____
ROOT
ATOM      1  O   UNL     1      -5.829  -9.810  13.765  0.00  0.00    -0.361 OA
ATOM      3  O   UNL     1      -2.770 -10.476  12.064  0.00  0.00    -0.273 OA
ATOM      5  N   UNL     1      -3.449 -11.177  14.180  0.00  0.00    -0.290 N 
ATOM      8  C   UNL     1      -4.482 -11.140  15.244  0.00  0.00    +0.135 C 
ATOM      9  C   UNL     1      -5.888 -10.930  14.648  0.00  0.00    +0.171 C 
ATOM     13  C   UNL     1      -3.640 -10.581  12.932  0.00  0.00    +0.242 C 
ATOM     14  C   UNL     1      -5.047 -10.106  12.633  0.00  0.00    +0.256 C 
ENDROOT
BRANCH   9  11
ATOM     11  C   UNL     1      -6.960 -10.629  15.675  0.00  0.00    -0.017 A 
ATOM     18  C   UNL     1      -6.804  -9.557  16.554  0.00  0.00    +0.008 A 
ATOM     19  C   UNL     1      -8.104 -11.424  15.743  0.00  0.00    +0.008 A 
ATOM     23  C   UNL     1      -8.935 -10.075  17.566  0.00  0.00    +0.033 A 
ATOM     24  C   UNL     1      -7.790  -9.279  17.499  0.00  0.00    +0.023 A 
ATOM     25  C   UNL     1      -9.091 -11.147  16.687  0.00  0.00    +0.023 A 
BRANCH  23   6
ATOM      4  O   UNL     1      -9.587 -11.443  20.158  0.00  0.00    -0.275 OA
ATOM      6  N   UNL     1      -9.937  -9.792  18.524  0.00  0.00    -0.285 N 
ATOM     26  C   UNL     1     -10.189 -10.471  19.710  0.00  0.00    +0.218 C 
ATOM     28  H   UNL     1     -10.533  -8.999  18.300  0.00  0.00    +0.155 HD
BRANCH  26  16
ATOM     16  C   UNL     1     -11.356  -9.866  20.480  0.00  0.00    +0.102 C 
BRANCH  16  15
ATOM     15  C   UNL     1     -12.727 -10.529  20.205  0.00  0.00    -0.029 C 
ATOM     20  C   UNL     1     -12.841 -11.778  21.102  0.00  0.00    +0.011 C 
ATOM     21  C   UNL     1     -13.882  -9.575  20.550  0.00  0.00    +0.011 C 
ATOM     22  C   UNL     1     -12.856 -10.972  18.738  0.00  0.00    +0.011 C 
ENDBRANCH  16  15
ENDBRANCH  26  16
ENDBRANCH  23   6
ENDBRANCH   9  11
BRANCH   8  10
ATOM     10  C   UNL     1      -4.454 -12.390  16.135  0.00  0.00    +0.181 C 
BRANCH  10   2
ATOM      2  O   UNL     1      -3.980 -12.013  17.411  0.00  0.00    -0.393 OA
ATOM     27  H   UNL     1      -3.782 -12.830  17.898  0.00  0.00    +0.209 HD
ENDBRANCH  10   2
ENDBRANCH   8  10
BRANCH   5  12
ATOM     12  C   UNL     1      -2.112 -11.641  14.537  0.00  0.00    +0.123 C 
BRANCH  12  17
ATOM     17  C   UNL     1      -1.333 -10.561  15.274  0.00  0.00    +0.096 C 
BRANCH  17   7
ATOM      7  N   UNL     1      -1.194 -10.907  16.683  0.00  0.00    -0.328 NA
ATOM     29  H   UNL     1      -1.767 -11.724  16.893  0.00  0.00    +0.118 HD
ATOM     30  H   UNL     1      -0.230 -11.178  16.872  0.00  0.00    +0.118 HD
ENDBRANCH  17   7
ENDBRANCH  12  17
ENDBRANCH   5  12
TORSDOF 9
ENDMDL
MODEL 5
REMARK VINA RESULT:      -5.8     22.622     27.800
REMARK  Name = 71693544
REMARK  12 active torsions:
REMARK  status: ('A' for Active; 'I' for Inactive)
REMARK    1  A    between atoms: O_2  and  C_10
REMARK    2  A    between atoms: N_5  and  C_12
REMARK    3  A    between atoms: N_6  and  C_23
REMARK    4  A    between atoms: N_7  and  C_17
REMARK    5  A    between atoms: C_8  and  C_10
REMARK    6  A    between atoms: C_9  and  C_11
REMARK    7  A    between atoms: C_12  and  C_17
REMARK    8  A    between atoms: C_15  and  C_16
REMARK    9  A    between atoms: C_15  and  C_20
REMARK   10  A    between atoms: C_15  and  C_21
REMARK   11  A    between atoms: C_15  and  C_22
REMARK   12  A    between atoms: C_16  and  C_26
REMARK                            x       y       z     vdW  Elec       q    Type
REMARK                         _______ _______ _______ _____ _____    ______ ____
ROOT
ATOM      1  O   UNL     1      -1.717   9.569   3.255  0.00  0.00    -0.361 OA
ATOM      3  O   UNL     1       0.873  11.983   3.648  0.00  0.00    -0.273 OA
ATOM      5  N   UNL     1      -0.757  11.326   5.177  0.00  0.00    -0.290 N 
ATOM      8  C   UNL     1      -1.954  10.496   5.458  0.00  0.00    +0.135 C 
ATOM      9  C   UNL     1      -1.946   9.205   4.616  0.00  0.00    +0.171 C 
ATOM     13  C   UNL     1      -0.046  11.232   3.980  0.00  0.00    +0.242 C 
ATOM     14  C   UNL     1      -0.412  10.066   3.083  0.00  0.00    +0.256 C 
ENDROOT
BRANCH   9  11
ATOM     11  C   UNL     1      -3.246   8.429   4.655  0.00  0.00    -0.017 A 
ATOM     18  C   UNL     1      -4.394   8.961   4.069  0.00  0.00    +0.008 A 
ATOM     19  C   UNL     1      -3.296   7.182   5.278  0.00  0.00    +0.008 A 
ATOM     23  C   UNL     1      -5.641   6.999   4.727  0.00  0.00    +0.033 A 
ATOM     24  C   UNL     1      -5.592   8.247   4.104  0.00  0.00    +0.023 A 
ATOM     25  C   UNL     1      -4.493   6.467   5.313  0.00  0.00    +0.023 A 
BRANCH  23   6
ATOM      4  O   UNL     1      -8.239   7.624   6.097  0.00  0.00    -0.275 OA
ATOM      6  N   UNL     1      -6.855   6.274   4.761  0.00  0.00    -0.285 N 
ATOM     26  C   UNL     1      -8.028   6.620   5.421  0.00  0.00    +0.218 C 
ATOM     28  H   UNL     1      -6.848   5.401   4.240  0.00  0.00    +0.155 HD
BRANCH  26  16
ATOM     16  C   UNL     1      -9.125   5.582   5.222  0.00  0.00    +0.102 C 
BRANCH  16  15
ATOM     15  C   UNL     1      -9.892   5.699   3.883  0.00  0.00    -0.029 C 
ATOM     20  C   UNL     1      -9.676   7.122   3.332  0.00  0.00    +0.011 C 
ATOM     21  C   UNL     1      -9.358   4.692   2.850  0.00  0.00    +0.011 C 
ATOM     22  C   UNL     1     -11.402   5.476   4.074  0.00  0.00    +0.011 C 
ENDBRANCH  16  15
ENDBRANCH  26  16
ENDBRANCH  23   6
ENDBRANCH   9  11
BRANCH   8  10
ATOM     10  C   UNL     1      -2.104  10.166   6.950  0.00  0.00    +0.181 C 
BRANCH  10   2
ATOM      2  O   UNL     1      -1.010   9.360   7.336  0.00  0.00    -0.393 OA
ATOM     27  H   UNL     1      -0.433   9.267   6.560  0.00  0.00    +0.209 HD
ENDBRANCH  10   2
ENDBRANCH   8  10
BRANCH   5  12
ATOM     12  C   UNL     1      -0.466  12.437   6.079  0.00  0.00    +0.123 C 
BRANCH  12  17
ATOM     17  C   UNL     1       0.915  12.292   6.701  0.00  0.00    +0.096 C 
BRANCH  17   7
ATOM      7  N   UNL     1       0.810  11.740   8.046  0.00  0.00    -0.328 NA
ATOM     29  H   UNL     1       1.157  12.418   8.724  0.00  0.00    +0.118 HD
ATOM     30  H   UNL     1      -0.172  11.587   8.273  0.00  0.00    +0.118 HD
ENDBRANCH  17   7
ENDBRANCH  12  17
ENDBRANCH   5  12
TORSDOF 9
ENDMDL
MODEL 6
REMARK VINA RESULT:      -5.8     27.959     31.298
REMARK  Name = 71693544
REMARK  12 active torsions:
REMARK  status: ('A' for Active; 'I' for Inactive)
REMARK    1  A    between atoms: O_2  and  C_10
REMARK    2  A    between atoms: N_5  and  C_12
REMARK    3  A    between atoms: N_6  and  C_23
REMARK    4  A    between atoms: N_7  and  C_17
REMARK    5  A    between atoms: C_8  and  C_10
REMARK    6  A    between atoms: C_9  and  C_11
REMARK    7  A    between atoms: C_12  and  C_17
REMARK    8  A    between atoms: C_15  and  C_16
REMARK    9  A    between atoms: C_15  and  C_20
REMARK   10  A    between atoms: C_15  and  C_21
REMARK   11  A    between atoms: C_15  and  C_22
REMARK   12  A    between atoms: C_16  and  C_26
REMARK                            x       y       z     vdW  Elec       q    Type
REMARK                         _______ _______ _______ _____ _____    ______ ____
ROOT
ATOM      1  O   UNL     1     -10.821   8.611  19.899  0.00  0.00    -0.361 OA
ATOM      3  O   UNL     1      -9.834  10.177  16.855  0.00  0.00    -0.273 OA
ATOM      5  N   UNL     1     -11.771   8.966  17.315  0.00  0.00    -0.290 N 
ATOM      8  C   UNL     1     -12.548   8.162  18.291  0.00  0.00    +0.135 C 
ATOM      9  C   UNL     1     -12.240   8.593  19.738  0.00  0.00    +0.171 C 
ATOM     13  C   UNL     1     -10.578   9.605  17.655  0.00  0.00    +0.242 C 
ATOM     14  C   UNL     1     -10.243   9.640  19.133  0.00  0.00    +0.256 C 
ENDROOT
BRANCH   9  11
ATOM     11  C   UNL     1     -12.795   7.662  20.795  0.00  0.00    -0.017 A 
ATOM     18  C   UNL     1     -12.219   6.406  20.992  0.00  0.00    +0.008 A 
ATOM     19  C   UNL     1     -13.883   8.059  21.573  0.00  0.00    +0.008 A 
ATOM     23  C   UNL     1     -13.818   5.947  22.744  0.00  0.00    +0.033 A 
ATOM     24  C   UNL     1     -12.730   5.548  21.965  0.00  0.00    +0.023 A 
ATOM     25  C   UNL     1     -14.394   7.202  22.547  0.00  0.00    +0.023 A 
BRANCH  23   6
ATOM      4  O   UNL     1     -16.035   3.927  22.589  0.00  0.00    -0.275 OA
ATOM      6  N   UNL     1     -14.335   5.077  23.732  0.00  0.00    -0.285 N 
ATOM     26  C   UNL     1     -15.371   4.162  23.596  0.00  0.00    +0.218 C 
ATOM     28  H   UNL     1     -13.885   5.147  24.642  0.00  0.00    +0.155 HD
BRANCH  26  16
ATOM     16  C   UNL     1     -15.641   3.403  24.889  0.00  0.00    +0.102 C 
BRANCH  16  15
ATOM     15  C   UNL     1     -16.890   3.877  25.670  0.00  0.00    -0.029 C 
ATOM     20  C   UNL     1     -16.576   3.783  27.176  0.00  0.00    +0.011 C 
ATOM     21  C   UNL     1     -17.230   5.340  25.335  0.00  0.00    +0.011 C 
ATOM     22  C   UNL     1     -18.112   2.992  25.373  0.00  0.00    +0.011 C 
ENDBRANCH  16  15
ENDBRANCH  26  16
ENDBRANCH  23   6
ENDBRANCH   9  11
BRANCH   8  10
ATOM     10  C   UNL     1     -14.059   8.212  18.022  0.00  0.00    +0.181 C 
BRANCH  10   2
ATOM      2  O   UNL     1     -14.521   9.510  18.337  0.00  0.00    -0.393 OA
ATOM     27  H   UNL     1     -14.295  10.085  17.587  0.00  0.00    +0.209 HD
ENDBRANCH  10   2
ENDBRANCH   8  10
BRANCH   5  12
ATOM     12  C   UNL     1     -12.143   8.882  15.906  0.00  0.00    +0.123 C 
BRANCH  12  17
ATOM     17  C   UNL     1     -11.120   8.083  15.113  0.00  0.00    +0.096 C 
BRANCH  17   7
ATOM      7  N   UNL     1     -10.522   8.912  14.074  0.00  0.00    -0.328 NA
ATOM     29  H   UNL     1     -11.109   8.895  13.241  0.00  0.00    +0.118 HD
ATOM     30  H   UNL     1     -10.499   9.882  14.387  0.00  0.00    +0.118 HD
ENDBRANCH  17   7
ENDBRANCH  12  17
ENDBRANCH   5  12
TORSDOF 9
ENDMDL
MODEL 7
REMARK VINA RESULT:      -5.6     16.927     21.194
REMARK  Name = 71693544
REMARK  12 active torsions:
REMARK  status: ('A' for Active; 'I' for Inactive)
REMARK    1  A    between atoms: O_2  and  C_10
REMARK    2  A    between atoms: N_5  and  C_12
REMARK    3  A    between atoms: N_6  and  C_23
REMARK    4  A    between atoms: N_7  and  C_17
REMARK    5  A    between atoms: C_8  and  C_10
REMARK    6  A    between atoms: C_9  and  C_11
REMARK    7  A    between atoms: C_12  and  C_17
REMARK    8  A    between atoms: C_15  and  C_16
REMARK    9  A    between atoms: C_15  and  C_20
REMARK   10  A    between atoms: C_15  and  C_21
REMARK   11  A    between atoms: C_15  and  C_22
REMARK   12  A    between atoms: C_16  and  C_26
REMARK                            x       y       z     vdW  Elec       q    Type
REMARK                         _______ _______ _______ _____ _____    ______ ____
ROOT
ATOM      1  O   UNL     1      12.168   7.059   3.969  0.00  0.00    -0.361 OA
ATOM      3  O   UNL     1      12.251   8.068   7.384  0.00  0.00    -0.273 OA
ATOM      5  N   UNL     1      10.654   6.781   6.279  0.00  0.00    -0.290 N 
ATOM      8  C   UNL     1      10.183   6.186   5.003  0.00  0.00    +0.135 C 
ATOM      9  C   UNL     1      11.365   5.881   4.062  0.00  0.00    +0.171 C 
ATOM     13  C   UNL     1      11.874   7.451   6.385  0.00  0.00    +0.242 C 
ATOM     14  C   UNL     1      12.803   7.329   5.195  0.00  0.00    +0.256 C 
ENDROOT
BRANCH   9  11
ATOM     11  C   UNL     1      10.955   5.511   2.651  0.00  0.00    -0.017 A 
ATOM     18  C   UNL     1      11.363   4.296   2.102  0.00  0.00    +0.008 A 
ATOM     19  C   UNL     1      10.171   6.387   1.900  0.00  0.00    +0.008 A 
ATOM     23  C   UNL     1      10.200   4.831   0.053  0.00  0.00    +0.033 A 
ATOM     24  C   UNL     1      10.986   3.954   0.803  0.00  0.00    +0.023 A 
ATOM     25  C   UNL     1       9.793   6.046   0.602  0.00  0.00    +0.023 A 
BRANCH  23   6
ATOM      4  O   UNL     1      11.293   5.738  -2.593  0.00  0.00    -0.275 OA
ATOM      6  N   UNL     1       9.817   4.484  -1.264  0.00  0.00    -0.285 N 
ATOM     26  C   UNL     1      10.366   4.945  -2.454  0.00  0.00    +0.218 C 
ATOM     28  H   UNL     1       9.047   3.822  -1.326  0.00  0.00    +0.155 HD
BRANCH  26  16
ATOM     16  C   UNL     1       9.683   4.339  -3.674  0.00  0.00    +0.102 C 
BRANCH  16  15
ATOM     15  C   UNL     1      10.274   2.988  -4.142  0.00  0.00    -0.029 C 
ATOM     20  C   UNL     1       9.418   1.858  -3.536  0.00  0.00    +0.011 C 
ATOM     21  C   UNL     1      10.228   2.864  -5.674  0.00  0.00    +0.011 C 
ATOM     22  C   UNL     1      11.724   2.808  -3.662  0.00  0.00    +0.011 C 
ENDBRANCH  16  15
ENDBRANCH  26  16
ENDBRANCH  23   6
ENDBRANCH   9  11
BRANCH   8  10
ATOM     10  C   UNL     1       9.328   4.930   5.221  0.00  0.00    +0.181 C 
BRANCH  10   2
ATOM      2  O   UNL     1      10.168   3.902   5.706  0.00  0.00    -0.393 OA
ATOM     27  H   UNL     1       9.820   3.061   5.364  0.00  0.00    +0.209 HD
ENDBRANCH  10   2
ENDBRANCH   8  10
BRANCH   5  12
ATOM     12  C   UNL     1       9.705   6.873   7.384  0.00  0.00    +0.123 C 
BRANCH  12  17
ATOM     17  C   UNL     1       8.798   8.085   7.232  0.00  0.00    +0.096 C 
BRANCH  17   7
ATOM      7  N   UNL     1       7.547   7.703   6.589  0.00  0.00    -0.328 NA
ATOM     29  H   UNL     1       7.397   8.279   5.761  0.00  0.00    +0.118 HD
ATOM     30  H   UNL     1       7.615   6.742   6.259  0.00  0.00    +0.118 HD
ENDBRANCH  17   7
ENDBRANCH  12  17
ENDBRANCH   5  12
TORSDOF 9
ENDMDL
MODEL 8
REMARK VINA RESULT:      -5.6      2.109      9.357
REMARK  Name = 71693544
REMARK  12 active torsions:
REMARK  status: ('A' for Active; 'I' for Inactive)
REMARK    1  A    between atoms: O_2  and  C_10
REMARK    2  A    between atoms: N_5  and  C_12
REMARK    3  A    between atoms: N_6  and  C_23
REMARK    4  A    between atoms: N_7  and  C_17
REMARK    5  A    between atoms: C_8  and  C_10
REMARK    6  A    between atoms: C_9  and  C_11
REMARK    7  A    between atoms: C_12  and  C_17
REMARK    8  A    between atoms: C_15  and  C_16
REMARK    9  A    between atoms: C_15  and  C_20
REMARK   10  A    between atoms: C_15  and  C_21
REMARK   11  A    between atoms: C_15  and  C_22
REMARK   12  A    between atoms: C_16  and  C_26
REMARK                            x       y       z     vdW  Elec       q    Type
REMARK                         _______ _______ _______ _____ _____    ______ ____
ROOT
ATOM      1  O   UNL     1      20.951   7.911  22.163  0.00  0.00    -0.361 OA
ATOM      3  O   UNL     1      24.310   7.283  23.171  0.00  0.00    -0.273 OA
ATOM      5  N   UNL     1      22.733   5.789  22.328  0.00  0.00    -0.290 N 
ATOM      8  C   UNL     1      21.344   5.561  21.856  0.00  0.00    +0.135 C 
ATOM      9  C   UNL     1      20.750   6.841  21.238  0.00  0.00    +0.171 C 
ATOM     13  C   UNL     1      23.211   7.058  22.658  0.00  0.00    +0.242 C 
ATOM     14  C   UNL     1      22.318   8.222  22.277  0.00  0.00    +0.256 C 
ENDROOT
BRANCH   9  11
ATOM     11  C   UNL     1      19.262   6.765  20.965  0.00  0.00    -0.017 A 
ATOM     18  C   UNL     1      18.372   7.517  21.732  0.00  0.00    +0.008 A 
ATOM     19  C   UNL     1      18.781   5.944  19.945  0.00  0.00    +0.008 A 
ATOM     23  C   UNL     1      16.522   6.626  20.460  0.00  0.00    +0.033 A 
ATOM     24  C   UNL     1      17.002   7.448  21.481  0.00  0.00    +0.023 A 
ATOM     25  C   UNL     1      17.411   5.874  19.693  0.00  0.00    +0.023 A 
BRANCH  23   6
ATOM      4  O   UNL     1      14.712   8.544  19.023  0.00  0.00    -0.275 OA
ATOM      6  N   UNL     1      15.132   6.557  20.204  0.00  0.00    -0.285 N 
ATOM     26  C   UNL     1      14.348   7.487  19.531  0.00  0.00    +0.218 C 
ATOM     28  H   UNL     1      14.670   5.726  20.565  0.00  0.00    +0.155 HD
BRANCH  26  16
ATOM     16  C   UNL     1      12.888   7.059  19.456  0.00  0.00    +0.102 C 
BRANCH  16  15
ATOM     15  C   UNL     1      12.023   7.492  20.664  0.00  0.00    -0.029 C 
ATOM     20  C   UNL     1      11.422   6.223  21.300  0.00  0.00    +0.011 C 
ATOM     21  C   UNL     1      12.874   8.210  21.725  0.00  0.00    +0.011 C 
ATOM     22  C   UNL     1      10.869   8.412  20.232  0.00  0.00    +0.011 C 
ENDBRANCH  16  15
ENDBRANCH  26  16
ENDBRANCH  23   6
ENDBRANCH   9  11
BRANCH   8  10
ATOM     10  C   UNL     1      21.244   4.388  20.871  0.00  0.00    +0.181 C 
BRANCH  10   2
ATOM      2  O   UNL     1      21.884   4.764  19.669  0.00  0.00    -0.393 OA
ATOM     27  H   UNL     1      22.833   4.848  19.863  0.00  0.00    +0.209 HD
ENDBRANCH  10   2
ENDBRANCH   8  10
BRANCH   5  12
ATOM     12  C   UNL     1      23.537   4.623  22.683  0.00  0.00    +0.123 C 
BRANCH  12  17
ATOM     17  C   UNL     1      24.727   4.470  21.747  0.00  0.00    +0.096 C 
BRANCH  17   7
ATOM      7  N   UNL     1      25.974   4.660  22.477  0.00  0.00    -0.328 NA
ATOM     29  H   UNL     1      26.404   3.754  22.664  0.00  0.00    +0.118 HD
ATOM     30  H   UNL     1      26.634   5.172  21.893  0.00  0.00    +0.118 HD
ENDBRANCH  17   7
ENDBRANCH  12  17
ENDBRANCH   5  12
TORSDOF 9
ENDMDL
MODEL 9
REMARK VINA RESULT:      -5.5     14.526     16.154
REMARK  Name = 71693544
REMARK  12 active torsions:
REMARK  status: ('A' for Active; 'I' for Inactive)
REMARK    1  A    between atoms: O_2  and  C_10
REMARK    2  A    between atoms: N_5  and  C_12
REMARK    3  A    between atoms: N_6  and  C_23
REMARK    4  A    between atoms: N_7  and  C_17
REMARK    5  A    between atoms: C_8  and  C_10
REMARK    6  A    between atoms: C_9  and  C_11
REMARK    7  A    between atoms: C_12  and  C_17
REMARK    8  A    between atoms: C_15  and  C_16
REMARK    9  A    between atoms: C_15  and  C_20
REMARK   10  A    between atoms: C_15  and  C_21
REMARK   11  A    between atoms: C_15  and  C_22
REMARK   12  A    between atoms: C_16  and  C_26
REMARK                            x       y       z     vdW  Elec       q    Type
REMARK                         _______ _______ _______ _____ _____    ______ ____
ROOT
ATOM      1  O   UNL     1      11.652   8.193   4.100  0.00  0.00    -0.361 OA
ATOM      3  O   UNL     1       8.348   7.751   5.359  0.00  0.00    -0.273 OA
ATOM      5  N   UNL     1      10.375   7.107   6.313  0.00  0.00    -0.290 N 
ATOM      8  C   UNL     1      11.851   7.023   6.189  0.00  0.00    +0.135 C 
ATOM      9  C   UNL     1      12.402   8.166   5.315  0.00  0.00    +0.171 C 
ATOM     13  C   UNL     1       9.582   7.761   5.369  0.00  0.00    +0.242 C 
ATOM     14  C   UNL     1      10.324   8.591   4.341  0.00  0.00    +0.256 C 
ENDROOT
BRANCH   9  11
ATOM     11  C   UNL     1      13.860   8.009   4.933  0.00  0.00    -0.017 A 
ATOM     18  C   UNL     1      14.205   7.348   3.755  0.00  0.00    +0.008 A 
ATOM     19  C   UNL     1      14.857   8.527   5.760  0.00  0.00    +0.008 A 
ATOM     23  C   UNL     1      16.544   7.722   4.230  0.00  0.00    +0.033 A 
ATOM     24  C   UNL     1      15.547   7.204   3.403  0.00  0.00    +0.023 A 
ATOM     25  C   UNL     1      16.198   8.383   5.409  0.00  0.00    +0.023 A 
BRANCH  23   6
ATOM      4  O   UNL     1      18.687   9.791   3.855  0.00  0.00    -0.275 OA
ATOM      6  N   UNL     1      17.905   7.576   3.872  0.00  0.00    -0.285 N 
ATOM     26  C   UNL     1      18.849   8.583   3.711  0.00  0.00    +0.218 C 
ATOM     28  H   UNL     1      18.207   6.618   3.715  0.00  0.00    +0.155 HD
BRANCH  26  16
ATOM     16  C   UNL     1      20.215   8.030   3.320  0.00  0.00    +0.102 C 
BRANCH  16  15
ATOM     15  C   UNL     1      21.193   7.826   4.502  0.00  0.00    -0.029 C 
ATOM     20  C   UNL     1      21.824   6.426   4.362  0.00  0.00    +0.011 C 
ATOM     21  C   UNL     1      22.320   8.872   4.475  0.00  0.00    +0.011 C 
ATOM     22  C   UNL     1      20.467   7.898   5.856  0.00  0.00    +0.011 C 
ENDBRANCH  16  15
ENDBRANCH  26  16
ENDBRANCH  23   6
ENDBRANCH   9  11
BRANCH   8  10
ATOM     10  C   UNL     1      12.555   6.998   7.553  0.00  0.00    +0.181 C 
BRANCH  10   2
ATOM      2  O   UNL     1      13.293   5.797   7.648  0.00  0.00    -0.393 OA
ATOM     27  H   UNL     1      14.123   6.005   8.110  0.00  0.00    +0.209 HD
ENDBRANCH  10   2
ENDBRANCH   8  10
BRANCH   5  12
ATOM     12  C   UNL     1       9.722   6.276   7.320  0.00  0.00    +0.123 C 
BRANCH  12  17
ATOM     17  C   UNL     1       9.864   4.797   6.991  0.00  0.00    +0.096 C 
BRANCH  17   7
ATOM      7  N   UNL     1      10.515   4.093   8.088  0.00  0.00    -0.328 NA
ATOM     29  H   UNL     1      10.258   3.107   8.064  0.00  0.00    +0.118 HD
ATOM     30  H   UNL     1      11.525   4.128   7.960  0.00  0.00    +0.118 HD
ENDBRANCH  17   7
ENDBRANCH  12  17
ENDBRANCH   5  12
TORSDOF 9
ENDMDL
MODEL 10
REMARK VINA RESULT:      -5.5     28.049     30.025
REMARK  Name = 71693544
REMARK  12 active torsions:
REMARK  status: ('A' for Active; 'I' for Inactive)
REMARK    1  A    between atoms: O_2  and  C_10
REMARK    2  A    between atoms: N_5  and  C_12
REMARK    3  A    between atoms: N_6  and  C_23
REMARK    4  A    between atoms: N_7  and  C_17
REMARK    5  A    between atoms: C_8  and  C_10
REMARK    6  A    between atoms: C_9  and  C_11
REMARK    7  A    between atoms: C_12  and  C_17
REMARK    8  A    between atoms: C_15  and  C_16
REMARK    9  A    between atoms: C_15  and  C_20
REMARK   10  A    between atoms: C_15  and  C_21
REMARK   11  A    between atoms: C_15  and  C_22
REMARK   12  A    between atoms: C_16  and  C_26
REMARK                            x       y       z     vdW  Elec       q    Type
REMARK                         _______ _______ _______ _____ _____    ______ ____
ROOT
ATOM      1  O   UNL     1      -4.741 -12.702   9.280  0.00  0.00    -0.361 OA
ATOM      3  O   UNL     1      -5.042 -12.717   5.730  0.00  0.00    -0.273 OA
ATOM      5  N   UNL     1      -5.076 -10.903   7.193  0.00  0.00    -0.290 N 
ATOM      8  C   UNL     1      -5.042 -10.419   8.595  0.00  0.00    +0.135 C 
ATOM      9  C   UNL     1      -4.243 -11.381   9.496  0.00  0.00    +0.171 C 
ATOM     13  C   UNL     1      -4.898 -12.248   6.862  0.00  0.00    +0.242 C 
ATOM     14  C   UNL     1      -4.426 -13.149   7.984  0.00  0.00    +0.256 C 
ENDROOT
BRANCH   9  11
ATOM     11  C   UNL     1      -4.372 -11.096  10.978  0.00  0.00    -0.017 A 
ATOM     18  C   UNL     1      -5.618 -11.183  11.600  0.00  0.00    +0.008 A 
ATOM     19  C   UNL     1      -3.245 -10.745  11.722  0.00  0.00    +0.008 A 
ATOM     23  C   UNL     1      -4.609 -10.570  13.708  0.00  0.00    +0.033 A 
ATOM     24  C   UNL     1      -5.737 -10.920  12.965  0.00  0.00    +0.023 A 
ATOM     25  C   UNL     1      -3.364 -10.483  13.086  0.00  0.00    +0.023 A 
BRANCH  23   6
ATOM      4  O   UNL     1      -3.107 -11.712  16.045  0.00  0.00    -0.275 OA
ATOM      6  N   UNL     1      -4.730 -10.305  15.093  0.00  0.00    -0.285 N 
ATOM     26  C   UNL     1      -4.001 -10.874  16.130  0.00  0.00    +0.218 C 
ATOM     28  H   UNL     1      -5.440  -9.619  15.337  0.00  0.00    +0.155 HD
BRANCH  26  16
ATOM     16  C   UNL     1      -4.421 -10.332  17.490  0.00  0.00    +0.102 C 
BRANCH  16  15
ATOM     15  C   UNL     1      -5.024 -11.386  18.449  0.00  0.00    -0.029 C 
ATOM     20  C   UNL     1      -5.987 -10.661  19.410  0.00  0.00    +0.011 C 
ATOM     21  C   UNL     1      -5.820 -12.449  17.674  0.00  0.00    +0.011 C 
ATOM     22  C   UNL     1      -3.934 -12.078  19.286  0.00  0.00    +0.011 C 
ENDBRANCH  16  15
ENDBRANCH  26  16
ENDBRANCH  23   6
ENDBRANCH   9  11
BRANCH   8  10
ATOM     10  C   UNL     1      -4.493  -8.990   8.711  0.00  0.00    +0.181 C 
BRANCH  10   2
ATOM      2  O   UNL     1      -5.548  -8.143   9.116  0.00  0.00    -0.393 OA
ATOM     27  H   UNL     1      -6.017  -8.594   9.839  0.00  0.00    +0.209 HD
ENDBRANCH  10   2
ENDBRANCH   8  10
BRANCH   5  12
ATOM     12  C   UNL     1      -5.547  -9.984   6.161  0.00  0.00    +0.123 C 
BRANCH  12  17
ATOM     17  C   UNL     1      -7.038  -9.716   6.302  0.00  0.00    +0.096 C 
BRANCH  17   7
ATOM      7  N   UNL     1      -7.281  -8.294   6.509  0.00  0.00    -0.328 NA
ATOM     29  H   UNL     1      -7.185  -7.797   5.625  0.00  0.00    +0.118 HD
ATOM     30  H   UNL     1      -8.244  -8.155   6.812  0.00  0.00    +0.118 HD
ENDBRANCH  17   7
ENDBRANCH  12  17
ENDBRANCH   5  12
TORSDOF 9
ENDMDL
