MODEL 1
REMARK VINA RESULT:      -7.3      0.000      0.000
REMARK  Name = 75368689
REMARK  5 active torsions:
REMARK  status: ('A' for Active; 'I' for Inactive)
REMARK    1  A    between atoms: N_4  and  C_12
REMARK    2  A    between atoms: N_5  and  C_13
REMARK    3  A    between atoms: C_12  and  C_14
REMARK    4  A    between atoms: C_13  and  C_15
REMARK    5  A    between atoms: C_24  and  C_26
REMARK                            x       y       z     vdW  Elec       q    Type
REMARK                         _______ _______ _______ _____ _____    ______ ____
ROOT
ATOM      2  O   UNL     1     -17.039   2.045  22.498  0.00  0.00    -0.252 OA
ATOM      3  N   UNL     1     -16.470   2.365  24.755  0.00  0.00    -0.278 N 
ATOM      4  N   UNL     1     -16.620   2.155  27.555  0.00  0.00    -0.295 NA
ATOM      5  N   UNL     1     -16.416   4.141  23.381  0.00  0.00    -0.279 N 
ATOM      6  C   UNL     1     -15.938   3.438  25.569  0.00  0.00    +0.109 C 
ATOM      7  C   UNL     1     -16.654   3.487  26.918  0.00  0.00    +0.109 C 
ATOM      8  C   UNL     1     -16.123   4.680  24.699  0.00  0.00    +0.133 C 
ATOM      9  C   UNL     1     -16.619   1.045  25.332  0.00  0.00    +0.125 C 
ATOM     10  C   UNL     1     -17.286   1.147  26.706  0.00  0.00    +0.104 C 
ATOM     11  C   UNL     1     -16.683   2.758  23.426  0.00  0.00    +0.305 C 
ENDROOT
BRANCH   4  12
ATOM     12  C   UNL     1     -17.250   2.206  28.875  0.00  0.00    +0.121 C 
BRANCH  12  14
ATOM      1 CL   UNL     1     -16.328   4.519  30.696  0.00  0.00    -0.083 Cl
ATOM     14  C   UNL     1     -16.278   1.892  29.974  0.00  0.00    -0.015 A 
ATOM     16  C   UNL     1     -15.810   2.880  30.842  0.00  0.00    +0.045 A 
ATOM     17  C   UNL     1     -15.841   0.575  30.117  0.00  0.00    +0.006 A 
ATOM     22  C   UNL     1     -14.906   2.550  31.851  0.00  0.00    +0.020 A 
ATOM     23  C   UNL     1     -14.937   0.246  31.126  0.00  0.00    +0.000 A 
ATOM     25  C   UNL     1     -14.470   1.233  31.993  0.00  0.00    +0.001 A 
ENDBRANCH  12  14
ENDBRANCH   4  12
BRANCH   5  13
ATOM     13  C   UNL     1     -16.555   4.991  22.219  0.00  0.00    +0.144 C 
BRANCH  13  15
ATOM     15  C   UNL     1     -15.248   5.608  21.815  0.00  0.00    -0.030 A 
ATOM     18  C   UNL     1     -15.233   6.808  21.103  0.00  0.00    +0.005 A 
ATOM     19  C   UNL     1     -14.047   4.980  22.149  0.00  0.00    +0.005 A 
ATOM     20  C   UNL     1     -14.018   7.379  20.725  0.00  0.00    +0.003 A 
ATOM     21  C   UNL     1     -12.832   5.552  21.770  0.00  0.00    +0.003 A 
ATOM     24  C   UNL     1     -12.818   6.752  21.058  0.00  0.00    -0.050 A 
ATOM     26  C   UNL     1     -11.519   7.363  20.653  0.00  0.00    +0.044 C 
ENDBRANCH  13  15
ENDBRANCH   5  13
TORSDOF 4
ENDMDL
MODEL 2
REMARK VINA RESULT:      -6.7     28.586     32.435
REMARK  Name = 75368689
REMARK  5 active torsions:
REMARK  status: ('A' for Active; 'I' for Inactive)
REMARK    1  A    between atoms: N_4  and  C_12
REMARK    2  A    between atoms: N_5  and  C_13
REMARK    3  A    between atoms: C_12  and  C_14
REMARK    4  A    between atoms: C_13  and  C_15
REMARK    5  A    between atoms: C_24  and  C_26
REMARK                            x       y       z     vdW  Elec       q    Type
REMARK                         _______ _______ _______ _____ _____    ______ ____
ROOT
ATOM      2  O   UNL     1      12.435   7.068  19.129  0.00  0.00    -0.252 OA
ATOM      3  N   UNL     1      14.626   7.452  19.886  0.00  0.00    -0.278 N 
ATOM      4  N   UNL     1      17.333   6.945  20.455  0.00  0.00    -0.295 NA
ATOM      5  N   UNL     1      12.920   8.131  21.177  0.00  0.00    -0.279 N 
ATOM      6  C   UNL     1      15.258   8.160  20.978  0.00  0.00    +0.109 C 
ATOM      7  C   UNL     1      16.417   7.340  21.544  0.00  0.00    +0.109 C 
ATOM      8  C   UNL     1      14.113   8.412  21.958  0.00  0.00    +0.133 C 
ATOM      9  C   UNL     1      15.449   6.890  18.834  0.00  0.00    +0.125 C 
ATOM     10  C   UNL     1      16.629   6.129  19.444  0.00  0.00    +0.104 C 
ATOM     11  C   UNL     1      13.227   7.499  19.956  0.00  0.00    +0.305 C 
ENDROOT
BRANCH   4  12
ATOM     12  C   UNL     1      18.478   6.211  20.993  0.00  0.00    +0.121 C 
BRANCH  12  14
ATOM      1 CL   UNL     1      21.109   4.764  20.284  0.00  0.00    -0.083 Cl
ATOM     14  C   UNL     1      19.739   7.024  20.947  0.00  0.00    -0.015 A 
ATOM     16  C   UNL     1      20.971   6.447  20.635  0.00  0.00    +0.045 A 
ATOM     17  C   UNL     1      19.658   8.388  21.226  0.00  0.00    +0.006 A 
ATOM     22  C   UNL     1      22.120   7.236  20.601  0.00  0.00    +0.020 A 
ATOM     23  C   UNL     1      20.808   9.176  21.193  0.00  0.00    +0.000 A 
ATOM     25  C   UNL     1      22.039   8.600  20.881  0.00  0.00    +0.001 A 
ENDBRANCH  12  14
ENDBRANCH   4  12
BRANCH   5  13
ATOM     13  C   UNL     1      11.591   8.354  21.703  0.00  0.00    +0.144 C 
BRANCH  13  15
ATOM     15  C   UNL     1      11.383   9.782  22.118  0.00  0.00    -0.030 A 
ATOM     18  C   UNL     1      10.938  10.076  23.407  0.00  0.00    +0.005 A 
ATOM     19  C   UNL     1      11.632  10.814  21.213  0.00  0.00    +0.005 A 
ATOM     20  C   UNL     1      10.742  11.402  23.792  0.00  0.00    +0.003 A 
ATOM     21  C   UNL     1      11.435  12.141  21.599  0.00  0.00    +0.003 A 
ATOM     24  C   UNL     1      10.990  12.434  22.888  0.00  0.00    -0.050 A 
ATOM     26  C   UNL     1      10.780  13.853  23.299  0.00  0.00    +0.044 C 
ENDBRANCH  13  15
ENDBRANCH   5  13
TORSDOF 4
ENDMDL
MODEL 3
REMARK VINA RESULT:      -6.6      3.051      8.945
REMARK  Name = 75368689
REMARK  5 active torsions:
REMARK  status: ('A' for Active; 'I' for Inactive)
REMARK    1  A    between atoms: N_4  and  C_12
REMARK    2  A    between atoms: N_5  and  C_13
REMARK    3  A    between atoms: C_12  and  C_14
REMARK    4  A    between atoms: C_13  and  C_15
REMARK    5  A    between atoms: C_24  and  C_26
REMARK                            x       y       z     vdW  Elec       q    Type
REMARK                         _______ _______ _______ _____ _____    ______ ____
ROOT
ATOM      2  O   UNL     1     -18.331   5.131  26.266  0.00  0.00    -0.252 OA
ATOM      3  N   UNL     1     -16.632   5.394  24.664  0.00  0.00    -0.278 N 
ATOM      4  N   UNL     1     -15.397   6.115  22.242  0.00  0.00    -0.295 NA
ATOM      5  N   UNL     1     -16.769   3.438  25.758  0.00  0.00    -0.279 N 
ATOM      6  C   UNL     1     -15.477   4.647  24.215  0.00  0.00    +0.109 C 
ATOM      7  C   UNL     1     -15.361   4.710  22.692  0.00  0.00    +0.109 C 
ATOM      8  C   UNL     1     -15.707   3.248  24.783  0.00  0.00    +0.133 C 
ATOM      9  C   UNL     1     -16.845   6.738  24.164  0.00  0.00    +0.125 C 
ATOM     10  C   UNL     1     -16.661   6.765  22.645  0.00  0.00    +0.104 C 
ATOM     11  C   UNL     1     -17.364   4.711  25.644  0.00  0.00    +0.305 C 
ENDROOT
BRANCH   4  12
ATOM     12  C   UNL     1     -15.225   6.190  20.791  0.00  0.00    +0.121 C 
BRANCH  12  14
ATOM      1 CL   UNL     1     -15.255   8.122  18.386  0.00  0.00    -0.083 Cl
ATOM     14  C   UNL     1     -13.938   6.861  20.411  0.00  0.00    -0.015 A 
ATOM     16  C   UNL     1     -13.864   7.749  19.337  0.00  0.00    +0.045 A 
ATOM     17  C   UNL     1     -12.797   6.578  21.162  0.00  0.00    +0.006 A 
ATOM     22  C   UNL     1     -12.649   8.352  19.015  0.00  0.00    +0.020 A 
ATOM     23  C   UNL     1     -11.582   7.183  20.838  0.00  0.00    +0.000 A 
ATOM     25  C   UNL     1     -11.508   8.069  19.765  0.00  0.00    +0.001 A 
ENDBRANCH  12  14
ENDBRANCH   4  12
BRANCH   5  13
ATOM     13  C   UNL     1     -17.224   2.366  26.615  0.00  0.00    +0.144 C 
BRANCH  13  15
ATOM     15  C   UNL     1     -16.355   2.211  27.830  0.00  0.00    -0.030 A 
ATOM     18  C   UNL     1     -15.715   3.323  28.377  0.00  0.00    +0.005 A 
ATOM     19  C   UNL     1     -16.185   0.953  28.410  0.00  0.00    +0.005 A 
ATOM     20  C   UNL     1     -14.906   3.179  29.503  0.00  0.00    +0.003 A 
ATOM     21  C   UNL     1     -15.374   0.809  29.536  0.00  0.00    +0.003 A 
ATOM     24  C   UNL     1     -14.735   1.923  30.083  0.00  0.00    -0.050 A 
ATOM     26  C   UNL     1     -13.869   1.768  31.287  0.00  0.00    +0.044 C 
ENDBRANCH  13  15
ENDBRANCH   5  13
TORSDOF 4
ENDMDL
MODEL 4
REMARK VINA RESULT:      -6.6     31.234     36.118
REMARK  Name = 75368689
REMARK  5 active torsions:
REMARK  status: ('A' for Active; 'I' for Inactive)
REMARK    1  A    between atoms: N_4  and  C_12
REMARK    2  A    between atoms: N_5  and  C_13
REMARK    3  A    between atoms: C_12  and  C_14
REMARK    4  A    between atoms: C_13  and  C_15
REMARK    5  A    between atoms: C_24  and  C_26
REMARK                            x       y       z     vdW  Elec       q    Type
REMARK                         _______ _______ _______ _____ _____    ______ ____
ROOT
ATOM      2  O   UNL     1      15.186   8.696   2.617  0.00  0.00    -0.252 OA
ATOM      3  N   UNL     1      13.713   7.600   4.083  0.00  0.00    -0.278 N 
ATOM      4  N   UNL     1      11.287   6.655   5.146  0.00  0.00    -0.295 NA
ATOM      5  N   UNL     1      15.353   8.856   4.964  0.00  0.00    -0.279 N 
ATOM      6  C   UNL     1      13.609   7.382   5.511  0.00  0.00    +0.109 C 
ATOM      7  C   UNL     1      12.157   7.522   5.966  0.00  0.00    +0.109 C 
ATOM      8  C   UNL     1      14.569   8.411   6.105  0.00  0.00    +0.133 C 
ATOM      9  C   UNL     1      12.803   6.908   3.193  0.00  0.00    +0.125 C 
ATOM     10  C   UNL     1      11.370   7.024   3.718  0.00  0.00    +0.104 C 
ATOM     11  C   UNL     1      14.801   8.415   3.744  0.00  0.00    +0.305 C 
ENDROOT
BRANCH   4  12
ATOM     12  C   UNL     1       9.903   6.735   5.613  0.00  0.00    +0.121 C 
BRANCH  12  14
ATOM      1 CL   UNL     1       8.901   8.334   8.054  0.00  0.00    -0.083 Cl
ATOM     14  C   UNL     1       9.702   5.997   6.904  0.00  0.00    -0.015 A 
ATOM     16  C   UNL     1       9.252   6.645   8.055  0.00  0.00    +0.045 A 
ATOM     17  C   UNL     1       9.977   4.630   6.935  0.00  0.00    +0.006 A 
ATOM     22  C   UNL     1       9.077   5.924   9.237  0.00  0.00    +0.020 A 
ATOM     23  C   UNL     1       9.803   3.911   8.118  0.00  0.00    +0.000 A 
ATOM     25  C   UNL     1       9.353   4.557   9.268  0.00  0.00    +0.001 A 
ENDBRANCH  12  14
ENDBRANCH   4  12
BRANCH   5  13
ATOM     13  C   UNL     1      16.467   9.766   5.108  0.00  0.00    +0.144 C 
BRANCH  13  15
ATOM     15  C   UNL     1      17.782   9.043   5.142  0.00  0.00    -0.030 A 
ATOM     18  C   UNL     1      18.471   8.904   6.346  0.00  0.00    +0.005 A 
ATOM     19  C   UNL     1      18.317   8.513   3.967  0.00  0.00    +0.005 A 
ATOM     20  C   UNL     1      19.694   8.235   6.377  0.00  0.00    +0.003 A 
ATOM     21  C   UNL     1      19.541   7.845   3.998  0.00  0.00    +0.003 A 
ATOM     24  C   UNL     1      20.230   7.706   5.203  0.00  0.00    -0.050 A 
ATOM     26  C   UNL     1      21.538   6.991   5.236  0.00  0.00    +0.044 C 
ENDBRANCH  13  15
ENDBRANCH   5  13
TORSDOF 4
ENDMDL
MODEL 5
REMARK VINA RESULT:      -6.6     15.811     17.159
REMARK  Name = 75368689
REMARK  5 active torsions:
REMARK  status: ('A' for Active; 'I' for Inactive)
REMARK    1  A    between atoms: N_4  and  C_12
REMARK    2  A    between atoms: N_5  and  C_13
REMARK    3  A    between atoms: C_12  and  C_14
REMARK    4  A    between atoms: C_13  and  C_15
REMARK    5  A    between atoms: C_24  and  C_26
REMARK                            x       y       z     vdW  Elec       q    Type
REMARK                         _______ _______ _______ _____ _____    ______ ____
ROOT
ATOM      2  O   UNL     1     -12.674  -8.449  13.447  0.00  0.00    -0.252 OA
ATOM      3  N   UNL     1     -10.733  -8.362  14.769  0.00  0.00    -0.278 N 
ATOM      4  N   UNL     1      -8.737  -9.207  16.560  0.00  0.00    -0.295 NA
ATOM      5  N   UNL     1     -12.108  -6.587  14.779  0.00  0.00    -0.279 N 
ATOM      6  C   UNL     1     -10.042  -7.372  15.568  0.00  0.00    +0.109 C 
ATOM      7  C   UNL     1      -9.529  -7.999  16.864  0.00  0.00    +0.109 C 
ATOM      8  C   UNL     1     -11.081  -6.269  15.757  0.00  0.00    +0.133 C 
ATOM      9  C   UNL     1     -10.105  -9.646  14.532  0.00  0.00    +0.125 C 
ATOM     10  C   UNL     1      -9.555 -10.208  15.845  0.00  0.00    +0.104 C 
ATOM     11  C   UNL     1     -11.930  -7.872  14.229  0.00  0.00    +0.305 C 
ENDROOT
BRANCH   4  12
ATOM     12  C   UNL     1      -8.190  -9.781  17.790  0.00  0.00    +0.121 C 
BRANCH  12  14
ATOM      1 CL   UNL     1      -7.066 -11.843  19.791  0.00  0.00    -0.083 Cl
ATOM     14  C   UNL     1      -6.767 -10.225  17.619  0.00  0.00    -0.015 A 
ATOM     16  C   UNL     1      -6.181 -11.153  18.480  0.00  0.00    +0.045 A 
ATOM     17  C   UNL     1      -6.026  -9.684  16.567  0.00  0.00    +0.006 A 
ATOM     22  C   UNL     1      -4.855 -11.541  18.289  0.00  0.00    +0.020 A 
ATOM     23  C   UNL     1      -4.700 -10.073  16.377  0.00  0.00    +0.000 A 
ATOM     25  C   UNL     1      -4.114 -11.000  17.238  0.00  0.00    +0.001 A 
ENDBRANCH  12  14
ENDBRANCH   4  12
BRANCH   5  13
ATOM     13  C   UNL     1     -13.241  -5.718  14.547  0.00  0.00    +0.144 C 
BRANCH  13  15
ATOM     15  C   UNL     1     -13.210  -5.108  13.176  0.00  0.00    -0.030 A 
ATOM     18  C   UNL     1     -14.096  -5.552  12.194  0.00  0.00    +0.005 A 
ATOM     19  C   UNL     1     -12.292  -4.098  12.882  0.00  0.00    +0.005 A 
ATOM     20  C   UNL     1     -14.065  -4.987  10.920  0.00  0.00    +0.003 A 
ATOM     21  C   UNL     1     -12.261  -3.534  11.607  0.00  0.00    +0.003 A 
ATOM     24  C   UNL     1     -13.148  -3.979  10.625  0.00  0.00    -0.050 A 
ATOM     26  C   UNL     1     -13.114  -3.375   9.262  0.00  0.00    +0.044 C 
ENDBRANCH  13  15
ENDBRANCH   5  13
TORSDOF 4
ENDMDL
MODEL 6
REMARK VINA RESULT:      -6.6     19.671     21.091
REMARK  Name = 75368689
REMARK  5 active torsions:
REMARK  status: ('A' for Active; 'I' for Inactive)
REMARK    1  A    between atoms: N_4  and  C_12
REMARK    2  A    between atoms: N_5  and  C_13
REMARK    3  A    between atoms: C_12  and  C_14
REMARK    4  A    between atoms: C_13  and  C_15
REMARK    5  A    between atoms: C_24  and  C_26
REMARK                            x       y       z     vdW  Elec       q    Type
REMARK                         _______ _______ _______ _____ _____    ______ ____
ROOT
ATOM      2  O   UNL     1      -1.563 -11.294  15.249  0.00  0.00    -0.252 OA
ATOM      3  N   UNL     1      -3.846 -10.940  15.677  0.00  0.00    -0.278 N 
ATOM      4  N   UNL     1      -6.436 -11.415  16.664  0.00  0.00    -0.295 NA
ATOM      5  N   UNL     1      -3.077 -10.538  13.606  0.00  0.00    -0.279 N 
ATOM      6  C   UNL     1      -4.980 -10.381  14.971  0.00  0.00    +0.109 C 
ATOM      7  C   UNL     1      -6.228 -11.230  15.214  0.00  0.00    +0.109 C 
ATOM      8  C   UNL     1      -4.512 -10.330  13.518  0.00  0.00    +0.133 C 
ATOM      9  C   UNL     1      -3.987 -11.298  17.073  0.00  0.00    +0.125 C 
ATOM     10  C   UNL     1      -5.278 -12.094  17.280  0.00  0.00    +0.104 C 
ATOM     11  C   UNL     1      -2.685 -10.962  14.892  0.00  0.00    +0.305 C 
ENDROOT
BRANCH   4  12
ATOM     12  C   UNL     1      -7.662 -12.174  16.910  0.00  0.00    +0.121 C 
BRANCH  12  14
ATOM      1 CL   UNL     1      -7.837 -12.811  19.924  0.00  0.00    -0.083 Cl
ATOM     14  C   UNL     1      -8.646 -11.400  17.737  0.00  0.00    -0.015 A 
ATOM     16  C   UNL     1      -8.789 -11.626  19.107  0.00  0.00    +0.045 A 
ATOM     17  C   UNL     1      -9.430 -10.435  17.104  0.00  0.00    +0.006 A 
ATOM     22  C   UNL     1      -9.715 -10.887  19.842  0.00  0.00    +0.020 A 
ATOM     23  C   UNL     1     -10.355  -9.696  17.840  0.00  0.00    +0.000 A 
ATOM     25  C   UNL     1     -10.498  -9.922  19.209  0.00  0.00    +0.001 A 
ENDBRANCH  12  14
ENDBRANCH   4  12
BRANCH   5  13
ATOM     13  C   UNL     1      -2.218 -10.454  12.445  0.00  0.00    +0.144 C 
BRANCH  13  15
ATOM     15  C   UNL     1      -3.003 -10.417  11.166  0.00  0.00    -0.030 A 
ATOM     18  C   UNL     1      -3.529 -11.595  10.636  0.00  0.00    +0.005 A 
ATOM     19  C   UNL     1      -3.205  -9.204  10.507  0.00  0.00    +0.005 A 
ATOM     20  C   UNL     1      -4.256 -11.562   9.447  0.00  0.00    +0.003 A 
ATOM     21  C   UNL     1      -3.933  -9.172   9.316  0.00  0.00    +0.003 A 
ATOM     24  C   UNL     1      -4.458 -10.351   8.787  0.00  0.00    -0.050 A 
ATOM     26  C   UNL     1      -5.235 -10.315   7.514  0.00  0.00    +0.044 C 
ENDBRANCH  13  15
ENDBRANCH   5  13
TORSDOF 4
ENDMDL
MODEL 7
REMARK VINA RESULT:      -6.6     31.490     36.791
REMARK  Name = 75368689
REMARK  5 active torsions:
REMARK  status: ('A' for Active; 'I' for Inactive)
REMARK    1  A    between atoms: N_4  and  C_12
REMARK    2  A    between atoms: N_5  and  C_13
REMARK    3  A    between atoms: C_12  and  C_14
REMARK    4  A    between atoms: C_13  and  C_15
REMARK    5  A    between atoms: C_24  and  C_26
REMARK                            x       y       z     vdW  Elec       q    Type
REMARK                         _______ _______ _______ _____ _____    ______ ____
ROOT
ATOM      2  O   UNL     1      11.400  10.086   5.807  0.00  0.00    -0.252 OA
ATOM      3  N   UNL     1      13.583   9.221   5.745  0.00  0.00    -0.278 N 
ATOM      4  N   UNL     1      16.302   9.003   5.058  0.00  0.00    -0.295 NA
ATOM      5  N   UNL     1      11.866   7.787   5.557  0.00  0.00    -0.279 N 
ATOM      6  C   UNL     1      14.203   7.913   5.736  0.00  0.00    +0.109 C 
ATOM      7  C   UNL     1      15.380   7.889   4.762  0.00  0.00    +0.109 C 
ATOM      8  C   UNL     1      13.054   6.971   5.378  0.00  0.00    +0.133 C 
ATOM      9  C   UNL     1      14.417  10.399   5.880  0.00  0.00    +0.125 C 
ATOM     10  C   UNL     1      15.613  10.304   4.930  0.00  0.00    +0.104 C 
ATOM     11  C   UNL     1      12.184   9.151   5.718  0.00  0.00    +0.305 C 
ENDROOT
BRANCH   4  12
ATOM     12  C   UNL     1      17.463   8.953   4.170  0.00  0.00    +0.121 C 
BRANCH  12  14
ATOM      1 CL   UNL     1      19.801   7.793   2.524  0.00  0.00    -0.083 Cl
ATOM     14  C   UNL     1      18.713   8.560   4.902  0.00  0.00    -0.015 A 
ATOM     16  C   UNL     1      19.816   8.028   4.233  0.00  0.00    +0.045 A 
ATOM     17  C   UNL     1      18.755   8.738   6.285  0.00  0.00    +0.006 A 
ATOM     22  C   UNL     1      20.960   7.674   4.948  0.00  0.00    +0.020 A 
ATOM     23  C   UNL     1      19.899   8.383   6.999  0.00  0.00    +0.000 A 
ATOM     25  C   UNL     1      21.002   7.852   6.331  0.00  0.00    +0.001 A 
ENDBRANCH  12  14
ENDBRANCH   4  12
BRANCH   5  13
ATOM     13  C   UNL     1      10.533   7.240   5.424  0.00  0.00    +0.144 C 
BRANCH  13  15
ATOM     15  C   UNL     1      10.083   6.547   6.677  0.00  0.00    -0.030 A 
ATOM     18  C   UNL     1       9.491   7.279   7.706  0.00  0.00    +0.005 A 
ATOM     19  C   UNL     1      10.260   5.169   6.813  0.00  0.00    +0.005 A 
ATOM     20  C   UNL     1       9.076   6.635   8.871  0.00  0.00    +0.003 A 
ATOM     21  C   UNL     1       9.845   4.525   7.980  0.00  0.00    +0.003 A 
ATOM     24  C   UNL     1       9.253   5.259   9.008  0.00  0.00    -0.050 A 
ATOM     26  C   UNL     1       8.809   4.570  10.254  0.00  0.00    +0.044 C 
ENDBRANCH  13  15
ENDBRANCH   5  13
TORSDOF 4
ENDMDL
MODEL 8
REMARK VINA RESULT:      -6.3     19.677     21.867
REMARK  Name = 75368689
REMARK  5 active torsions:
REMARK  status: ('A' for Active; 'I' for Inactive)
REMARK    1  A    between atoms: N_4  and  C_12
REMARK    2  A    between atoms: N_5  and  C_13
REMARK    3  A    between atoms: C_12  and  C_14
REMARK    4  A    between atoms: C_13  and  C_15
REMARK    5  A    between atoms: C_24  and  C_26
REMARK                            x       y       z     vdW  Elec       q    Type
REMARK                         _______ _______ _______ _____ _____    ______ ____
ROOT
ATOM      2  O   UNL     1      -8.011 -11.387   7.907  0.00  0.00    -0.252 OA
ATOM      3  N   UNL     1      -9.021  -9.523   8.919  0.00  0.00    -0.278 N 
ATOM      4  N   UNL     1     -10.938  -7.528   9.426  0.00  0.00    -0.295 NA
ATOM      5  N   UNL     1      -6.831  -9.415   8.436  0.00  0.00    -0.279 N 
ATOM      6  C   UNL     1      -8.589  -8.259   9.477  0.00  0.00    +0.109 C 
ATOM      7  C   UNL     1      -9.555  -7.144   9.079  0.00  0.00    +0.109 C 
ATOM      8  C   UNL     1      -7.166  -8.096   8.944  0.00  0.00    +0.133 C 
ATOM      9  C   UNL     1     -10.403  -9.930   9.073  0.00  0.00    +0.125 C 
ATOM     10  C   UNL     1     -11.333  -8.765   8.722  0.00  0.00    +0.104 C 
ATOM     11  C   UNL     1      -7.961 -10.254   8.366  0.00  0.00    +0.305 C 
ENDROOT
BRANCH   4  12
ATOM     12  C   UNL     1     -11.864  -6.442   9.105  0.00  0.00    +0.121 C 
BRANCH  12  14
ATOM      1 CL   UNL     1     -11.008  -3.481   8.973  0.00  0.00    -0.083 Cl
ATOM     14  C   UNL     1     -12.146  -5.574  10.296  0.00  0.00    -0.015 A 
ATOM     16  C   UNL     1     -11.791  -4.224  10.319  0.00  0.00    +0.045 A 
ATOM     17  C   UNL     1     -12.778  -6.147  11.399  0.00  0.00    +0.006 A 
ATOM     22  C   UNL     1     -12.070  -3.450  11.444  0.00  0.00    +0.020 A 
ATOM     23  C   UNL     1     -13.056  -5.372  12.524  0.00  0.00    +0.000 A 
ATOM     25  C   UNL     1     -12.702  -4.023  12.547  0.00  0.00    +0.001 A 
ENDBRANCH  12  14
ENDBRANCH   4  12
BRANCH   5  13
ATOM     13  C   UNL     1      -5.512  -9.730   7.933  0.00  0.00    +0.144 C 
BRANCH  13  15
ATOM     15  C   UNL     1      -4.549 -10.048   9.040  0.00  0.00    -0.030 A 
ATOM     18  C   UNL     1      -3.686  -9.063   9.519  0.00  0.00    +0.005 A 
ATOM     19  C   UNL     1      -4.517 -11.331   9.589  0.00  0.00    +0.005 A 
ATOM     20  C   UNL     1      -2.790  -9.359  10.545  0.00  0.00    +0.003 A 
ATOM     21  C   UNL     1      -3.619 -11.627  10.616  0.00  0.00    +0.003 A 
ATOM     24  C   UNL     1      -2.756 -10.641  11.094  0.00  0.00    -0.050 A 
ATOM     26  C   UNL     1      -1.797 -10.958  12.191  0.00  0.00    +0.044 C 
ENDBRANCH  13  15
ENDBRANCH   5  13
TORSDOF 4
ENDMDL
MODEL 9
REMARK VINA RESULT:      -6.2     31.127     36.512
REMARK  Name = 75368689
REMARK  5 active torsions:
REMARK  status: ('A' for Active; 'I' for Inactive)
REMARK    1  A    between atoms: N_4  and  C_12
REMARK    2  A    between atoms: N_5  and  C_13
REMARK    3  A    between atoms: C_12  and  C_14
REMARK    4  A    between atoms: C_13  and  C_15
REMARK    5  A    between atoms: C_24  and  C_26
REMARK                            x       y       z     vdW  Elec       q    Type
REMARK                         _______ _______ _______ _____ _____    ______ ____
ROOT
ATOM      2  O   UNL     1      11.815   5.816   3.151  0.00  0.00    -0.252 OA
ATOM      3  N   UNL     1      13.294   7.428   4.007  0.00  0.00    -0.278 N 
ATOM      4  N   UNL     1      15.661   8.523   5.057  0.00  0.00    -0.295 NA
ATOM      5  N   UNL     1      11.179   7.416   4.762  0.00  0.00    -0.279 N 
ATOM      6  C   UNL     1      13.209   8.590   4.867  0.00  0.00    +0.109 C 
ATOM      7  C   UNL     1      14.402   8.633   5.821  0.00  0.00    +0.109 C 
ATOM      8  C   UNL     1      11.849   8.438   5.548  0.00  0.00    +0.133 C 
ATOM      9  C   UNL     1      14.538   7.142   3.323  0.00  0.00    +0.125 C 
ATOM     10  C   UNL     1      15.710   7.255   4.301  0.00  0.00    +0.104 C 
ATOM     11  C   UNL     1      12.064   6.768   3.877  0.00  0.00    +0.305 C 
ENDROOT
BRANCH   4  12
ATOM     12  C   UNL     1      16.812   8.626   5.955  0.00  0.00    +0.121 C 
BRANCH  12  14
ATOM      1 CL   UNL     1      19.756   8.338   6.831  0.00  0.00    -0.083 Cl
ATOM     14  C   UNL     1      17.787   9.672   5.501  0.00  0.00    -0.015 A 
ATOM     16  C   UNL     1      19.137   9.617   5.853  0.00  0.00    +0.045 A 
ATOM     17  C   UNL     1      17.315  10.719   4.709  0.00  0.00    +0.006 A 
ATOM     22  C   UNL     1      20.012  10.608   5.412  0.00  0.00    +0.020 A 
ATOM     23  C   UNL     1      18.192  11.710   4.269  0.00  0.00    +0.000 A 
ATOM     25  C   UNL     1      19.540  11.655   4.620  0.00  0.00    +0.001 A 
ENDBRANCH  12  14
ENDBRANCH   4  12
BRANCH   5  13
ATOM     13  C   UNL     1       9.803   7.042   5.006  0.00  0.00    +0.144 C 
BRANCH  13  15
ATOM     15  C   UNL     1       9.625   6.402   6.353  0.00  0.00    -0.030 A 
ATOM     18  C   UNL     1       9.068   7.131   7.404  0.00  0.00    +0.005 A 
ATOM     19  C   UNL     1      10.021   5.079   6.554  0.00  0.00    +0.005 A 
ATOM     20  C   UNL     1       8.906   6.537   8.655  0.00  0.00    +0.003 A 
ATOM     21  C   UNL     1       9.859   4.486   7.807  0.00  0.00    +0.003 A 
ATOM     24  C   UNL     1       9.302   5.216   8.857  0.00  0.00    -0.050 A 
ATOM     26  C   UNL     1       9.129   4.582  10.196  0.00  0.00    +0.044 C 
ENDBRANCH  13  15
ENDBRANCH   5  13
TORSDOF 4
ENDMDL
MODEL 10
REMARK VINA RESULT:      -6.1     27.694     30.389
REMARK  Name = 75368689
REMARK  5 active torsions:
REMARK  status: ('A' for Active; 'I' for Inactive)
REMARK    1  A    between atoms: N_4  and  C_12
REMARK    2  A    between atoms: N_5  and  C_13
REMARK    3  A    between atoms: C_12  and  C_14
REMARK    4  A    between atoms: C_13  and  C_15
REMARK    5  A    between atoms: C_24  and  C_26
REMARK                            x       y       z     vdW  Elec       q    Type
REMARK                         _______ _______ _______ _____ _____    ______ ____
ROOT
ATOM      2  O   UNL     1      11.115  11.009  25.173  0.00  0.00    -0.252 OA
ATOM      3  N   UNL     1      11.170  10.507  22.878  0.00  0.00    -0.278 N 
ATOM      4  N   UNL     1      11.601   9.031  20.524  0.00  0.00    -0.295 NA
ATOM      5  N   UNL     1      11.905  12.522  23.546  0.00  0.00    -0.279 N 
ATOM      6  C   UNL     1      11.456  11.215  21.648  0.00  0.00    +0.109 C 
ATOM      7  C   UNL     1      12.273  10.333  20.705  0.00  0.00    +0.109 C 
ATOM      8  C   UNL     1      12.166  12.484  22.116  0.00  0.00    +0.133 C 
ATOM      9  C   UNL     1      10.645   9.159  22.815  0.00  0.00    +0.125 C 
ATOM     10  C   UNL     1      11.456   8.329  21.816  0.00  0.00    +0.104 C 
ATOM     11  C   UNL     1      11.361  11.308  24.013  0.00  0.00    +0.305 C 
ENDROOT
BRANCH   4  12
ATOM     12  C   UNL     1      12.344   8.202  19.575  0.00  0.00    +0.121 C 
BRANCH  12  14
ATOM      1 CL   UNL     1      14.687   9.576  18.112  0.00  0.00    -0.083 Cl
ATOM     14  C   UNL     1      12.128   8.641  18.156  0.00  0.00    -0.015 A 
ATOM     16  C   UNL     1      13.135   9.270  17.423  0.00  0.00    +0.045 A 
ATOM     17  C   UNL     1      10.883   8.407  17.573  0.00  0.00    +0.006 A 
ATOM     22  C   UNL     1      12.896   9.664  16.107  0.00  0.00    +0.020 A 
ATOM     23  C   UNL     1      10.645   8.802  16.256  0.00  0.00    +0.000 A 
ATOM     25  C   UNL     1      11.651   9.430  15.523  0.00  0.00    +0.001 A 
ENDBRANCH  12  14
ENDBRANCH   4  12
BRANCH   5  13
ATOM     13  C   UNL     1      12.316  13.637  24.370  0.00  0.00    +0.144 C 
BRANCH  13  15
ATOM     15  C   UNL     1      13.543  13.319  25.175  0.00  0.00    -0.030 A 
ATOM     18  C   UNL     1      13.489  13.340  26.568  0.00  0.00    +0.005 A 
ATOM     19  C   UNL     1      14.739  13.004  24.528  0.00  0.00    +0.005 A 
ATOM     20  C   UNL     1      14.629  13.047  27.315  0.00  0.00    +0.003 A 
ATOM     21  C   UNL     1      15.880  12.712  25.276  0.00  0.00    +0.003 A 
ATOM     24  C   UNL     1      15.824  12.734  26.670  0.00  0.00    -0.050 A 
ATOM     26  C   UNL     1      17.045  12.421  27.469  0.00  0.00    +0.044 C 
ENDBRANCH  13  15
ENDBRANCH   5  13
TORSDOF 4
ENDMDL
