MODEL 1
REMARK VINA RESULT:      -6.7      0.000      0.000
REMARK  Name = 25314828
REMARK  8 active torsions:
REMARK  status: ('A' for Active; 'I' for Inactive)
REMARK    1  A    between atoms: O_3  and  C_12
REMARK    2  A    between atoms: O_5  and  C_23
REMARK    3  A    between atoms: O_5  and  C_31
REMARK    4  A    between atoms: N_6  and  C_11
REMARK    5  A    between atoms: N_7  and  C_13
REMARK    6  A    between atoms: N_8  and  C_22
REMARK    7  A    between atoms: N_9  and  C_27
REMARK    8  A    between atoms: C_32  and  C_35
REMARK                            x       y       z     vdW  Elec       q    Type
REMARK                         _______ _______ _______ _____ _____    ______ ____
ROOT
ATOM      1  O   UNL     1      20.009  -6.213   1.328  0.00  0.00    -0.342 OA
ATOM      2  O   UNL     1      22.217  -5.924   0.677  0.00  0.00    -0.347 OA
ATOM     11  C   UNL     1      20.592  -6.603  -0.979  0.00  0.00    +0.144 C 
ATOM     12  C   UNL     1      20.873  -8.092  -0.677  0.00  0.00    +0.159 C 
ATOM     13  C   UNL     1      20.535  -8.499   0.774  0.00  0.00    +0.136 C 
ATOM     14  C   UNL     1      20.852  -5.739   0.268  0.00  0.00    +0.270 C 
ATOM     15  C   UNL     1      20.737  -7.355   1.789  0.00  0.00    +0.170 C 
ATOM     16  C   UNL     1      22.145  -6.793   1.818  0.00  0.00    +0.196 C 
ENDROOT
BRANCH  13   7
ATOM      4  O   UNL     1      19.561 -10.592   2.469  0.00  0.00    -0.252 OA
ATOM      7  N   UNL     1      19.174  -8.987   0.850  0.00  0.00    -0.291 N 
ATOM      9  N   UNL     1      17.417 -10.274   1.566  0.00  0.00    -0.269 N 
ATOM     21  C   UNL     1      18.784 -10.017   1.709  0.00  0.00    +0.304 C 
ATOM     36  H   UNL     1      18.493  -8.617   0.196  0.00  0.00    +0.151 HD
ATOM     38  H   UNL     1      16.916  -9.704   0.889  0.00  0.00    +0.156 HD
BRANCH   9  27
ATOM     27  C   UNL     1      16.637 -11.235   2.250  0.00  0.00    +0.036 A 
ATOM     29  C   UNL     1      16.372 -11.079   3.610  0.00  0.00    +0.042 A 
ATOM     30  C   UNL     1      16.133 -12.339   1.562  0.00  0.00    +0.023 A 
ATOM     32  C   UNL     1      15.603 -12.028   4.284  0.00  0.00    +0.054 A 
ATOM     33  C   UNL     1      15.364 -13.287   2.236  0.00  0.00    +0.003 A 
ATOM     34  C   UNL     1      15.098 -13.132   3.598  0.00  0.00    +0.019 A 
BRANCH  32  35
ATOM     10  N   UNL     1      15.109 -11.738   6.809  0.00  0.00    -0.191 NA
ATOM     35  C   UNL     1      15.330 -11.869   5.677  0.00  0.00    +0.099 C 
ENDBRANCH  32  35
ENDBRANCH   9  27
ENDBRANCH  13   7
BRANCH  11   6
ATOM      6  N   UNL     1      19.206  -6.432  -1.420  0.00  0.00    -0.290 NA
ATOM      8  N   UNL     1      17.107  -5.961  -3.300  0.00  0.00    -0.325 N 
ATOM     17  C   UNL     1      18.850  -7.458  -2.408  0.00  0.00    +0.104 C 
ATOM     18  C   UNL     1      19.011  -5.096  -1.995  0.00  0.00    +0.104 C 
ATOM     19  C   UNL     1      17.386  -7.324  -2.836  0.00  0.00    +0.120 C 
ATOM     20  C   UNL     1      17.552  -4.884  -2.408  0.00  0.00    +0.120 C 
BRANCH   8  22
ATOM     22  C   UNL     1      16.001  -5.721  -4.122  0.00  0.00    +0.072 A 
ATOM     23  C   UNL     1      16.172  -5.408  -5.471  0.00  0.00    +0.141 A 
ATOM     24  C   UNL     1      14.717  -5.795  -3.581  0.00  0.00    +0.027 A 
ATOM     25  C   UNL     1      15.061  -5.170  -6.278  0.00  0.00    +0.047 A 
ATOM     26  C   UNL     1      13.605  -5.557  -4.390  0.00  0.00    +0.002 A 
ATOM     28  C   UNL     1      13.777  -5.245  -5.738  0.00  0.00    +0.004 A 
BRANCH  23   5
ATOM      5  O   UNL     1      17.418  -5.330  -6.017  0.00  0.00    -0.493 OA
ATOM     31  C   UNL     1      17.889  -6.477  -6.723  0.00  0.00    +0.277 C 
ENDBRANCH  23   5
ENDBRANCH   8  22
ENDBRANCH  11   6
BRANCH  12   3
ATOM      3  O   UNL     1      22.268  -8.329  -0.908  0.00  0.00    -0.388 OA
ATOM     37  H   UNL     1      22.416  -8.304  -1.869  0.00  0.00    +0.210 HD
ENDBRANCH  12   3
TORSDOF 7
ENDMDL
MODEL 2
REMARK VINA RESULT:      -6.6     25.379     29.845
REMARK  Name = 25314828
REMARK  8 active torsions:
REMARK  status: ('A' for Active; 'I' for Inactive)
REMARK    1  A    between atoms: O_3  and  C_12
REMARK    2  A    between atoms: O_5  and  C_23
REMARK    3  A    between atoms: O_5  and  C_31
REMARK    4  A    between atoms: N_6  and  C_11
REMARK    5  A    between atoms: N_7  and  C_13
REMARK    6  A    between atoms: N_8  and  C_22
REMARK    7  A    between atoms: N_9  and  C_27
REMARK    8  A    between atoms: C_32  and  C_35
REMARK                            x       y       z     vdW  Elec       q    Type
REMARK                         _______ _______ _______ _____ _____    ______ ____
ROOT
ATOM      1  O   UNL     1      -4.835 -10.315  18.168  0.00  0.00    -0.342 OA
ATOM      2  O   UNL     1      -4.654 -12.520  18.866  0.00  0.00    -0.347 OA
ATOM     11  C   UNL     1      -5.430 -12.066  16.621  0.00  0.00    +0.144 C 
ATOM     12  C   UNL     1      -6.895 -12.028  17.111  0.00  0.00    +0.159 C 
ATOM     13  C   UNL     1      -7.172 -10.906  18.136  0.00  0.00    +0.136 C 
ATOM     14  C   UNL     1      -4.471 -11.637  17.747  0.00  0.00    +0.270 C 
ATOM     15  C   UNL     1      -5.952 -10.579  19.022  0.00  0.00    +0.170 C 
ATOM     16  C   UNL     1      -5.423 -11.761  19.812  0.00  0.00    +0.196 C 
ENDROOT
BRANCH  13   7
ATOM      4  O   UNL     1      -9.828 -10.350  17.220  0.00  0.00    -0.252 OA
ATOM      7  N   UNL     1      -7.619  -9.709  17.456  0.00  0.00    -0.291 N 
ATOM      9  N   UNL     1      -9.074  -8.277  16.416  0.00  0.00    -0.269 N 
ATOM     21  C   UNL     1      -8.939  -9.519  17.042  0.00  0.00    +0.304 C 
ATOM     36  H   UNL     1      -6.925  -9.013  17.203  0.00  0.00    +0.151 HD
ATOM     38  H   UNL     1      -8.236  -7.706  16.351  0.00  0.00    +0.156 HD
BRANCH   9  27
ATOM     27  C   UNL     1     -10.243  -7.707  15.858  0.00  0.00    +0.036 A 
ATOM     29  C   UNL     1     -10.741  -8.184  14.646  0.00  0.00    +0.042 A 
ATOM     30  C   UNL     1     -10.897  -6.669  16.521  0.00  0.00    +0.023 A 
ATOM     32  C   UNL     1     -11.893  -7.622  14.096  0.00  0.00    +0.054 A 
ATOM     33  C   UNL     1     -12.048  -6.107  15.971  0.00  0.00    +0.003 A 
ATOM     34  C   UNL     1     -12.548  -6.584  14.758  0.00  0.00    +0.019 A 
BRANCH  32  35
ATOM     10  N   UNL     1     -12.820  -8.508  11.847  0.00  0.00    -0.191 NA
ATOM     35  C   UNL     1     -12.405  -8.111  12.855  0.00  0.00    +0.099 C 
ENDBRANCH  32  35
ENDBRANCH   9  27
ENDBRANCH  13   7
BRANCH  11   6
ATOM      6  N   UNL     1      -5.263 -11.183  15.465  0.00  0.00    -0.290 NA
ATOM      8  N   UNL     1      -4.998 -10.535  12.695  0.00  0.00    -0.325 N 
ATOM     17  C   UNL     1      -6.416 -11.291  14.563  0.00  0.00    +0.104 C 
ATOM     18  C   UNL     1      -4.029 -11.512  14.740  0.00  0.00    +0.104 C 
ATOM     19  C   UNL     1      -6.280 -10.331  13.378  0.00  0.00    +0.120 C 
ATOM     20  C   UNL     1      -3.814 -10.558  13.562  0.00  0.00    +0.120 C 
BRANCH   8  22
ATOM     22  C   UNL     1      -4.839 -10.100  11.375  0.00  0.00    +0.072 A 
ATOM     23  C   UNL     1      -4.318 -10.954  10.404  0.00  0.00    +0.141 A 
ATOM     24  C   UNL     1      -5.206  -8.798  11.034  0.00  0.00    +0.027 A 
ATOM     25  C   UNL     1      -4.163 -10.507   9.092  0.00  0.00    +0.047 A 
ATOM     26  C   UNL     1      -5.052  -8.351   9.721  0.00  0.00    +0.002 A 
ATOM     28  C   UNL     1      -4.531  -9.206   8.750  0.00  0.00    +0.004 A 
BRANCH  23   5
ATOM      5  O   UNL     1      -3.952 -12.229  10.717  0.00  0.00    -0.493 OA
ATOM     31  C   UNL     1      -4.193 -13.232   9.731  0.00  0.00    +0.277 C 
ENDBRANCH  23   5
ENDBRANCH   8  22
ENDBRANCH  11   6
BRANCH  12   3
ATOM      3  O   UNL     1      -7.183 -13.292  17.723  0.00  0.00    -0.388 OA
ATOM     37  H   UNL     1      -7.659 -13.115  18.553  0.00  0.00    +0.210 HD
ENDBRANCH  12   3
TORSDOF 7
ENDMDL
MODEL 3
REMARK VINA RESULT:      -6.3     45.380     48.304
REMARK  Name = 25314828
REMARK  8 active torsions:
REMARK  status: ('A' for Active; 'I' for Inactive)
REMARK    1  A    between atoms: O_3  and  C_12
REMARK    2  A    between atoms: O_5  and  C_23
REMARK    3  A    between atoms: O_5  and  C_31
REMARK    4  A    between atoms: N_6  and  C_11
REMARK    5  A    between atoms: N_7  and  C_13
REMARK    6  A    between atoms: N_8  and  C_22
REMARK    7  A    between atoms: N_9  and  C_27
REMARK    8  A    between atoms: C_32  and  C_35
REMARK                            x       y       z     vdW  Elec       q    Type
REMARK                         _______ _______ _______ _____ _____    ______ ____
ROOT
ATOM      1  O   UNL     1      -6.850 -10.916  41.144  0.00  0.00    -0.342 OA
ATOM      2  O   UNL     1      -5.970 -12.085  39.344  0.00  0.00    -0.347 OA
ATOM     11  C   UNL     1      -5.575  -9.704  39.494  0.00  0.00    +0.144 C 
ATOM     12  C   UNL     1      -6.859  -9.418  38.684  0.00  0.00    +0.159 C 
ATOM     13  C   UNL     1      -8.148  -9.911  39.378  0.00  0.00    +0.136 C 
ATOM     14  C   UNL     1      -5.712 -11.024  40.277  0.00  0.00    +0.270 C 
ATOM     15  C   UNL     1      -7.929 -11.172  40.240  0.00  0.00    +0.170 C 
ATOM     16  C   UNL     1      -7.373 -12.358  39.474  0.00  0.00    +0.196 C 
ENDROOT
BRANCH  13   7
ATOM      4  O   UNL     1      -9.660  -7.662  38.453  0.00  0.00    -0.252 OA
ATOM      7  N   UNL     1      -8.711  -8.854  40.191  0.00  0.00    -0.291 N 
ATOM      9  N   UNL     1      -9.855  -6.928  40.674  0.00  0.00    -0.269 N 
ATOM     21  C   UNL     1      -9.439  -7.789  39.655  0.00  0.00    +0.304 C 
ATOM     36  H   UNL     1      -8.502  -8.848  41.184  0.00  0.00    +0.151 HD
ATOM     38  H   UNL     1      -9.587  -7.180  41.621  0.00  0.00    +0.156 HD
BRANCH   9  27
ATOM     27  C   UNL     1     -10.611  -5.738  40.551  0.00  0.00    +0.036 A 
ATOM     29  C   UNL     1     -10.057  -4.621  39.927  0.00  0.00    +0.042 A 
ATOM     30  C   UNL     1     -11.911  -5.684  41.055  0.00  0.00    +0.023 A 
ATOM     32  C   UNL     1     -10.803  -3.448  39.807  0.00  0.00    +0.054 A 
ATOM     33  C   UNL     1     -12.656  -4.512  40.935  0.00  0.00    +0.003 A 
ATOM     34  C   UNL     1     -12.103  -3.393  40.310  0.00  0.00    +0.019 A 
BRANCH  32  35
ATOM     10  N   UNL     1      -9.777  -1.374  38.646  0.00  0.00    -0.191 NA
ATOM     35  C   UNL     1     -10.237  -2.303  39.167  0.00  0.00    +0.099 C 
ENDBRANCH  32  35
ENDBRANCH   9  27
ENDBRANCH  13   7
BRANCH  11   6
ATOM      6  N   UNL     1      -5.310  -8.603  40.422  0.00  0.00    -0.290 NA
ATOM      8  N   UNL     1      -3.963  -6.278  41.392  0.00  0.00    -0.325 N 
ATOM     17  C   UNL     1      -5.482  -7.310  39.749  0.00  0.00    +0.104 C 
ATOM     18  C   UNL     1      -3.950  -8.706  40.967  0.00  0.00    +0.104 C 
ATOM     19  C   UNL     1      -5.261  -6.150  40.723  0.00  0.00    +0.120 C 
ATOM     20  C   UNL     1      -3.680  -7.592  41.982  0.00  0.00    +0.120 C 
BRANCH   8  22
ATOM     22  C   UNL     1      -3.368  -5.153  41.975  0.00  0.00    +0.072 A 
ATOM     23  C   UNL     1      -2.318  -4.494  41.336  0.00  0.00    +0.141 A 
ATOM     24  C   UNL     1      -3.834  -4.694  43.206  0.00  0.00    +0.027 A 
ATOM     25  C   UNL     1      -1.733  -3.376  41.928  0.00  0.00    +0.047 A 
ATOM     26  C   UNL     1      -3.250  -3.574  43.799  0.00  0.00    +0.002 A 
ATOM     28  C   UNL     1      -2.199  -2.915  43.160  0.00  0.00    +0.004 A 
BRANCH  23   5
ATOM      5  O   UNL     1      -1.848  -4.929  40.133  0.00  0.00    -0.493 OA
ATOM     31  C   UNL     1      -0.694  -5.769  40.154  0.00  0.00    +0.277 C 
ENDBRANCH  23   5
ENDBRANCH   8  22
ENDBRANCH  11   6
BRANCH  12   3
ATOM      3  O   UNL     1      -6.735 -10.083  37.420  0.00  0.00    -0.388 OA
ATOM     37  H   UNL     1      -7.461 -10.727  37.353  0.00  0.00    +0.210 HD
ENDBRANCH  12   3
TORSDOF 7
ENDMDL
MODEL 4
REMARK VINA RESULT:      -6.3     25.136     29.395
REMARK  Name = 25314828
REMARK  8 active torsions:
REMARK  status: ('A' for Active; 'I' for Inactive)
REMARK    1  A    between atoms: O_3  and  C_12
REMARK    2  A    between atoms: O_5  and  C_23
REMARK    3  A    between atoms: O_5  and  C_31
REMARK    4  A    between atoms: N_6  and  C_11
REMARK    5  A    between atoms: N_7  and  C_13
REMARK    6  A    between atoms: N_8  and  C_22
REMARK    7  A    between atoms: N_9  and  C_27
REMARK    8  A    between atoms: C_32  and  C_35
REMARK                            x       y       z     vdW  Elec       q    Type
REMARK                         _______ _______ _______ _____ _____    ______ ____
ROOT
ATOM      1  O   UNL     1      -4.143 -13.053  13.603  0.00  0.00    -0.342 OA
ATOM      2  O   UNL     1      -2.045 -12.995  14.593  0.00  0.00    -0.347 OA
ATOM     11  C   UNL     1      -3.702 -11.369  15.271  0.00  0.00    +0.144 C 
ATOM     12  C   UNL     1      -3.217 -10.387  14.180  0.00  0.00    +0.159 C 
ATOM     13  C   UNL     1      -3.387 -10.931  12.745  0.00  0.00    +0.136 C 
ATOM     14  C   UNL     1      -3.451 -12.825  14.839  0.00  0.00    +0.270 C 
ATOM     15  C   UNL     1      -3.246 -12.465  12.656  0.00  0.00    +0.170 C 
ATOM     16  C   UNL     1      -1.919 -12.997  13.163  0.00  0.00    +0.196 C 
ENDROOT
BRANCH  13   7
ATOM      4  O   UNL     1      -3.900  -9.966  10.097  0.00  0.00    -0.252 OA
ATOM      7  N   UNL     1      -4.667 -10.524  12.206  0.00  0.00    -0.291 N 
ATOM      9  N   UNL     1      -6.168  -9.745  10.659  0.00  0.00    -0.269 N 
ATOM     21  C   UNL     1      -4.828 -10.064  10.897  0.00  0.00    +0.304 C 
ATOM     36  H   UNL     1      -5.467 -10.501  12.830  0.00  0.00    +0.151 HD
ATOM     38  H   UNL     1      -6.814  -9.885  11.431  0.00  0.00    +0.156 HD
BRANCH   9  27
ATOM     27  C   UNL     1      -6.745  -9.248   9.466  0.00  0.00    +0.036 A 
ATOM     29  C   UNL     1      -7.442  -8.040   9.479  0.00  0.00    +0.042 A 
ATOM     30  C   UNL     1      -6.615  -9.968   8.278  0.00  0.00    +0.023 A 
ATOM     32  C   UNL     1      -8.011  -7.551   8.303  0.00  0.00    +0.054 A 
ATOM     33  C   UNL     1      -7.184  -9.478   7.103  0.00  0.00    +0.003 A 
ATOM     34  C   UNL     1      -7.881  -8.270   7.114  0.00  0.00    +0.019 A 
BRANCH  32  35
ATOM     10  N   UNL     1      -9.304  -5.309   8.324  0.00  0.00    -0.191 NA
ATOM     35  C   UNL     1      -8.724  -6.314   8.314  0.00  0.00    +0.099 C 
ENDBRANCH  32  35
ENDBRANCH   9  27
ENDBRANCH  13   7
BRANCH  11   6
ATOM      6  N   UNL     1      -5.129 -11.168  15.531  0.00  0.00    -0.290 NA
ATOM      8  N   UNL     1      -7.442 -10.659  17.129  0.00  0.00    -0.325 N 
ATOM     17  C   UNL     1      -5.368  -9.831  16.087  0.00  0.00    +0.104 C 
ATOM     18  C   UNL     1      -5.632 -12.191  16.456  0.00  0.00    +0.104 C 
ATOM     19  C   UNL     1      -6.863  -9.588  16.311  0.00  0.00    +0.120 C 
ATOM     20  C   UNL     1      -7.136 -12.026  16.692  0.00  0.00    +0.120 C 
BRANCH   8  22
ATOM     22  C   UNL     1      -8.644 -10.439  17.810  0.00  0.00    +0.072 A 
ATOM     23  C   UNL     1      -8.811 -10.889  19.119  0.00  0.00    +0.141 A 
ATOM     24  C   UNL     1      -9.682  -9.764  17.166  0.00  0.00    +0.027 A 
ATOM     25  C   UNL     1     -10.015 -10.664  19.785  0.00  0.00    +0.047 A 
ATOM     26  C   UNL     1     -10.886  -9.539  17.833  0.00  0.00    +0.002 A 
ATOM     28  C   UNL     1     -11.053  -9.989  19.143  0.00  0.00    +0.004 A 
BRANCH  23   5
ATOM      5  O   UNL     1      -7.810 -11.551  19.764  0.00  0.00    -0.493 OA
ATOM     31  C   UNL     1      -8.064 -12.905  20.135  0.00  0.00    +0.277 C 
ENDBRANCH  23   5
ENDBRANCH   8  22
ENDBRANCH  11   6
BRANCH  12   3
ATOM      3  O   UNL     1      -1.827 -10.128  14.413  0.00  0.00    -0.388 OA
ATOM     37  H   UNL     1      -1.526  -9.502  13.732  0.00  0.00    +0.210 HD
ENDBRANCH  12   3
TORSDOF 7
ENDMDL
MODEL 5
REMARK VINA RESULT:      -6.2     15.349     18.298
REMARK  Name = 25314828
REMARK  8 active torsions:
REMARK  status: ('A' for Active; 'I' for Inactive)
REMARK    1  A    between atoms: O_3  and  C_12
REMARK    2  A    between atoms: O_5  and  C_23
REMARK    3  A    between atoms: O_5  and  C_31
REMARK    4  A    between atoms: N_6  and  C_11
REMARK    5  A    between atoms: N_7  and  C_13
REMARK    6  A    between atoms: N_8  and  C_22
REMARK    7  A    between atoms: N_9  and  C_27
REMARK    8  A    between atoms: C_32  and  C_35
REMARK                            x       y       z     vdW  Elec       q    Type
REMARK                         _______ _______ _______ _____ _____    ______ ____
ROOT
ATOM      1  O   UNL     1      10.829   8.622   5.619  0.00  0.00    -0.342 OA
ATOM      2  O   UNL     1      10.414   8.194   7.861  0.00  0.00    -0.347 OA
ATOM     11  C   UNL     1      12.671   7.956   7.025  0.00  0.00    +0.144 C 
ATOM     12  C   UNL     1      12.414   6.469   6.690  0.00  0.00    +0.159 C 
ATOM     13  C   UNL     1      11.303   6.259   5.638  0.00  0.00    +0.136 C 
ATOM     14  C   UNL     1      11.362   8.763   6.943  0.00  0.00    +0.270 C 
ATOM     15  C   UNL     1      10.202   7.338   5.693  0.00  0.00    +0.170 C 
ATOM     16  C   UNL     1       9.506   7.447   7.037  0.00  0.00    +0.196 C 
ENDROOT
BRANCH  13   7
ATOM      4  O   UNL     1      10.532   4.513   3.503  0.00  0.00    -0.252 OA
ATOM      7  N   UNL     1      11.876   6.211   4.310  0.00  0.00    -0.291 N 
ATOM      9  N   UNL     1      12.173   5.506   2.150  0.00  0.00    -0.269 N 
ATOM     21  C   UNL     1      11.438   5.324   3.325  0.00  0.00    +0.304 C 
ATOM     36  H   UNL     1      12.683   6.796   4.113  0.00  0.00    +0.151 HD
ATOM     38  H   UNL     1      12.892   6.224   2.169  0.00  0.00    +0.156 HD
BRANCH   9  27
ATOM     27  C   UNL     1      12.041   4.809   0.926  0.00  0.00    +0.036 A 
ATOM     29  C   UNL     1      11.033   5.160   0.028  0.00  0.00    +0.042 A 
ATOM     30  C   UNL     1      12.920   3.771   0.617  0.00  0.00    +0.023 A 
ATOM     32  C   UNL     1      10.902   4.472  -1.179  0.00  0.00    +0.054 A 
ATOM     33  C   UNL     1      12.790   3.084  -0.590  0.00  0.00    +0.003 A 
ATOM     34  C   UNL     1      11.782   3.434  -1.488  0.00  0.00    +0.019 A 
BRANCH  32  35
ATOM     10  N   UNL     1       9.032   5.123  -2.846  0.00  0.00    -0.191 NA
ATOM     35  C   UNL     1       9.871   4.831  -2.099  0.00  0.00    +0.099 C 
ENDBRANCH  32  35
ENDBRANCH   9  27
ENDBRANCH  13   7
BRANCH  11   6
ATOM      6  N   UNL     1      13.658   8.517   6.100  0.00  0.00    -0.290 NA
ATOM      8  N   UNL     1      16.217   9.502   5.299  0.00  0.00    -0.325 N 
ATOM     17  C   UNL     1      14.789   7.597   5.934  0.00  0.00    +0.104 C 
ATOM     18  C   UNL     1      14.137   9.816   6.585  0.00  0.00    +0.104 C 
ATOM     19  C   UNL     1      15.802   8.146   4.926  0.00  0.00    +0.120 C 
ATOM     20  C   UNL     1      15.127  10.440   5.597  0.00  0.00    +0.120 C 
BRANCH   8  22
ATOM     22  C   UNL     1      17.415  10.024   4.800  0.00  0.00    +0.072 A 
ATOM     23  C   UNL     1      18.625   9.764   5.443  0.00  0.00    +0.141 A 
ATOM     24  C   UNL     1      17.392  10.811   3.649  0.00  0.00    +0.027 A 
ATOM     25  C   UNL     1      19.812  10.291   4.936  0.00  0.00    +0.047 A 
ATOM     26  C   UNL     1      18.580  11.337   3.140  0.00  0.00    +0.002 A 
ATOM     28  C   UNL     1      19.790  11.078   3.784  0.00  0.00    +0.004 A 
BRANCH  23   5
ATOM      5  O   UNL     1      18.668   8.999   6.570  0.00  0.00    -0.493 OA
ATOM     31  C   UNL     1      19.931   8.436   6.922  0.00  0.00    +0.277 C 
ENDBRANCH  23   5
ENDBRANCH   8  22
ENDBRANCH  11   6
BRANCH  12   3
ATOM      3  O   UNL     1      12.030   5.809   7.904  0.00  0.00    -0.388 OA
ATOM     37  H   UNL     1      12.493   4.954   7.933  0.00  0.00    +0.210 HD
ENDBRANCH  12   3
TORSDOF 7
ENDMDL
MODEL 6
REMARK VINA RESULT:      -6.2     27.451     31.539
REMARK  Name = 25314828
REMARK  8 active torsions:
REMARK  status: ('A' for Active; 'I' for Inactive)
REMARK    1  A    between atoms: O_3  and  C_12
REMARK    2  A    between atoms: O_5  and  C_23
REMARK    3  A    between atoms: O_5  and  C_31
REMARK    4  A    between atoms: N_6  and  C_11
REMARK    5  A    between atoms: N_7  and  C_13
REMARK    6  A    between atoms: N_8  and  C_22
REMARK    7  A    between atoms: N_9  and  C_27
REMARK    8  A    between atoms: C_32  and  C_35
REMARK                            x       y       z     vdW  Elec       q    Type
REMARK                         _______ _______ _______ _____ _____    ______ ____
ROOT
ATOM      1  O   UNL     1      -9.799 -10.978  15.182  0.00  0.00    -0.342 OA
ATOM      2  O   UNL     1     -10.036 -11.462  17.439  0.00  0.00    -0.347 OA
ATOM     11  C   UNL     1      -9.989  -9.147  16.740  0.00  0.00    +0.144 C 
ATOM     12  C   UNL     1      -8.453  -9.105  16.908  0.00  0.00    +0.159 C 
ATOM     13  C   UNL     1      -7.706 -10.084  15.976  0.00  0.00    +0.136 C 
ATOM     14  C   UNL     1     -10.456 -10.573  16.391  0.00  0.00    +0.270 C 
ATOM     15  C   UNL     1      -8.510 -11.364  15.668  0.00  0.00    +0.170 C 
ATOM     16  C   UNL     1      -8.904 -12.159  16.898  0.00  0.00    +0.196 C 
ENDROOT
BRANCH  13   7
ATOM      4  O   UNL     1      -6.048 -11.131  13.888  0.00  0.00    -0.252 OA
ATOM      7  N   UNL     1      -7.349  -9.420  14.739  0.00  0.00    -0.291 N 
ATOM      9  N   UNL     1      -6.361  -9.137  12.691  0.00  0.00    -0.269 N 
ATOM     21  C   UNL     1      -6.531 -10.007  13.771  0.00  0.00    +0.304 C 
ATOM     36  H   UNL     1      -7.645  -8.459  14.607  0.00  0.00    +0.151 HD
ATOM     38  H   UNL     1      -6.833  -8.238  12.751  0.00  0.00    +0.156 HD
BRANCH   9  27
ATOM     27  C   UNL     1      -5.609  -9.351  11.512  0.00  0.00    +0.036 A 
ATOM     29  C   UNL     1      -6.231  -9.290  10.266  0.00  0.00    +0.042 A 
ATOM     30  C   UNL     1      -4.243  -9.622  11.598  0.00  0.00    +0.023 A 
ATOM     32  C   UNL     1      -5.488  -9.502   9.104  0.00  0.00    +0.054 A 
ATOM     33  C   UNL     1      -3.501  -9.833  10.437  0.00  0.00    +0.003 A 
ATOM     34  C   UNL     1      -4.123  -9.773   9.189  0.00  0.00    +0.019 A 
BRANCH  32  35
ATOM     10  N   UNL     1      -6.642  -9.388   6.789  0.00  0.00    -0.191 NA
ATOM     35  C   UNL     1      -6.125  -9.440   7.827  0.00  0.00    +0.099 C 
ENDBRANCH  32  35
ENDBRANCH   9  27
ENDBRANCH  13   7
BRANCH  11   6
ATOM      6  N   UNL     1     -10.406  -8.218  15.688  0.00  0.00    -0.290 NA
ATOM      8  N   UNL     1     -12.098  -6.288  14.435  0.00  0.00    -0.325 N 
ATOM     17  C   UNL     1     -10.488  -6.849  16.213  0.00  0.00    +0.104 C 
ATOM     18  C   UNL     1     -11.704  -8.619  15.133  0.00  0.00    +0.104 C 
ATOM     19  C   UNL     1     -10.869  -5.859  15.109  0.00  0.00    +0.120 C 
ATOM     20  C   UNL     1     -12.124  -7.687  13.993  0.00  0.00    +0.120 C 
BRANCH   8  22
ATOM     22  C   UNL     1     -12.857  -5.356  13.717  0.00  0.00    +0.072 A 
ATOM     23  C   UNL     1     -14.245  -5.318  13.848  0.00  0.00    +0.141 A 
ATOM     24  C   UNL     1     -12.212  -4.462  12.862  0.00  0.00    +0.027 A 
ATOM     25  C   UNL     1     -14.988  -4.386  13.126  0.00  0.00    +0.047 A 
ATOM     26  C   UNL     1     -12.956  -3.529  12.140  0.00  0.00    +0.002 A 
ATOM     28  C   UNL     1     -14.344  -3.490  12.272  0.00  0.00    +0.004 A 
BRANCH  23   5
ATOM      5  O   UNL     1     -14.893  -6.185  14.677  0.00  0.00    -0.493 OA
ATOM     31  C   UNL     1     -16.035  -6.855  14.146  0.00  0.00    +0.277 C 
ENDBRANCH  23   5
ENDBRANCH   8  22
ENDBRANCH  11   6
BRANCH  12   3
ATOM      3  O   UNL     1      -8.153  -9.446  18.268  0.00  0.00    -0.388 OA
ATOM     37  H   UNL     1      -8.239 -10.411  18.355  0.00  0.00    +0.210 HD
ENDBRANCH  12   3
TORSDOF 7
ENDMDL
MODEL 7
REMARK VINA RESULT:      -6.1     24.541     27.663
REMARK  Name = 25314828
REMARK  8 active torsions:
REMARK  status: ('A' for Active; 'I' for Inactive)
REMARK    1  A    between atoms: O_3  and  C_12
REMARK    2  A    between atoms: O_5  and  C_23
REMARK    3  A    between atoms: O_5  and  C_31
REMARK    4  A    between atoms: N_6  and  C_11
REMARK    5  A    between atoms: N_7  and  C_13
REMARK    6  A    between atoms: N_8  and  C_22
REMARK    7  A    between atoms: N_9  and  C_27
REMARK    8  A    between atoms: C_32  and  C_35
REMARK                            x       y       z     vdW  Elec       q    Type
REMARK                         _______ _______ _______ _____ _____    ______ ____
ROOT
ATOM      1  O   UNL     1      -2.555 -10.249  13.385  0.00  0.00    -0.342 OA
ATOM      2  O   UNL     1      -1.619 -12.350  13.081  0.00  0.00    -0.347 OA
ATOM     11  C   UNL     1      -3.701 -11.828  11.968  0.00  0.00    +0.144 C 
ATOM     12  C   UNL     1      -4.506 -12.358  13.176  0.00  0.00    +0.159 C 
ATOM     13  C   UNL     1      -4.248 -11.570  14.480  0.00  0.00    +0.136 C 
ATOM     14  C   UNL     1      -2.332 -11.290  12.423  0.00  0.00    +0.270 C 
ATOM     15  C   UNL     1      -2.816 -11.002  14.573  0.00  0.00    +0.170 C 
ATOM     16  C   UNL     1      -1.725 -12.052  14.482  0.00  0.00    +0.196 C 
ENDROOT
BRANCH  13   7
ATOM      4  O   UNL     1      -6.803 -11.714  15.765  0.00  0.00    -0.252 OA
ATOM      7  N   UNL     1      -5.210 -10.497  14.613  0.00  0.00    -0.291 N 
ATOM      9  N   UNL     1      -7.155  -9.455  15.232  0.00  0.00    -0.269 N 
ATOM     21  C   UNL     1      -6.439 -10.655  15.258  0.00  0.00    +0.304 C 
ATOM     36  H   UNL     1      -5.015  -9.616  14.150  0.00  0.00    +0.151 HD
ATOM     38  H   UNL     1      -6.708  -8.668  14.770  0.00  0.00    +0.156 HD
BRANCH   9  27
ATOM     27  C   UNL     1      -8.437  -9.196  15.773  0.00  0.00    +0.036 A 
ATOM     29  C   UNL     1      -9.548  -9.128  14.933  0.00  0.00    +0.042 A 
ATOM     30  C   UNL     1      -8.588  -9.009  17.147  0.00  0.00    +0.023 A 
ATOM     32  C   UNL     1     -10.811  -8.872  15.467  0.00  0.00    +0.054 A 
ATOM     33  C   UNL     1      -9.850  -8.754  17.680  0.00  0.00    +0.003 A 
ATOM     34  C   UNL     1     -10.963  -8.685  16.841  0.00  0.00    +0.019 A 
BRANCH  32  35
ATOM     10  N   UNL     1     -12.876  -8.748  13.910  0.00  0.00    -0.191 NA
ATOM     35  C   UNL     1     -11.950  -8.803  14.608  0.00  0.00    +0.099 C 
ENDBRANCH  32  35
ENDBRANCH   9  27
ENDBRANCH  13   7
BRANCH  11   6
ATOM      6  N   UNL     1      -4.450 -10.767  11.291  0.00  0.00    -0.290 NA
ATOM      8  N   UNL     1      -5.959  -9.584   9.173  0.00  0.00    -0.325 N 
ATOM     17  C   UNL     1      -5.830 -11.195  11.033  0.00  0.00    +0.104 C 
ATOM     18  C   UNL     1      -3.796 -10.402  10.028  0.00  0.00    +0.104 C 
ATOM     19  C   UNL     1      -6.640 -10.074  10.375  0.00  0.00    +0.120 C 
ATOM     20  C   UNL     1      -4.538  -9.254   9.339  0.00  0.00    +0.120 C 
BRANCH   8  22
ATOM     22  C   UNL     1      -6.685  -8.894   8.196  0.00  0.00    +0.072 A 
ATOM     23  C   UNL     1      -6.667  -9.316   6.867  0.00  0.00    +0.141 A 
ATOM     24  C   UNL     1      -7.432  -7.774   8.562  0.00  0.00    +0.027 A 
ATOM     25  C   UNL     1      -7.394  -8.619   5.904  0.00  0.00    +0.047 A 
ATOM     26  C   UNL     1      -8.161  -7.077   7.598  0.00  0.00    +0.002 A 
ATOM     28  C   UNL     1      -8.142  -7.499   6.269  0.00  0.00    +0.004 A 
BRANCH  23   5
ATOM      5  O   UNL     1      -5.942 -10.407   6.489  0.00  0.00    -0.493 OA
ATOM     31  C   UNL     1      -6.138 -10.886   5.159  0.00  0.00    +0.277 C 
ENDBRANCH  23   5
ENDBRANCH   8  22
ENDBRANCH  11   6
BRANCH  12   3
ATOM      3  O   UNL     1      -4.132 -13.726  13.383  0.00  0.00    -0.388 OA
ATOM     37  H   UNL     1      -3.743 -13.793  14.273  0.00  0.00    +0.210 HD
ENDBRANCH  12   3
TORSDOF 7
ENDMDL
MODEL 8
REMARK VINA RESULT:      -6.1     15.195     18.051
REMARK  Name = 25314828
REMARK  8 active torsions:
REMARK  status: ('A' for Active; 'I' for Inactive)
REMARK    1  A    between atoms: O_3  and  C_12
REMARK    2  A    between atoms: O_5  and  C_23
REMARK    3  A    between atoms: O_5  and  C_31
REMARK    4  A    between atoms: N_6  and  C_11
REMARK    5  A    between atoms: N_7  and  C_13
REMARK    6  A    between atoms: N_8  and  C_22
REMARK    7  A    between atoms: N_9  and  C_27
REMARK    8  A    between atoms: C_32  and  C_35
REMARK                            x       y       z     vdW  Elec       q    Type
REMARK                         _______ _______ _______ _____ _____    ______ ____
ROOT
ATOM      1  O   UNL     1       9.828   8.568   5.771  0.00  0.00    -0.342 OA
ATOM      2  O   UNL     1       9.259   7.805   7.887  0.00  0.00    -0.347 OA
ATOM     11  C   UNL     1      11.495   7.399   7.062  0.00  0.00    +0.144 C 
ATOM     12  C   UNL     1      11.050   6.050   6.453  0.00  0.00    +0.159 C 
ATOM     13  C   UNL     1       9.968   6.197   5.361  0.00  0.00    +0.136 C 
ATOM     14  C   UNL     1      10.316   8.388   7.108  0.00  0.00    +0.270 C 
ATOM     15  C   UNL     1       9.026   7.396   5.595  0.00  0.00    +0.170 C 
ATOM     16  C   UNL     1       8.293   7.359   6.922  0.00  0.00    +0.196 C 
ENDROOT
BRANCH  13   7
ATOM      4  O   UNL     1      10.831   4.039   3.686  0.00  0.00    -0.252 OA
ATOM      7  N   UNL     1      10.588   6.308   4.057  0.00  0.00    -0.291 N 
ATOM      9  N   UNL     1      11.547   5.611   2.096  0.00  0.00    -0.269 N 
ATOM     21  C   UNL     1      10.980   5.198   3.305  0.00  0.00    +0.304 C 
ATOM     36  H   UNL     1      10.817   7.234   3.711  0.00  0.00    +0.151 HD
ATOM     38  H   UNL     1      11.595   6.613   1.934  0.00  0.00    +0.156 HD
BRANCH   9  27
ATOM     27  C   UNL     1      12.067   4.801   1.059  0.00  0.00    +0.036 A 
ATOM     29  C   UNL     1      11.245   4.406   0.003  0.00  0.00    +0.042 A 
ATOM     30  C   UNL     1      13.402   4.398   1.093  0.00  0.00    +0.023 A 
ATOM     32  C   UNL     1      11.758   3.606  -1.019  0.00  0.00    +0.054 A 
ATOM     33  C   UNL     1      13.914   3.599   0.071  0.00  0.00    +0.003 A 
ATOM     34  C   UNL     1      13.093   3.203  -0.985  0.00  0.00    +0.019 A 
BRANCH  32  35
ATOM     10  N   UNL     1      10.236   2.873  -2.980  0.00  0.00    -0.191 NA
ATOM     35  C   UNL     1      10.918   3.202  -2.101  0.00  0.00    +0.099 C 
ENDBRANCH  32  35
ENDBRANCH   9  27
ENDBRANCH  13   7
BRANCH  11   6
ATOM      6  N   UNL     1      12.591   7.969   6.275  0.00  0.00    -0.290 NA
ATOM      8  N   UNL     1      15.287   8.743   5.737  0.00  0.00    -0.325 N 
ATOM     17  C   UNL     1      13.615   6.953   6.006  0.00  0.00    +0.104 C 
ATOM     18  C   UNL     1      13.190   9.110   6.979  0.00  0.00    +0.104 C 
ATOM     19  C   UNL     1      14.739   7.523   5.136  0.00  0.00    +0.120 C 
ATOM     20  C   UNL     1      14.299   9.751   6.140  0.00  0.00    +0.120 C 
BRANCH   8  22
ATOM     22  C   UNL     1      16.564   9.183   5.371  0.00  0.00    +0.072 A 
ATOM     23  C   UNL     1      16.762   9.874   4.176  0.00  0.00    +0.141 A 
ATOM     24  C   UNL     1      17.645   8.923   6.214  0.00  0.00    +0.027 A 
ATOM     25  C   UNL     1      18.040  10.306   3.823  0.00  0.00    +0.047 A 
ATOM     26  C   UNL     1      18.924   9.355   5.861  0.00  0.00    +0.002 A 
ATOM     28  C   UNL     1      19.122  10.047   4.666  0.00  0.00    +0.004 A 
BRANCH  23   5
ATOM      5  O   UNL     1      15.719  10.137   3.339  0.00  0.00    -0.493 OA
ATOM     31  C   UNL     1      15.771   9.552   2.038  0.00  0.00    +0.277 C 
ENDBRANCH  23   5
ENDBRANCH   8  22
ENDBRANCH  11   6
BRANCH  12   3
ATOM      3  O   UNL     1      10.524   5.244   7.516  0.00  0.00    -0.388 OA
ATOM     37  H   UNL     1       9.657   4.909   7.230  0.00  0.00    +0.210 HD
ENDBRANCH  12   3
TORSDOF 7
ENDMDL
MODEL 9
REMARK VINA RESULT:      -6.1     26.515     31.070
REMARK  Name = 25314828
REMARK  8 active torsions:
REMARK  status: ('A' for Active; 'I' for Inactive)
REMARK    1  A    between atoms: O_3  and  C_12
REMARK    2  A    between atoms: O_5  and  C_23
REMARK    3  A    between atoms: O_5  and  C_31
REMARK    4  A    between atoms: N_6  and  C_11
REMARK    5  A    between atoms: N_7  and  C_13
REMARK    6  A    between atoms: N_8  and  C_22
REMARK    7  A    between atoms: N_9  and  C_27
REMARK    8  A    between atoms: C_32  and  C_35
REMARK                            x       y       z     vdW  Elec       q    Type
REMARK                         _______ _______ _______ _____ _____    ______ ____
ROOT
ATOM      1  O   UNL     1      -8.778 -12.805  17.863  0.00  0.00    -0.342 OA
ATOM      2  O   UNL     1      -8.912 -12.063  20.057  0.00  0.00    -0.347 OA
ATOM     11  C   UNL     1      -8.984 -10.437  18.269  0.00  0.00    +0.144 C 
ATOM     12  C   UNL     1      -7.446 -10.291  18.310  0.00  0.00    +0.159 C 
ATOM     13  C   UNL     1      -6.695 -11.598  17.973  0.00  0.00    +0.136 C 
ATOM     14  C   UNL     1      -9.406 -11.846  18.725  0.00  0.00    +0.270 C 
ATOM     15  C   UNL     1      -7.458 -12.866  18.409  0.00  0.00    +0.170 C 
ATOM     16  C   UNL     1      -7.773 -12.922  19.891  0.00  0.00    +0.196 C 
ENDROOT
BRANCH  13   7
ATOM      4  O   UNL     1      -4.341 -10.637  16.655  0.00  0.00    -0.252 OA
ATOM      7  N   UNL     1      -6.412 -11.659  16.555  0.00  0.00    -0.291 N 
ATOM      9  N   UNL     1      -5.238 -11.359  14.610  0.00  0.00    -0.269 N 
ATOM     21  C   UNL     1      -5.233 -11.163  15.994  0.00  0.00    +0.304 C 
ATOM     36  H   UNL     1      -7.136 -12.007  15.935  0.00  0.00    +0.151 HD
ATOM     38  H   UNL     1      -6.058 -11.814  14.217  0.00  0.00    +0.156 HD
BRANCH   9  27
ATOM     27  C   UNL     1      -4.236 -11.002  13.678  0.00  0.00    +0.036 A 
ATOM     29  C   UNL     1      -4.584 -10.353  12.493  0.00  0.00    +0.042 A 
ATOM     30  C   UNL     1      -2.899 -11.298  13.945  0.00  0.00    +0.023 A 
ATOM     32  C   UNL     1      -3.595 -10.001  11.574  0.00  0.00    +0.054 A 
ATOM     33  C   UNL     1      -1.911 -10.945  13.026  0.00  0.00    +0.003 A 
ATOM     34  C   UNL     1      -2.258 -10.297  11.841  0.00  0.00    +0.019 A 
BRANCH  32  35
ATOM     10  N   UNL     1      -4.238  -8.797   9.374  0.00  0.00    -0.191 NA
ATOM     35  C   UNL     1      -3.950  -9.336  10.360  0.00  0.00    +0.099 C 
ENDBRANCH  32  35
ENDBRANCH   9  27
ENDBRANCH  13   7
BRANCH  11   6
ATOM      6  N   UNL     1      -9.477 -10.187  16.913  0.00  0.00    -0.290 NA
ATOM      8  N   UNL     1     -10.885  -8.770  14.870  0.00  0.00    -0.325 N 
ATOM     17  C   UNL     1      -8.963  -8.909  16.405  0.00  0.00    +0.104 C 
ATOM     18  C   UNL     1     -10.945 -10.178  16.893  0.00  0.00    +0.104 C 
ATOM     19  C   UNL     1      -9.426  -8.662  14.967  0.00  0.00    +0.120 C 
ATOM     20  C   UNL     1     -11.473  -9.974  15.471  0.00  0.00    +0.120 C 
BRANCH   8  22
ATOM     22  C   UNL     1     -11.555  -8.177  13.795  0.00  0.00    +0.072 A 
ATOM     23  C   UNL     1     -12.246  -6.977  13.963  0.00  0.00    +0.141 A 
ATOM     24  C   UNL     1     -11.529  -8.797  12.546  0.00  0.00    +0.027 A 
ATOM     25  C   UNL     1     -12.910  -6.397  12.884  0.00  0.00    +0.047 A 
ATOM     26  C   UNL     1     -12.193  -8.216  11.465  0.00  0.00    +0.002 A 
ATOM     28  C   UNL     1     -12.884  -7.016  11.634  0.00  0.00    +0.004 A 
BRANCH  23   5
ATOM      5  O   UNL     1     -12.284  -6.356  15.176  0.00  0.00    -0.493 OA
ATOM     31  C   UNL     1     -13.458  -6.547  15.964  0.00  0.00    +0.277 C 
ENDBRANCH  23   5
ENDBRANCH   8  22
ENDBRANCH  11   6
BRANCH  12   3
ATOM      3  O   UNL     1      -7.082  -9.879  19.634  0.00  0.00    -0.388 OA
ATOM     37  H   UNL     1      -7.653 -10.360  20.259  0.00  0.00    +0.210 HD
ENDBRANCH  12   3
TORSDOF 7
ENDMDL
MODEL 10
REMARK VINA RESULT:      -6.1     14.878     17.494
REMARK  Name = 25314828
REMARK  8 active torsions:
REMARK  status: ('A' for Active; 'I' for Inactive)
REMARK    1  A    between atoms: O_3  and  C_12
REMARK    2  A    between atoms: O_5  and  C_23
REMARK    3  A    between atoms: O_5  and  C_31
REMARK    4  A    between atoms: N_6  and  C_11
REMARK    5  A    between atoms: N_7  and  C_13
REMARK    6  A    between atoms: N_8  and  C_22
REMARK    7  A    between atoms: N_9  and  C_27
REMARK    8  A    between atoms: C_32  and  C_35
REMARK                            x       y       z     vdW  Elec       q    Type
REMARK                         _______ _______ _______ _____ _____    ______ ____
ROOT
ATOM      1  O   UNL     1      10.645   5.079   7.097  0.00  0.00    -0.342 OA
ATOM      2  O   UNL     1       8.624   6.199   7.298  0.00  0.00    -0.347 OA
ATOM     11  C   UNL     1       9.953   6.538   5.307  0.00  0.00    +0.144 C 
ATOM     12  C   UNL     1      10.682   7.729   5.969  0.00  0.00    +0.159 C 
ATOM     13  C   UNL     1      11.483   7.335   7.229  0.00  0.00    +0.136 C 
ATOM     14  C   UNL     1       9.491   5.526   6.372  0.00  0.00    +0.270 C 
ATOM     15  C   UNL     1      10.852   6.162   8.009  0.00  0.00    +0.170 C 
ATOM     16  C   UNL     1       9.429   6.416   8.466  0.00  0.00    +0.196 C 
ENDROOT
BRANCH  13   7
ATOM      4  O   UNL     1      13.379   9.064   5.955  0.00  0.00    -0.252 OA
ATOM      7  N   UNL     1      12.847   7.008   6.871  0.00  0.00    -0.291 N 
ATOM      9  N   UNL     1      14.953   7.324   6.025  0.00  0.00    -0.269 N 
ATOM     21  C   UNL     1      13.707   7.916   6.249  0.00  0.00    +0.304 C 
ATOM     36  H   UNL     1      13.165   6.055   7.009  0.00  0.00    +0.151 HD
ATOM     38  H   UNL     1      15.062   6.361   6.331  0.00  0.00    +0.156 HD
BRANCH   9  27
ATOM     27  C   UNL     1      16.094   7.903   5.422  0.00  0.00    +0.036 A 
ATOM     29  C   UNL     1      17.094   8.465   6.215  0.00  0.00    +0.042 A 
ATOM     30  C   UNL     1      16.219   7.910   4.032  0.00  0.00    +0.023 A 
ATOM     32  C   UNL     1      18.219   9.036   5.619  0.00  0.00    +0.054 A 
ATOM     33  C   UNL     1      17.343   8.481   3.437  0.00  0.00    +0.003 A 
ATOM     34  C   UNL     1      18.344   9.044   4.230  0.00  0.00    +0.019 A 
BRANCH  32  35
ATOM     10  N   UNL     1      20.077  10.078   7.090  0.00  0.00    -0.191 NA
ATOM     35  C   UNL     1      19.244   9.612   6.430  0.00  0.00    +0.099 C 
ENDBRANCH  32  35
ENDBRANCH   9  27
ENDBRANCH  13   7
BRANCH  11   6
ATOM      6  N   UNL     1      10.839   5.878   4.346  0.00  0.00    -0.290 NA
ATOM      8  N   UNL     1      11.656   4.925   1.780  0.00  0.00    -0.325 N 
ATOM     17  C   UNL     1      11.264   6.820   3.304  0.00  0.00    +0.104 C 
ATOM     18  C   UNL     1      10.166   4.726   3.733  0.00  0.00    +0.104 C 
ATOM     19  C   UNL     1      12.235   6.156   2.325  0.00  0.00    +0.120 C 
ATOM     20  C   UNL     1      11.101   3.992   2.769  0.00  0.00    +0.120 C 
BRANCH   8  22
ATOM     22  C   UNL     1      12.149   4.397   0.582  0.00  0.00    +0.072 A 
ATOM     23  C   UNL     1      11.295   4.159  -0.495  0.00  0.00    +0.141 A 
ATOM     24  C   UNL     1      13.509   4.106   0.470  0.00  0.00    +0.027 A 
ATOM     25  C   UNL     1      11.800   3.631  -1.682  0.00  0.00    +0.047 A 
ATOM     26  C   UNL     1      14.014   3.579  -0.718  0.00  0.00    +0.002 A 
ATOM     28  C   UNL     1      13.160   3.341  -1.795  0.00  0.00    +0.004 A 
BRANCH  23   5
ATOM      5  O   UNL     1       9.963   4.435  -0.406  0.00  0.00    -0.493 OA
ATOM     31  C   UNL     1       9.455   5.454  -1.266  0.00  0.00    +0.277 C 
ENDBRANCH  23   5
ENDBRANCH   8  22
ENDBRANCH  11   6
BRANCH  12   3
ATOM      3  O   UNL     1       9.690   8.697   6.338  0.00  0.00    -0.388 OA
ATOM     37  H   UNL     1       9.671   8.743   7.310  0.00  0.00    +0.210 HD
ENDBRANCH  12   3
TORSDOF 7
ENDMDL
