MODEL 1
REMARK VINA RESULT:      -7.1      0.000      0.000
REMARK  Name = 11882066
REMARK  12 active torsions:
REMARK  status: ('A' for Active; 'I' for Inactive)
REMARK    1  A    between atoms: S_2  and  C_33
REMARK    2  A    between atoms: S_2  and  C_36
REMARK    3  A    between atoms: N_8  and  C_12
REMARK    4  A    between atoms: N_9  and  C_18
REMARK    5  A    between atoms: N_10  and  C_25
REMARK    6  A    between atoms: C_13  and  C_16
REMARK    7  A    between atoms: C_17  and  C_20
REMARK    8  A    between atoms: C_18  and  C_21
REMARK    9  A    between atoms: C_18  and  C_22
REMARK   10  A    between atoms: C_21  and  C_24
REMARK   11  A    between atoms: C_23  and  C_26
REMARK   12  A    between atoms: C_23  and  C_27
REMARK                            x       y       z     vdW  Elec       q    Type
REMARK                         _______ _______ _______ _____ _____    ______ ____
ROOT
ATOM      4  O   UNL     1      16.867  11.208  19.878  0.00  0.00    -0.271 OA
ATOM      7  N   UNL     1      15.201  10.922  21.459  0.00  0.00    -0.285 N 
ATOM     12  C   UNL     1      13.947  11.071  23.472  0.00  0.00    +0.105 C 
ATOM     13  C   UNL     1      14.345  10.121  22.338  0.00  0.00    +0.182 C 
ATOM     14  C   UNL     1      14.000  12.451  22.812  0.00  0.00    +0.043 C 
ATOM     15  C   UNL     1      15.152  12.331  21.826  0.00  0.00    +0.111 C 
ATOM     17  C   UNL     1      16.082  10.480  20.487  0.00  0.00    +0.240 C 
ENDROOT
BRANCH  12   8
ATOM      5  O   UNL     1      13.522  12.013  26.143  0.00  0.00    -0.252 OA
ATOM      8  N   UNL     1      14.876  10.988  24.574  0.00  0.00    -0.294 N 
ATOM     10  N   UNL     1      15.671  11.257  26.710  0.00  0.00    -0.269 N 
ATOM     19  C   UNL     1      14.588  11.475  25.854  0.00  0.00    +0.304 C 
ATOM     37  H   UNL     1      15.753  10.496  24.432  0.00  0.00    +0.151 HD
ATOM     39  H   UNL     1      16.484  10.796  26.309  0.00  0.00    +0.156 HD
BRANCH  10  25
ATOM     25  C   UNL     1      15.778  11.600  28.078  0.00  0.00    +0.036 A 
ATOM     29  C   UNL     1      15.587  10.627  29.060  0.00  0.00    +0.038 A 
ATOM     30  C   UNL     1      16.074  12.913  28.446  0.00  0.00    +0.023 A 
ATOM     33  C   UNL     1      15.693  10.966  30.408  0.00  0.00    +0.009 A 
ATOM     34  C   UNL     1      16.181  13.252  29.795  0.00  0.00    +0.003 A 
ATOM     35  C   UNL     1      15.991  12.280  30.776  0.00  0.00    +0.015 A 
BRANCH  33   2
ATOM      2  S   UNL     1      15.453   9.723  31.663  0.00  0.00    -0.129 S 
ATOM     36  C   UNL     1      13.770   9.151  31.296  0.00  0.00    +0.090 C 
ENDBRANCH  33   2
ENDBRANCH  10  25
ENDBRANCH  12   8
BRANCH  13  16
ATOM      3  O   UNL     1      12.277  10.533  21.215  0.00  0.00    -0.274 OA
ATOM      9  N   UNL     1      13.119   8.364  21.266  0.00  0.00    -0.302 N 
ATOM     16  C   UNL     1      13.137   9.720  21.542  0.00  0.00    +0.236 C 
ATOM     38  H   UNL     1      13.896   7.787  21.576  0.00  0.00    +0.150 HD
BRANCH   9  18
ATOM     18  C   UNL     1      12.052   7.721  20.533  0.00  0.00    +0.163 C 
BRANCH  18  22
ATOM      6  O   UNL     1      10.338   7.325  22.209  0.00  0.00    -0.274 OA
ATOM     11  N   UNL     1      11.665   5.566  21.558  0.00  0.00    -0.328 N 
ATOM     22  C   UNL     1      11.264   6.886  21.531  0.00  0.00    +0.231 C 
ATOM     40  H   UNL     1      11.210   4.898  22.171  0.00  0.00    +0.145 HD
ATOM     41  H   UNL     1      12.425   5.214  20.985  0.00  0.00    +0.145 HD
ENDBRANCH  18  22
BRANCH  18  21
ATOM     21  C   UNL     1      12.578   6.838  19.395  0.00  0.00    +0.074 C 
BRANCH  21  24
ATOM      1  S   UNL     1      11.743   8.678  17.477  0.00  0.00    -0.102 S 
ATOM     24  C   UNL     1      12.919   7.636  18.159  0.00  0.00    -0.008 A 
ATOM     28  C   UNL     1      14.101   7.657  17.451  0.00  0.00    +0.011 A 
ATOM     31  C   UNL     1      14.041   8.540  16.334  0.00  0.00    +0.008 A 
ATOM     32  C   UNL     1      12.815   9.160  16.231  0.00  0.00    +0.045 A 
ENDBRANCH  21  24
ENDBRANCH  18  21
ENDBRANCH   9  18
ENDBRANCH  13  16
BRANCH  17  20
ATOM     20  C   UNL     1      16.069   9.039  20.170  0.00  0.00    +0.066 C 
ATOM     23  C   UNL     1      16.925   8.134  20.676  0.00  0.00    -0.071 C 
ATOM     26  C   UNL     1      16.944   6.661  20.377  0.00  0.00    +0.039 C 
ATOM     27  C   UNL     1      17.995   8.576  21.642  0.00  0.00    +0.039 C 
ENDBRANCH  17  20
TORSDOF 9
ENDMDL
MODEL 2
REMARK VINA RESULT:      -6.9     28.481     32.102
REMARK  Name = 11882066
REMARK  12 active torsions:
REMARK  status: ('A' for Active; 'I' for Inactive)
REMARK    1  A    between atoms: S_2  and  C_33
REMARK    2  A    between atoms: S_2  and  C_36
REMARK    3  A    between atoms: N_8  and  C_12
REMARK    4  A    between atoms: N_9  and  C_18
REMARK    5  A    between atoms: N_10  and  C_25
REMARK    6  A    between atoms: C_13  and  C_16
REMARK    7  A    between atoms: C_17  and  C_20
REMARK    8  A    between atoms: C_18  and  C_21
REMARK    9  A    between atoms: C_18  and  C_22
REMARK   10  A    between atoms: C_21  and  C_24
REMARK   11  A    between atoms: C_23  and  C_26
REMARK   12  A    between atoms: C_23  and  C_27
REMARK                            x       y       z     vdW  Elec       q    Type
REMARK                         _______ _______ _______ _____ _____    ______ ____
ROOT
ATOM      4  O   UNL     1     -14.590  -0.140  29.477  0.00  0.00    -0.271 OA
ATOM      7  N   UNL     1     -15.657   1.755  28.688  0.00  0.00    -0.285 N 
ATOM     12  C   UNL     1     -16.696   3.324  27.237  0.00  0.00    +0.105 C 
ATOM     13  C   UNL     1     -15.778   3.197  28.456  0.00  0.00    +0.182 C 
ATOM     14  C   UNL     1     -17.560   2.064  27.312  0.00  0.00    +0.043 C 
ATOM     15  C   UNL     1     -16.615   1.015  27.876  0.00  0.00    +0.111 C 
ATOM     17  C   UNL     1     -14.705   1.085  29.437  0.00  0.00    +0.240 C 
ENDROOT
BRANCH  12   8
ATOM      5  O   UNL     1     -16.882   5.287  25.160  0.00  0.00    -0.252 OA
ATOM      8  N   UNL     1     -15.935   3.357  26.010  0.00  0.00    -0.294 N 
ATOM     10  N   UNL     1     -15.223   4.128  23.969  0.00  0.00    -0.269 N 
ATOM     19  C   UNL     1     -16.088   4.357  25.042  0.00  0.00    +0.304 C 
ATOM     37  H   UNL     1     -15.210   2.660  25.871  0.00  0.00    +0.151 HD
ATOM     39  H   UNL     1     -14.628   3.307  24.029  0.00  0.00    +0.156 HD
BRANCH  10  25
ATOM     25  C   UNL     1     -15.072   4.905  22.796  0.00  0.00    +0.036 A 
ATOM     29  C   UNL     1     -13.826   5.439  22.468  0.00  0.00    +0.038 A 
ATOM     30  C   UNL     1     -16.171   5.138  21.968  0.00  0.00    +0.023 A 
ATOM     33  C   UNL     1     -13.678   6.205  21.312  0.00  0.00    +0.009 A 
ATOM     34  C   UNL     1     -16.022   5.903  20.811  0.00  0.00    +0.003 A 
ATOM     35  C   UNL     1     -14.776   6.436  20.483  0.00  0.00    +0.015 A 
BRANCH  33   2
ATOM      2  S   UNL     1     -12.085   6.885  20.890  0.00  0.00    -0.129 S 
ATOM     36  C   UNL     1     -12.431   7.666  19.289  0.00  0.00    +0.090 C 
ENDBRANCH  33   2
ENDBRANCH  10  25
ENDBRANCH  12   8
BRANCH  13  16
ATOM      3  O   UNL     1     -17.268   3.175  30.322  0.00  0.00    -0.274 OA
ATOM      9  N   UNL     1     -15.997   5.083  29.918  0.00  0.00    -0.302 N 
ATOM     16  C   UNL     1     -16.432   3.792  29.669  0.00  0.00    +0.236 C 
ATOM     38  H   UNL     1     -15.286   5.488  29.316  0.00  0.00    +0.150 HD
BRANCH   9  18
ATOM     18  C   UNL     1     -16.490   5.884  31.015  0.00  0.00    +0.163 C 
BRANCH  18  22
ATOM      6  O   UNL     1     -18.687   6.429  30.131  0.00  0.00    -0.274 OA
ATOM     11  N   UNL     1     -17.152   8.120  30.379  0.00  0.00    -0.328 N 
ATOM     22  C   UNL     1     -17.561   6.805  30.449  0.00  0.00    +0.231 C 
ATOM     40  H   UNL     1     -17.777   8.841  30.032  0.00  0.00    +0.145 HD
ATOM     41  H   UNL     1     -16.223   8.420  30.655  0.00  0.00    +0.145 HD
ENDBRANCH  18  22
BRANCH  18  21
ATOM     21  C   UNL     1     -15.379   6.704  31.682  0.00  0.00    +0.074 C 
BRANCH  21  24
ATOM      1  S   UNL     1     -15.957   4.934  33.754  0.00  0.00    -0.102 S 
ATOM     24  C   UNL     1     -14.998   6.159  33.038  0.00  0.00    -0.008 A 
ATOM     28  C   UNL     1     -13.934   6.515  33.837  0.00  0.00    +0.011 A 
ATOM     31  C   UNL     1     -13.905   5.774  35.053  0.00  0.00    +0.008 A 
ATOM     32  C   UNL     1     -14.948   4.879  35.138  0.00  0.00    +0.045 A 
ENDBRANCH  21  24
ENDBRANCH  18  21
ENDBRANCH   9  18
ENDBRANCH  13  16
BRANCH  17  20
ATOM     20  C   UNL     1     -13.773   1.906  30.234  0.00  0.00    +0.066 C 
ATOM     23  C   UNL     1     -13.869   2.107  31.560  0.00  0.00    -0.071 C 
ATOM     26  C   UNL     1     -12.942   2.934  32.405  0.00  0.00    +0.039 C 
ATOM     27  C   UNL     1     -14.995   1.468  32.332  0.00  0.00    +0.039 C 
ENDBRANCH  17  20
TORSDOF 9
ENDMDL
MODEL 3
REMARK VINA RESULT:      -6.5     16.889     19.589
REMARK  Name = 11882066
REMARK  12 active torsions:
REMARK  status: ('A' for Active; 'I' for Inactive)
REMARK    1  A    between atoms: S_2  and  C_33
REMARK    2  A    between atoms: S_2  and  C_36
REMARK    3  A    between atoms: N_8  and  C_12
REMARK    4  A    between atoms: N_9  and  C_18
REMARK    5  A    between atoms: N_10  and  C_25
REMARK    6  A    between atoms: C_13  and  C_16
REMARK    7  A    between atoms: C_17  and  C_20
REMARK    8  A    between atoms: C_18  and  C_21
REMARK    9  A    between atoms: C_18  and  C_22
REMARK   10  A    between atoms: C_21  and  C_24
REMARK   11  A    between atoms: C_23  and  C_26
REMARK   12  A    between atoms: C_23  and  C_27
REMARK                            x       y       z     vdW  Elec       q    Type
REMARK                         _______ _______ _______ _____ _____    ______ ____
ROOT
ATOM      4  O   UNL     1       7.924   7.686   7.004  0.00  0.00    -0.271 OA
ATOM      7  N   UNL     1       9.997   6.988   6.250  0.00  0.00    -0.285 N 
ATOM     12  C   UNL     1      12.349   6.768   5.985  0.00  0.00    +0.105 C 
ATOM     13  C   UNL     1      11.021   6.774   5.223  0.00  0.00    +0.182 C 
ATOM     14  C   UNL     1      11.955   6.277   7.380  0.00  0.00    +0.043 C 
ATOM     15  C   UNL     1      10.567   6.863   7.586  0.00  0.00    +0.111 C 
ATOM     17  C   UNL     1       8.687   7.401   6.081  0.00  0.00    +0.240 C 
ENDROOT
BRANCH  12   8
ATOM      5  O   UNL     1      15.083   7.426   6.527  0.00  0.00    -0.252 OA
ATOM      8  N   UNL     1      12.922   8.092   6.046  0.00  0.00    -0.294 N 
ATOM     10  N   UNL     1      14.539   9.700   6.312  0.00  0.00    -0.269 N 
ATOM     19  C   UNL     1      14.275   8.327   6.318  0.00  0.00    +0.304 C 
ATOM     37  H   UNL     1      12.332   8.886   5.817  0.00  0.00    +0.151 HD
ATOM     39  H   UNL     1      13.752  10.315   6.121  0.00  0.00    +0.156 HD
BRANCH  10  25
ATOM     25  C   UNL     1      15.776  10.346   6.542  0.00  0.00    +0.036 A 
ATOM     29  C   UNL     1      16.959   9.780   6.065  0.00  0.00    +0.038 A 
ATOM     30  C   UNL     1      15.813  11.550   7.246  0.00  0.00    +0.023 A 
ATOM     33  C   UNL     1      18.178  10.418   6.292  0.00  0.00    +0.009 A 
ATOM     34  C   UNL     1      17.033  12.188   7.472  0.00  0.00    +0.003 A 
ATOM     35  C   UNL     1      18.214  11.623   6.995  0.00  0.00    +0.015 A 
BRANCH  33   2
ATOM      2  S   UNL     1      19.689   9.697   5.681  0.00  0.00    -0.129 S 
ATOM     36  C   UNL     1      20.158   8.606   7.054  0.00  0.00    +0.090 C 
ENDBRANCH  33   2
ENDBRANCH  10  25
ENDBRANCH  12   8
BRANCH  13  16
ATOM      3  O   UNL     1      10.015   4.609   5.135  0.00  0.00    -0.274 OA
ATOM      9  N   UNL     1      11.474   5.243   3.436  0.00  0.00    -0.302 N 
ATOM     16  C   UNL     1      10.763   5.428   4.609  0.00  0.00    +0.236 C 
ATOM     38  H   UNL     1      12.053   6.001   3.086  0.00  0.00    +0.150 HD
BRANCH   9  18
ATOM     18  C   UNL     1      11.419   4.023   2.663  0.00  0.00    +0.163 C 
BRANCH  18  22
ATOM      6  O   UNL     1      13.126   2.827   1.414  0.00  0.00    -0.274 OA
ATOM     11  N   UNL     1      13.581   4.963   2.127  0.00  0.00    -0.328 N 
ATOM     22  C   UNL     1      12.784   3.843   2.015  0.00  0.00    +0.231 C 
ATOM     40  H   UNL     1      14.512   4.980   1.724  0.00  0.00    +0.145 HD
ATOM     41  H   UNL     1      13.282   5.800   2.617  0.00  0.00    +0.145 HD
ENDBRANCH  18  22
BRANCH  18  21
ATOM     21  C   UNL     1      10.320   4.061   1.594  0.00  0.00    +0.074 C 
BRANCH  21  24
ATOM      1  S   UNL     1      11.010   5.205  -0.852  0.00  0.00    -0.102 S 
ATOM     24  C   UNL     1      10.391   5.307   0.742  0.00  0.00    -0.008 A 
ATOM     28  C   UNL     1      10.013   6.591   1.068  0.00  0.00    +0.011 A 
ATOM     31  C   UNL     1      10.234   7.503  -0.004  0.00  0.00    +0.008 A 
ATOM     32  C   UNL     1      10.772   6.881  -1.109  0.00  0.00    +0.045 A 
ENDBRANCH  21  24
ENDBRANCH  18  21
ENDBRANCH   9  18
ENDBRANCH  13  16
BRANCH  17  20
ATOM     20  C   UNL     1       8.184   7.499   4.697  0.00  0.00    +0.066 C 
ATOM     23  C   UNL     1       8.110   8.638   3.987  0.00  0.00    -0.071 C 
ATOM     26  C   UNL     1       7.605   8.778   2.578  0.00  0.00    +0.039 C 
ATOM     27  C   UNL     1       8.563   9.936   4.607  0.00  0.00    +0.039 C 
ENDBRANCH  17  20
TORSDOF 9
ENDMDL
MODEL 4
REMARK VINA RESULT:      -6.4     17.131     20.651
REMARK  Name = 11882066
REMARK  12 active torsions:
REMARK  status: ('A' for Active; 'I' for Inactive)
REMARK    1  A    between atoms: S_2  and  C_33
REMARK    2  A    between atoms: S_2  and  C_36
REMARK    3  A    between atoms: N_8  and  C_12
REMARK    4  A    between atoms: N_9  and  C_18
REMARK    5  A    between atoms: N_10  and  C_25
REMARK    6  A    between atoms: C_13  and  C_16
REMARK    7  A    between atoms: C_17  and  C_20
REMARK    8  A    between atoms: C_18  and  C_21
REMARK    9  A    between atoms: C_18  and  C_22
REMARK   10  A    between atoms: C_21  and  C_24
REMARK   11  A    between atoms: C_23  and  C_26
REMARK   12  A    between atoms: C_23  and  C_27
REMARK                            x       y       z     vdW  Elec       q    Type
REMARK                         _______ _______ _______ _____ _____    ______ ____
ROOT
ATOM      4  O   UNL     1      13.189   6.140  -0.281  0.00  0.00    -0.271 OA
ATOM      7  N   UNL     1      13.986   7.160   1.638  0.00  0.00    -0.285 N 
ATOM     12  C   UNL     1      15.394   8.316   3.163  0.00  0.00    +0.105 C 
ATOM     13  C   UNL     1      14.366   7.187   3.053  0.00  0.00    +0.182 C 
ATOM     14  C   UNL     1      15.003   9.263   2.027  0.00  0.00    +0.043 C 
ATOM     15  C   UNL     1      14.505   8.328   0.937  0.00  0.00    +0.111 C 
ATOM     17  C   UNL     1      13.356   6.144   0.939  0.00  0.00    +0.240 C 
ENDROOT
BRANCH  12   8
ATOM      5  O   UNL     1      17.739   9.170   4.570  0.00  0.00    -0.252 OA
ATOM      8  N   UNL     1      16.738   7.819   2.983  0.00  0.00    -0.294 N 
ATOM     10  N   UNL     1      18.999   7.629   3.325  0.00  0.00    -0.269 N 
ATOM     19  C   UNL     1      17.833   8.293   3.714  0.00  0.00    +0.304 C 
ATOM     37  H   UNL     1      16.886   7.045   2.342  0.00  0.00    +0.151 HD
ATOM     39  H   UNL     1      18.903   6.926   2.598  0.00  0.00    +0.156 HD
BRANCH  10  25
ATOM     25  C   UNL     1      20.311   7.816   3.822  0.00  0.00    +0.036 A 
ATOM     29  C   UNL     1      21.353   8.116   2.945  0.00  0.00    +0.038 A 
ATOM     30  C   UNL     1      20.561   7.700   5.189  0.00  0.00    +0.023 A 
ATOM     33  C   UNL     1      22.646   8.301   3.435  0.00  0.00    +0.009 A 
ATOM     34  C   UNL     1      21.855   7.885   5.680  0.00  0.00    +0.003 A 
ATOM     35  C   UNL     1      22.896   8.186   4.803  0.00  0.00    +0.015 A 
BRANCH  33   2
ATOM      2  S   UNL     1      23.978   8.688   2.315  0.00  0.00    -0.129 S 
ATOM     36  C   UNL     1      23.877  10.498   2.235  0.00  0.00    +0.090 C 
ENDBRANCH  33   2
ENDBRANCH  10  25
ENDBRANCH  12   8
BRANCH  13  16
ATOM      3  O   UNL     1      12.344   8.388   3.470  0.00  0.00    -0.274 OA
ATOM      9  N   UNL     1      13.030   6.772   4.998  0.00  0.00    -0.302 N 
ATOM     16  C   UNL     1      13.133   7.523   3.840  0.00  0.00    +0.236 C 
ATOM     38  H   UNL     1      13.738   6.070   5.195  0.00  0.00    +0.150 HD
BRANCH   9  18
ATOM     18  C   UNL     1      11.946   6.920   5.942  0.00  0.00    +0.163 C 
BRANCH  18  22
ATOM      6  O   UNL     1      11.650   5.885   8.121  0.00  0.00    -0.274 OA
ATOM     11  N   UNL     1      13.787   6.245   7.356  0.00  0.00    -0.328 N 
ATOM     22  C   UNL     1      12.412   6.313   7.257  0.00  0.00    +0.231 C 
ATOM     40  H   UNL     1      14.229   5.847   8.179  0.00  0.00    +0.145 HD
ATOM     41  H   UNL     1      14.405   6.592   6.631  0.00  0.00    +0.145 HD
ENDBRANCH  18  22
BRANCH  18  21
ATOM     21  C   UNL     1      10.660   6.234   5.464  0.00  0.00    +0.074 C 
BRANCH  21  24
ATOM      1  S   UNL     1       9.128   8.370   6.388  0.00  0.00    -0.102 S 
ATOM     24  C   UNL     1       9.551   7.221   5.189  0.00  0.00    -0.008 A 
ATOM     28  C   UNL     1       8.778   7.349   4.056  0.00  0.00    +0.011 A 
ATOM     31  C   UNL     1       7.826   8.403   4.172  0.00  0.00    +0.008 A 
ATOM     32  C   UNL     1       7.908   9.041   5.390  0.00  0.00    +0.045 A 
ENDBRANCH  21  24
ENDBRANCH  18  21
ENDBRANCH   9  18
ENDBRANCH  13  16
BRANCH  17  20
ATOM     20  C   UNL     1      12.857   4.997   1.721  0.00  0.00    +0.066 C 
ATOM     23  C   UNL     1      11.562   4.760   1.993  0.00  0.00    -0.071 C 
ATOM     26  C   UNL     1      11.015   3.605   2.785  0.00  0.00    +0.039 C 
ATOM     27  C   UNL     1      10.506   5.708   1.485  0.00  0.00    +0.039 C 
ENDBRANCH  17  20
TORSDOF 9
ENDMDL
MODEL 5
REMARK VINA RESULT:      -6.3     28.984     32.630
REMARK  Name = 11882066
REMARK  12 active torsions:
REMARK  status: ('A' for Active; 'I' for Inactive)
REMARK    1  A    between atoms: S_2  and  C_33
REMARK    2  A    between atoms: S_2  and  C_36
REMARK    3  A    between atoms: N_8  and  C_12
REMARK    4  A    between atoms: N_9  and  C_18
REMARK    5  A    between atoms: N_10  and  C_25
REMARK    6  A    between atoms: C_13  and  C_16
REMARK    7  A    between atoms: C_17  and  C_20
REMARK    8  A    between atoms: C_18  and  C_21
REMARK    9  A    between atoms: C_18  and  C_22
REMARK   10  A    between atoms: C_21  and  C_24
REMARK   11  A    between atoms: C_23  and  C_26
REMARK   12  A    between atoms: C_23  and  C_27
REMARK                            x       y       z     vdW  Elec       q    Type
REMARK                         _______ _______ _______ _____ _____    ______ ____
ROOT
ATOM      4  O   UNL     1     -14.027   0.603  30.066  0.00  0.00    -0.271 OA
ATOM      7  N   UNL     1     -15.409   2.057  28.912  0.00  0.00    -0.285 N 
ATOM     12  C   UNL     1     -16.618   3.112  27.160  0.00  0.00    +0.105 C 
ATOM     13  C   UNL     1     -15.829   3.380  28.445  0.00  0.00    +0.182 C 
ATOM     14  C   UNL     1     -17.176   1.703  27.375  0.00  0.00    +0.043 C 
ATOM     15  C   UNL     1     -16.081   1.002  28.164  0.00  0.00    +0.111 C 
ATOM     17  C   UNL     1     -14.413   1.746  29.823  0.00  0.00    +0.240 C 
ENDROOT
BRANCH  12   8
ATOM      5  O   UNL     1     -16.565   5.150  25.148  0.00  0.00    -0.252 OA
ATOM      8  N   UNL     1     -15.760   3.157  26.000  0.00  0.00    -0.294 N 
ATOM     10  N   UNL     1     -14.858   3.969  24.052  0.00  0.00    -0.269 N 
ATOM     19  C   UNL     1     -15.798   4.194  25.061  0.00  0.00    +0.304 C 
ATOM     37  H   UNL     1     -15.051   2.438  25.894  0.00  0.00    +0.151 HD
ATOM     39  H   UNL     1     -14.299   3.123  24.129  0.00  0.00    +0.156 HD
BRANCH  10  25
ATOM     25  C   UNL     1     -14.584   4.779  22.925  0.00  0.00    +0.036 A 
ATOM     29  C   UNL     1     -15.622   5.175  22.081  0.00  0.00    +0.038 A 
ATOM     30  C   UNL     1     -13.276   5.181  22.656  0.00  0.00    +0.023 A 
ATOM     33  C   UNL     1     -15.352   5.973  20.970  0.00  0.00    +0.009 A 
ATOM     34  C   UNL     1     -13.005   5.980  21.545  0.00  0.00    +0.003 A 
ATOM     35  C   UNL     1     -14.043   6.376  20.702  0.00  0.00    +0.015 A 
BRANCH  33   2
ATOM      2  S   UNL     1     -16.679   6.481  19.893  0.00  0.00    -0.129 S 
ATOM     36  C   UNL     1     -15.814   7.588  18.743  0.00  0.00    +0.090 C 
ENDBRANCH  33   2
ENDBRANCH  10  25
ENDBRANCH  12   8
BRANCH  13  16
ATOM      3  O   UNL     1     -17.535   3.274  30.113  0.00  0.00    -0.274 OA
ATOM      9  N   UNL     1     -16.537   5.325  29.653  0.00  0.00    -0.302 N 
ATOM     16  C   UNL     1     -16.726   3.963  29.498  0.00  0.00    +0.236 C 
ATOM     38  H   UNL     1     -15.823   5.790  29.097  0.00  0.00    +0.150 HD
BRANCH   9  18
ATOM     18  C   UNL     1     -17.292   6.127  30.587  0.00  0.00    +0.163 C 
BRANCH  18  22
ATOM      6  O   UNL     1     -17.791   8.505  30.627  0.00  0.00    -0.274 OA
ATOM     11  N   UNL     1     -16.906   7.601  28.710  0.00  0.00    -0.328 N 
ATOM     22  C   UNL     1     -17.382   7.529  30.003  0.00  0.00    +0.231 C 
ATOM     40  H   UNL     1     -16.896   8.483  28.209  0.00  0.00    +0.145 HD
ATOM     41  H   UNL     1     -16.561   6.789  28.209  0.00  0.00    +0.145 HD
ENDBRANCH  18  22
BRANCH  18  21
ATOM     21  C   UNL     1     -16.644   6.168  31.976  0.00  0.00    +0.074 C 
BRANCH  21  24
ATOM      1  S   UNL     1     -18.296   6.969  34.072  0.00  0.00    -0.102 S 
ATOM     24  C   UNL     1     -17.604   5.764  33.070  0.00  0.00    -0.008 A 
ATOM     28  C   UNL     1     -18.036   4.501  33.409  0.00  0.00    +0.011 A 
ATOM     31  C   UNL     1     -18.946   4.521  34.505  0.00  0.00    +0.008 A 
ATOM     32  C   UNL     1     -19.176   5.800  34.962  0.00  0.00    +0.045 A 
ENDBRANCH  21  24
ENDBRANCH  18  21
ENDBRANCH   9  18
ENDBRANCH  13  16
BRANCH  17  20
ATOM     20  C   UNL     1     -13.782   2.870  30.542  0.00  0.00    +0.066 C 
ATOM     23  C   UNL     1     -14.076   3.237  31.801  0.00  0.00    -0.071 C 
ATOM     26  C   UNL     1     -13.457   4.373  32.566  0.00  0.00    +0.039 C 
ATOM     27  C   UNL     1     -15.121   2.475  32.577  0.00  0.00    +0.039 C 
ENDBRANCH  17  20
TORSDOF 9
ENDMDL
MODEL 6
REMARK VINA RESULT:      -6.1     28.211     31.356
REMARK  Name = 11882066
REMARK  12 active torsions:
REMARK  status: ('A' for Active; 'I' for Inactive)
REMARK    1  A    between atoms: S_2  and  C_33
REMARK    2  A    between atoms: S_2  and  C_36
REMARK    3  A    between atoms: N_8  and  C_12
REMARK    4  A    between atoms: N_9  and  C_18
REMARK    5  A    between atoms: N_10  and  C_25
REMARK    6  A    between atoms: C_13  and  C_16
REMARK    7  A    between atoms: C_17  and  C_20
REMARK    8  A    between atoms: C_18  and  C_21
REMARK    9  A    between atoms: C_18  and  C_22
REMARK   10  A    between atoms: C_21  and  C_24
REMARK   11  A    between atoms: C_23  and  C_26
REMARK   12  A    between atoms: C_23  and  C_27
REMARK                            x       y       z     vdW  Elec       q    Type
REMARK                         _______ _______ _______ _____ _____    ______ ____
ROOT
ATOM      4  O   UNL     1      15.792  -6.747  -5.346  0.00  0.00    -0.271 OA
ATOM      7  N   UNL     1      17.232  -7.612  -3.754  0.00  0.00    -0.285 N 
ATOM     12  C   UNL     1      18.317  -9.116  -2.269  0.00  0.00    +0.105 C 
ATOM     13  C   UNL     1      17.839  -7.670  -2.421  0.00  0.00    +0.182 C 
ATOM     14  C   UNL     1      18.589  -9.553  -3.711  0.00  0.00    +0.043 C 
ATOM     15  C   UNL     1      17.523  -8.822  -4.512  0.00  0.00    +0.111 C 
ATOM     17  C   UNL     1      16.366  -6.657  -4.260  0.00  0.00    +0.240 C 
ENDROOT
BRANCH  12   8
ATOM      5  O   UNL     1      18.620 -10.782   0.041  0.00  0.00    -0.252 OA
ATOM      8  N   UNL     1      17.300  -9.942  -1.662  0.00  0.00    -0.294 N 
ATOM     10  N   UNL     1      16.370 -11.417  -0.169  0.00  0.00    -0.269 N 
ATOM     19  C   UNL     1      17.532 -10.730  -0.528  0.00  0.00    +0.304 C 
ATOM     37  H   UNL     1      16.357  -9.901  -2.033  0.00  0.00    +0.151 HD
ATOM     39  H   UNL     1      15.550 -11.262  -0.750  0.00  0.00    +0.156 HD
BRANCH  10  25
ATOM     25  C   UNL     1      16.189 -12.311   0.912  0.00  0.00    +0.036 A 
ATOM     29  C   UNL     1      16.780 -13.574   0.880  0.00  0.00    +0.038 A 
ATOM     30  C   UNL     1      15.419 -11.929   2.011  0.00  0.00    +0.023 A 
ATOM     33  C   UNL     1      16.602 -14.455   1.947  0.00  0.00    +0.009 A 
ATOM     34  C   UNL     1      15.241 -12.810   3.078  0.00  0.00    +0.003 A 
ATOM     35  C   UNL     1      15.832 -14.072   3.046  0.00  0.00    +0.015 A 
BRANCH  33   2
ATOM      2  S   UNL     1      17.359 -16.068   1.908  0.00  0.00    -0.129 S 
ATOM     36  C   UNL     1      17.295 -16.462   0.137  0.00  0.00    +0.090 C 
ENDBRANCH  33   2
ENDBRANCH  10  25
ENDBRANCH  12   8
BRANCH  13  16
ATOM      3  O   UNL     1      19.813  -6.695  -3.348  0.00  0.00    -0.274 OA
ATOM      9  N   UNL     1      19.060  -5.958  -1.272  0.00  0.00    -0.302 N 
ATOM     16  C   UNL     1      19.008  -6.728  -2.421  0.00  0.00    +0.236 C 
ATOM     38  H   UNL     1      18.326  -6.061  -0.577  0.00  0.00    +0.150 HD
BRANCH   9  18
ATOM     18  C   UNL     1      20.101  -4.990  -1.017  0.00  0.00    +0.163 C 
BRANCH  18  22
ATOM      6  O   UNL     1      19.530  -5.097   1.343  0.00  0.00    -0.274 OA
ATOM     11  N   UNL     1      21.749  -5.050   0.751  0.00  0.00    -0.328 N 
ATOM     22  C   UNL     1      20.397  -5.035   0.475  0.00  0.00    +0.231 C 
ATOM     40  H   UNL     1      22.083  -5.094   1.708  0.00  0.00    +0.145 HD
ATOM     41  H   UNL     1      22.456  -5.009   0.025  0.00  0.00    +0.145 HD
ENDBRANCH  18  22
BRANCH  18  21
ATOM     21  C   UNL     1      19.695  -3.572  -1.438  0.00  0.00    +0.074 C 
BRANCH  21  24
ATOM      1  S   UNL     1      20.292  -1.469  -3.165  0.00  0.00    -0.102 S 
ATOM     24  C   UNL     1      20.673  -2.960  -2.412  0.00  0.00    -0.008 A 
ATOM     28  C   UNL     1      21.899  -3.443  -2.814  0.00  0.00    +0.011 A 
ATOM     31  C   UNL     1      22.534  -2.579  -3.752  0.00  0.00    +0.008 A 
ATOM     32  C   UNL     1      21.770  -1.468  -4.032  0.00  0.00    +0.045 A 
ENDBRANCH  21  24
ENDBRANCH  18  21
ENDBRANCH   9  18
ENDBRANCH  13  16
BRANCH  17  20
ATOM     20  C   UNL     1      16.125  -5.459  -3.434  0.00  0.00    +0.066 C 
ATOM     23  C   UNL     1      16.734  -4.273  -3.606  0.00  0.00    -0.071 C 
ATOM     26  C   UNL     1      16.515  -3.032  -2.787  0.00  0.00    +0.039 C 
ATOM     27  C   UNL     1      17.745  -4.106  -4.711  0.00  0.00    +0.039 C 
ENDBRANCH  17  20
TORSDOF 9
ENDMDL
MODEL 7
REMARK VINA RESULT:      -5.7     28.610     30.996
REMARK  Name = 11882066
REMARK  12 active torsions:
REMARK  status: ('A' for Active; 'I' for Inactive)
REMARK    1  A    between atoms: S_2  and  C_33
REMARK    2  A    between atoms: S_2  and  C_36
REMARK    3  A    between atoms: N_8  and  C_12
REMARK    4  A    between atoms: N_9  and  C_18
REMARK    5  A    between atoms: N_10  and  C_25
REMARK    6  A    between atoms: C_13  and  C_16
REMARK    7  A    between atoms: C_17  and  C_20
REMARK    8  A    between atoms: C_18  and  C_21
REMARK    9  A    between atoms: C_18  and  C_22
REMARK   10  A    between atoms: C_21  and  C_24
REMARK   11  A    between atoms: C_23  and  C_26
REMARK   12  A    between atoms: C_23  and  C_27
REMARK                            x       y       z     vdW  Elec       q    Type
REMARK                         _______ _______ _______ _____ _____    ______ ____
ROOT
ATOM      4  O   UNL     1      -2.271 -14.870  14.441  0.00  0.00    -0.271 OA
ATOM      7  N   UNL     1      -2.959 -12.706  14.000  0.00  0.00    -0.285 N 
ATOM     12  C   UNL     1      -3.544 -10.420  14.281  0.00  0.00    +0.105 C 
ATOM     13  C   UNL     1      -3.910 -11.699  13.522  0.00  0.00    +0.182 C 
ATOM     14  C   UNL     1      -2.051 -10.592  14.565  0.00  0.00    +0.043 C 
ATOM     15  C   UNL     1      -1.900 -12.089  14.789  0.00  0.00    +0.111 C 
ATOM     17  C   UNL     1      -3.046 -14.083  13.897  0.00  0.00    +0.240 C 
ENDROOT
BRANCH  12   8
ATOM      5  O   UNL     1      -6.377 -10.075  14.528  0.00  0.00    -0.252 OA
ATOM      8  N   UNL     1      -4.296 -10.308  15.508  0.00  0.00    -0.294 N 
ATOM     10  N   UNL     1      -6.133 -10.063  16.863  0.00  0.00    -0.269 N 
ATOM     19  C   UNL     1      -5.685 -10.140  15.542  0.00  0.00    +0.304 C 
ATOM     37  H   UNL     1      -3.804 -10.420  16.389  0.00  0.00    +0.151 HD
ATOM     39  H   UNL     1      -5.425 -10.134  17.590  0.00  0.00    +0.156 HD
BRANCH  10  25
ATOM     25  C   UNL     1      -7.461  -9.895  17.321  0.00  0.00    +0.036 A 
ATOM     29  C   UNL     1      -7.994 -10.780  18.257  0.00  0.00    +0.038 A 
ATOM     30  C   UNL     1      -8.237  -8.843  16.835  0.00  0.00    +0.023 A 
ATOM     33  C   UNL     1      -9.302 -10.614  18.709  0.00  0.00    +0.009 A 
ATOM     34  C   UNL     1      -9.547  -8.676  17.287  0.00  0.00    +0.003 A 
ATOM     35  C   UNL     1     -10.079  -9.561  18.223  0.00  0.00    +0.015 A 
BRANCH  33   2
ATOM      2  S   UNL     1      -9.983 -11.744  19.908  0.00  0.00    -0.129 S 
ATOM     36  C   UNL     1      -9.072 -13.269  19.535  0.00  0.00    +0.090 C 
ENDBRANCH  33   2
ENDBRANCH  10  25
ENDBRANCH  12   8
BRANCH  13  16
ATOM      3  O   UNL     1      -2.637 -11.903  11.511  0.00  0.00    -0.274 OA
ATOM      9  N   UNL     1      -4.723 -10.875  11.423  0.00  0.00    -0.302 N 
ATOM     16  C   UNL     1      -3.672 -11.521  12.050  0.00  0.00    +0.236 C 
ATOM     38  H   UNL     1      -5.540 -10.618  11.971  0.00  0.00    +0.150 HD
BRANCH   9  18
ATOM     18  C   UNL     1      -4.730 -10.563  10.013  0.00  0.00    +0.163 C 
BRANCH  18  22
ATOM      6  O   UNL     1      -5.887  -8.538  10.698  0.00  0.00    -0.274 OA
ATOM     11  N   UNL     1      -4.654  -8.497   8.760  0.00  0.00    -0.328 N 
ATOM     22  C   UNL     1      -5.176  -9.114   9.878  0.00  0.00    +0.231 C 
ATOM     40  H   UNL     1      -4.862  -7.524   8.560  0.00  0.00    +0.145 HD
ATOM     41  H   UNL     1      -4.060  -8.981   8.095  0.00  0.00    +0.145 HD
ENDBRANCH  18  22
BRANCH  18  21
ATOM     21  C   UNL     1      -5.663 -11.484   9.217  0.00  0.00    +0.074 C 
BRANCH  21  24
ATOM      1  S   UNL     1      -4.882 -11.585   6.544  0.00  0.00    -0.102 S 
ATOM     24  C   UNL     1      -4.934 -12.236   8.128  0.00  0.00    -0.008 A 
ATOM     28  C   UNL     1      -4.266 -13.438   8.215  0.00  0.00    +0.011 A 
ATOM     31  C   UNL     1      -3.703 -13.830   6.967  0.00  0.00    +0.008 A 
ATOM     32  C   UNL     1      -3.963 -12.913   5.972  0.00  0.00    +0.045 A 
ENDBRANCH  21  24
ENDBRANCH  18  21
ENDBRANCH   9  18
ENDBRANCH  13  16
BRANCH  17  20
ATOM     20  C   UNL     1      -4.144 -14.631  13.078  0.00  0.00    +0.066 C 
ATOM     23  C   UNL     1      -3.988 -15.220  11.880  0.00  0.00    -0.071 C 
ATOM     26  C   UNL     1      -5.080 -15.789  11.017  0.00  0.00    +0.039 C 
ATOM     27  C   UNL     1      -2.608 -15.355  11.288  0.00  0.00    +0.039 C 
ENDBRANCH  17  20
TORSDOF 9
ENDMDL
MODEL 8
REMARK VINA RESULT:      -5.7     29.628     32.496
REMARK  Name = 11882066
REMARK  12 active torsions:
REMARK  status: ('A' for Active; 'I' for Inactive)
REMARK    1  A    between atoms: S_2  and  C_33
REMARK    2  A    between atoms: S_2  and  C_36
REMARK    3  A    between atoms: N_8  and  C_12
REMARK    4  A    between atoms: N_9  and  C_18
REMARK    5  A    between atoms: N_10  and  C_25
REMARK    6  A    between atoms: C_13  and  C_16
REMARK    7  A    between atoms: C_17  and  C_20
REMARK    8  A    between atoms: C_18  and  C_21
REMARK    9  A    between atoms: C_18  and  C_22
REMARK   10  A    between atoms: C_21  and  C_24
REMARK   11  A    between atoms: C_23  and  C_26
REMARK   12  A    between atoms: C_23  and  C_27
REMARK                            x       y       z     vdW  Elec       q    Type
REMARK                         _______ _______ _______ _____ _____    ______ ____
ROOT
ATOM      4  O   UNL     1     -11.659  -7.524  16.726  0.00  0.00    -0.271 OA
ATOM      7  N   UNL     1      -9.985  -9.073  16.334  0.00  0.00    -0.285 N 
ATOM     12  C   UNL     1      -7.892 -10.041  15.759  0.00  0.00    +0.105 C 
ATOM     13  C   UNL     1      -9.407 -10.248  15.676  0.00  0.00    +0.182 C 
ATOM     14  C   UNL     1      -7.720  -9.188  17.018  0.00  0.00    +0.043 C 
ATOM     15  C   UNL     1      -8.957  -8.303  17.022  0.00  0.00    +0.111 C 
ATOM     17  C   UNL     1     -11.282  -8.594  16.249  0.00  0.00    +0.240 C 
ENDROOT
BRANCH  12   8
ATOM      5  O   UNL     1      -6.384 -11.179  13.607  0.00  0.00    -0.252 OA
ATOM      8  N   UNL     1      -7.395  -9.348  14.594  0.00  0.00    -0.294 N 
ATOM     10  N   UNL     1      -6.316  -9.065  12.587  0.00  0.00    -0.269 N 
ATOM     19  C   UNL     1      -6.662  -9.982  13.583  0.00  0.00    +0.304 C 
ATOM     37  H   UNL     1      -7.642  -8.372  14.468  0.00  0.00    +0.151 HD
ATOM     39  H   UNL     1      -6.626  -8.106  12.722  0.00  0.00    +0.156 HD
BRANCH  10  25
ATOM     25  C   UNL     1      -5.581  -9.306  11.403  0.00  0.00    +0.036 A 
ATOM     29  C   UNL     1      -6.227  -9.308  10.167  0.00  0.00    +0.038 A 
ATOM     30  C   UNL     1      -4.207  -9.542  11.472  0.00  0.00    +0.023 A 
ATOM     33  C   UNL     1      -5.502  -9.546   9.001  0.00  0.00    +0.009 A 
ATOM     34  C   UNL     1      -3.481  -9.779  10.305  0.00  0.00    +0.003 A 
ATOM     35  C   UNL     1      -4.127  -9.781   9.070  0.00  0.00    +0.015 A 
BRANCH  33   2
ATOM      2  S   UNL     1      -6.327  -9.546   7.420  0.00  0.00    -0.129 S 
ATOM     36  C   UNL     1      -7.765  -8.491   7.757  0.00  0.00    +0.090 C 
ENDBRANCH  33   2
ENDBRANCH  10  25
ENDBRANCH  12   8
BRANCH  13  16
ATOM      3  O   UNL     1     -10.572 -12.305  16.016  0.00  0.00    -0.274 OA
ATOM      9  N   UNL     1      -9.266 -11.451  17.743  0.00  0.00    -0.302 N 
ATOM     16  C   UNL     1      -9.816 -11.452  16.473  0.00  0.00    +0.236 C 
ATOM     38  H   UNL     1      -8.639 -10.696  18.007  0.00  0.00    +0.150 HD
BRANCH   9  18
ATOM     18  C   UNL     1      -9.523 -12.488  18.716  0.00  0.00    +0.163 C 
BRANCH  18  22
ATOM      6  O   UNL     1     -10.704 -12.409  20.838  0.00  0.00    -0.274 OA
ATOM     11  N   UNL     1      -9.837 -10.458  19.990  0.00  0.00    -0.328 N 
ATOM     22  C   UNL     1     -10.103 -11.811  19.949  0.00  0.00    +0.231 C 
ATOM     40  H   UNL     1     -10.157  -9.889  20.768  0.00  0.00    +0.145 HD
ATOM     41  H   UNL     1      -9.330  -9.977  19.254  0.00  0.00    +0.145 HD
ENDBRANCH  18  22
BRANCH  18  21
ATOM     21  C   UNL     1      -8.255 -13.269  19.083  0.00  0.00    +0.074 C 
BRANCH  21  24
ATOM      1  S   UNL     1      -6.094 -12.814  17.383  0.00  0.00    -0.102 S 
ATOM     24  C   UNL     1      -6.995 -12.483  18.802  0.00  0.00    -0.008 A 
ATOM     28  C   UNL     1      -6.424 -11.481  19.555  0.00  0.00    +0.011 A 
ATOM     31  C   UNL     1      -5.230 -10.979  18.961  0.00  0.00    +0.008 A 
ATOM     32  C   UNL     1      -4.935 -11.615  17.776  0.00  0.00    +0.045 A 
ENDBRANCH  21  24
ENDBRANCH  18  21
ENDBRANCH   9  18
ENDBRANCH  13  16
BRANCH  17  20
ATOM     20  C   UNL     1     -12.265  -9.433  15.538  0.00  0.00    +0.066 C 
ATOM     23  C   UNL     1     -13.204 -10.188  16.136  0.00  0.00    -0.071 C 
ATOM     26  C   UNL     1     -14.222 -11.055  15.447  0.00  0.00    +0.039 C 
ATOM     27  C   UNL     1     -13.297 -10.212  17.640  0.00  0.00    +0.039 C 
ENDBRANCH  17  20
TORSDOF 9
ENDMDL
MODEL 9
REMARK VINA RESULT:      -5.7     24.772     30.925
REMARK  Name = 11882066
REMARK  12 active torsions:
REMARK  status: ('A' for Active; 'I' for Inactive)
REMARK    1  A    between atoms: S_2  and  C_33
REMARK    2  A    between atoms: S_2  and  C_36
REMARK    3  A    between atoms: N_8  and  C_12
REMARK    4  A    between atoms: N_9  and  C_18
REMARK    5  A    between atoms: N_10  and  C_25
REMARK    6  A    between atoms: C_13  and  C_16
REMARK    7  A    between atoms: C_17  and  C_20
REMARK    8  A    between atoms: C_18  and  C_21
REMARK    9  A    between atoms: C_18  and  C_22
REMARK   10  A    between atoms: C_21  and  C_24
REMARK   11  A    between atoms: C_23  and  C_26
REMARK   12  A    between atoms: C_23  and  C_27
REMARK                            x       y       z     vdW  Elec       q    Type
REMARK                         _______ _______ _______ _____ _____    ______ ____
ROOT
ATOM      4  O   UNL     1      -6.882  10.600   5.005  0.00  0.00    -0.271 OA
ATOM      7  N   UNL     1      -5.953  10.706   2.888  0.00  0.00    -0.285 N 
ATOM     12  C   UNL     1      -5.721  10.789   0.524  0.00  0.00    +0.105 C 
ATOM     13  C   UNL     1      -5.094  10.226   1.803  0.00  0.00    +0.182 C 
ATOM     14  C   UNL     1      -6.417  12.065   1.004  0.00  0.00    +0.043 C 
ATOM     15  C   UNL     1      -6.894  11.708   2.403  0.00  0.00    +0.111 C 
ATOM     17  C   UNL     1      -6.039  10.232   4.186  0.00  0.00    +0.240 C 
ENDROOT
BRANCH  12   8
ATOM      5  O   UNL     1      -5.595   9.576  -2.067  0.00  0.00    -0.252 OA
ATOM      8  N   UNL     1      -6.673   9.863  -0.042  0.00  0.00    -0.294 N 
ATOM     10  N   UNL     1      -7.604   8.456  -1.599  0.00  0.00    -0.269 N 
ATOM     19  C   UNL     1      -6.536   9.314  -1.323  0.00  0.00    +0.304 C 
ATOM     37  H   UNL     1      -7.444   9.545   0.538  0.00  0.00    +0.151 HD
ATOM     39  H   UNL     1      -8.305   8.350  -0.870  0.00  0.00    +0.156 HD
BRANCH  10  25
ATOM     25  C   UNL     1      -7.834   7.709  -2.778  0.00  0.00    +0.036 A 
ATOM     29  C   UNL     1      -8.298   8.347  -3.928  0.00  0.00    +0.038 A 
ATOM     30  C   UNL     1      -7.598   6.335  -2.790  0.00  0.00    +0.023 A 
ATOM     33  C   UNL     1      -8.525   7.611  -5.091  0.00  0.00    +0.009 A 
ATOM     34  C   UNL     1      -7.824   5.598  -3.953  0.00  0.00    +0.003 A 
ATOM     35  C   UNL     1      -8.287   6.236  -5.103  0.00  0.00    +0.015 A 
BRANCH  33   2
ATOM      2  S   UNL     1      -9.116   8.426  -6.562  0.00  0.00    -0.129 S 
ATOM     36  C   UNL     1     -10.915   8.292  -6.360  0.00  0.00    +0.090 C 
ENDBRANCH  33   2
ENDBRANCH  10  25
ENDBRANCH  12   8
BRANCH  13  16
ATOM      3  O   UNL     1      -3.555  12.026   2.117  0.00  0.00    -0.274 OA
ATOM      9  N   UNL     1      -2.743   9.845   2.067  0.00  0.00    -0.302 N 
ATOM     16  C   UNL     1      -3.730  10.814   2.020  0.00  0.00    +0.236 C 
ATOM     38  H   UNL     1      -3.009   8.867   1.990  0.00  0.00    +0.150 HD
BRANCH   9  18
ATOM     18  C   UNL     1      -1.342  10.152   2.244  0.00  0.00    +0.163 C 
BRANCH  18  22
ATOM      6  O   UNL     1      -1.210   9.329  -0.039  0.00  0.00    -0.274 OA
ATOM     11  N   UNL     1       0.685  10.198   0.927  0.00  0.00    -0.328 N 
ATOM     22  C   UNL     1      -0.644   9.827   0.931  0.00  0.00    +0.231 C 
ATOM     40  H   UNL     1       1.262  10.050   0.105  0.00  0.00    +0.145 HD
ATOM     41  H   UNL     1       1.138  10.618   1.731  0.00  0.00    +0.145 HD
ENDBRANCH  18  22
BRANCH  18  21
ATOM     21  C   UNL     1      -0.712   9.357   3.394  0.00  0.00    +0.074 C 
BRANCH  21  24
ATOM      1  S   UNL     1      -1.438  11.475   5.053  0.00  0.00    -0.102 S 
ATOM     24  C   UNL     1      -1.219   9.804   4.745  0.00  0.00    -0.008 A 
ATOM     28  C   UNL     1      -1.551   9.030   5.836  0.00  0.00    +0.011 A 
ATOM     31  C   UNL     1      -1.991   9.817   6.938  0.00  0.00    +0.008 A 
ATOM     32  C   UNL     1      -1.979  11.164   6.649  0.00  0.00    +0.045 A 
ENDBRANCH  21  24
ENDBRANCH  18  21
ENDBRANCH   9  18
ENDBRANCH  13  16
BRANCH  17  20
ATOM     20  C   UNL     1      -5.049   9.221   4.602  0.00  0.00    +0.066 C 
ATOM     23  C   UNL     1      -5.269   7.895   4.625  0.00  0.00    -0.071 C 
ATOM     26  C   UNL     1      -4.288   6.835   5.042  0.00  0.00    +0.039 C 
ATOM     27  C   UNL     1      -6.612   7.353   4.204  0.00  0.00    +0.039 C 
ENDBRANCH  17  20
TORSDOF 9
ENDMDL
MODEL 10
REMARK VINA RESULT:      -5.6     20.310     25.180
REMARK  Name = 11882066
REMARK  12 active torsions:
REMARK  status: ('A' for Active; 'I' for Inactive)
REMARK    1  A    between atoms: S_2  and  C_33
REMARK    2  A    between atoms: S_2  and  C_36
REMARK    3  A    between atoms: N_8  and  C_12
REMARK    4  A    between atoms: N_9  and  C_18
REMARK    5  A    between atoms: N_10  and  C_25
REMARK    6  A    between atoms: C_13  and  C_16
REMARK    7  A    between atoms: C_17  and  C_20
REMARK    8  A    between atoms: C_18  and  C_21
REMARK    9  A    between atoms: C_18  and  C_22
REMARK   10  A    between atoms: C_21  and  C_24
REMARK   11  A    between atoms: C_23  and  C_26
REMARK   12  A    between atoms: C_23  and  C_27
REMARK                            x       y       z     vdW  Elec       q    Type
REMARK                         _______ _______ _______ _____ _____    ______ ____
ROOT
ATOM      4  O   UNL     1       7.184  -8.913  40.973  0.00  0.00    -0.271 OA
ATOM      7  N   UNL     1       6.066  -8.326  39.033  0.00  0.00    -0.285 N 
ATOM     12  C   UNL     1       4.518  -8.325  37.230  0.00  0.00    +0.105 C 
ATOM     13  C   UNL     1       5.979  -8.050  37.597  0.00  0.00    +0.182 C 
ATOM     14  C   UNL     1       3.767  -8.046  38.534  0.00  0.00    +0.043 C 
ATOM     15  C   UNL     1       4.739  -8.502  39.611  0.00  0.00    +0.111 C 
ATOM     17  C   UNL     1       7.199  -8.555  39.795  0.00  0.00    +0.240 C 
ENDROOT
BRANCH  12   8
ATOM      5  O   UNL     1       4.497  -9.300  34.537  0.00  0.00    -0.252 OA
ATOM      8  N   UNL     1       4.334  -9.694  36.810  0.00  0.00    -0.294 N 
ATOM     10  N   UNL     1       4.137 -11.467  35.366  0.00  0.00    -0.269 N 
ATOM     19  C   UNL     1       4.337 -10.088  35.467  0.00  0.00    +0.304 C 
ATOM     37  H   UNL     1       4.263 -10.414  37.522  0.00  0.00    +0.151 HD
ATOM     39  H   UNL     1       4.020 -11.977  36.238  0.00  0.00    +0.156 HD
BRANCH  10  25
ATOM     25  C   UNL     1       4.074 -12.251  34.190  0.00  0.00    +0.036 A 
ATOM     29  C   UNL     1       5.212 -12.417  33.400  0.00  0.00    +0.038 A 
ATOM     30  C   UNL     1       2.874 -12.859  33.820  0.00  0.00    +0.023 A 
ATOM     33  C   UNL     1       5.150 -13.189  32.241  0.00  0.00    +0.009 A 
ATOM     34  C   UNL     1       2.812 -13.632  32.660  0.00  0.00    +0.003 A 
ATOM     35  C   UNL     1       3.949 -13.798  31.871  0.00  0.00    +0.015 A 
BRANCH  33   2
ATOM      2  S   UNL     1       6.604 -13.404  31.232  0.00  0.00    -0.129 S 
ATOM     36  C   UNL     1       6.836 -11.733  30.562  0.00  0.00    +0.090 C 
ENDBRANCH  33   2
ENDBRANCH  10  25
ENDBRANCH  12   8
BRANCH  13  16
ATOM      3  O   UNL     1       5.896  -5.733  38.172  0.00  0.00    -0.274 OA
ATOM      9  N   UNL     1       7.069  -6.379  36.268  0.00  0.00    -0.302 N 
ATOM     16  C   UNL     1       6.304  -6.597  37.401  0.00  0.00    +0.236 C 
ATOM     38  H   UNL     1       7.362  -7.177  35.711  0.00  0.00    +0.150 HD
BRANCH   9  18
ATOM     18  C   UNL     1       7.496  -5.066  35.844  0.00  0.00    +0.163 C 
BRANCH  18  22
ATOM      6  O   UNL     1       7.883  -5.885  33.589  0.00  0.00    -0.274 OA
ATOM     11  N   UNL     1       6.651  -3.966  33.865  0.00  0.00    -0.328 N 
ATOM     22  C   UNL     1       7.395  -5.032  34.326  0.00  0.00    +0.231 C 
ATOM     40  H   UNL     1       6.493  -3.834  32.871  0.00  0.00    +0.145 HD
ATOM     41  H   UNL     1       6.244  -3.273  34.485  0.00  0.00    +0.145 HD
ENDBRANCH  18  22
BRANCH  18  21
ATOM     21  C   UNL     1       8.928  -4.747  36.291  0.00  0.00    +0.074 C 
BRANCH  21  24
ATOM      1  S   UNL     1      10.487  -3.068  37.877  0.00  0.00    -0.102 S 
ATOM     24  C   UNL     1       8.973  -3.676  37.355  0.00  0.00    -0.008 A 
ATOM     28  C   UNL     1       7.920  -3.076  38.012  0.00  0.00    +0.011 A 
ATOM     31  C   UNL     1       8.362  -2.104  38.956  0.00  0.00    +0.008 A 
ATOM     32  C   UNL     1       9.735  -1.998  38.984  0.00  0.00    +0.045 A 
ENDBRANCH  21  24
ENDBRANCH  18  21
ENDBRANCH   9  18
ENDBRANCH  13  16
BRANCH  17  20
ATOM     20  C   UNL     1       8.505  -8.353  39.138  0.00  0.00    +0.066 C 
ATOM     23  C   UNL     1       9.275  -7.261  39.283  0.00  0.00    -0.071 C 
ATOM     26  C   UNL     1      10.609  -7.018  38.633  0.00  0.00    +0.039 C 
ATOM     27  C   UNL     1       8.814  -6.133  40.171  0.00  0.00    +0.039 C 
ENDBRANCH  17  20
TORSDOF 9
ENDMDL
