MODEL 1
REMARK VINA RESULT:      -7.8      0.000      0.000
REMARK  Name = 25389266
REMARK  7 active torsions:
REMARK  status: ('A' for Active; 'I' for Inactive)
REMARK    1  A    between atoms: S_1  and  N_6
REMARK    2  A    between atoms: S_1  and  C_23
REMARK    3  A    between atoms: N_5  and  C_14
REMARK    4  A    between atoms: N_6  and  C_15
REMARK    5  A    between atoms: C_8  and  C_14
REMARK    6  A    between atoms: C_9  and  C_15
REMARK    7  A    between atoms: C_30  and  C_31
REMARK                            x       y       z     vdW  Elec       q    Type
REMARK                         _______ _______ _______ _____ _____    ______ ____
ROOT
ATOM      4  N   UNL     1      -5.925 -12.266  16.825  0.00  0.00    -0.298 NA
ATOM      7  C   UNL     1      -6.845 -10.957  18.877  0.00  0.00    -0.003 C 
ATOM      8  C   UNL     1      -7.735 -10.730  17.633  0.00  0.00    +0.020 C 
ATOM      9  C   UNL     1      -4.845 -11.438  17.427  0.00  0.00    +0.072 C 
ATOM     10  C   UNL     1      -5.399 -10.537  18.554  0.00  0.00    +0.024 C 
ATOM     11  C   UNL     1      -7.065 -11.408  16.417  0.00  0.00    +0.089 C 
ATOM     12  C   UNL     1      -6.830 -12.474  19.145  0.00  0.00    +0.019 C 
ATOM     13  C   UNL     1      -6.407 -13.211  17.862  0.00  0.00    +0.085 C 
ENDROOT
BRANCH   8  14
ATOM     14  C   UNL     1      -8.027  -9.255  17.364  0.00  0.00    +0.089 C 
BRANCH  14   5
ATOM      5  N   UNL     1      -9.411  -9.070  16.929  0.00  0.00    -0.298 NA
ATOM     16  C   UNL     1     -10.348  -9.447  17.994  0.00  0.00    +0.089 C 
ATOM     17  C   UNL     1      -9.638  -7.672  16.523  0.00  0.00    +0.119 C 
ATOM     18  C   UNL     1     -11.781  -9.445  17.452  0.00  0.00    +0.051 C 
ATOM     19  C   UNL     1     -11.083  -7.372  16.192  0.00  0.00    -0.030 A 
ATOM     20  C   UNL     1     -12.111  -8.198  16.676  0.00  0.00    -0.042 A 
ATOM     21  C   UNL     1     -11.407  -6.226  15.452  0.00  0.00    +0.005 A 
ATOM     22  C   UNL     1     -13.445  -7.889  16.380  0.00  0.00    +0.004 A 
ATOM     24  C   UNL     1     -12.739  -5.922  15.171  0.00  0.00    +0.000 A 
ATOM     25  C   UNL     1     -13.756  -6.753  15.634  0.00  0.00    +0.000 A 
ENDBRANCH  14   5
ENDBRANCH   8  14
BRANCH   9  15
ATOM     15  C   UNL     1      -4.077 -10.630  16.379  0.00  0.00    +0.124 C 
BRANCH  15   6
ATOM      6  N   UNL     1      -3.613 -11.489  15.303  0.00  0.00    -0.188 NA
ATOM     32  H   UNL     1      -3.906 -12.473  15.340  0.00  0.00    +0.148 HD
BRANCH   6   1
ATOM      1  S   UNL     1      -2.131 -11.169  14.506  0.00  0.00    +0.058 S 
ATOM      2  O   UNL     1      -1.461 -12.425  14.234  0.00  0.00    -0.153 OA
ATOM      3  O   UNL     1      -1.429 -10.101  15.193  0.00  0.00    -0.153 OA
BRANCH   1  23
ATOM     23  C   UNL     1      -2.695 -10.508  12.966  0.00  0.00    +0.105 A 
ATOM     26  C   UNL     1      -4.062 -10.424  12.701  0.00  0.00    +0.029 A 
ATOM     27  C   UNL     1      -1.773 -10.072  12.015  0.00  0.00    +0.029 A 
ATOM     28  C   UNL     1      -4.507  -9.905  11.486  0.00  0.00    +0.005 A 
ATOM     29  C   UNL     1      -2.217  -9.553  10.798  0.00  0.00    +0.005 A 
ATOM     30  C   UNL     1      -3.584  -9.469  10.535  0.00  0.00    -0.050 A 
ATOM     31  C   UNL     1      -4.060  -8.914   9.235  0.00  0.00    +0.044 C 
ENDBRANCH   1  23
ENDBRANCH   6   1
ENDBRANCH  15   6
ENDBRANCH   9  15
TORSDOF 6
ENDMDL
MODEL 2
REMARK VINA RESULT:      -7.6     27.576     30.615
REMARK  Name = 25389266
REMARK  7 active torsions:
REMARK  status: ('A' for Active; 'I' for Inactive)
REMARK    1  A    between atoms: S_1  and  N_6
REMARK    2  A    between atoms: S_1  and  C_23
REMARK    3  A    between atoms: N_5  and  C_14
REMARK    4  A    between atoms: N_6  and  C_15
REMARK    5  A    between atoms: C_8  and  C_14
REMARK    6  A    between atoms: C_9  and  C_15
REMARK    7  A    between atoms: C_30  and  C_31
REMARK                            x       y       z     vdW  Elec       q    Type
REMARK                         _______ _______ _______ _____ _____    ______ ____
ROOT
ATOM      4  N   UNL     1      11.232   8.379  20.806  0.00  0.00    -0.298 NA
ATOM      7  C   UNL     1      13.247   9.615  19.718  0.00  0.00    -0.003 C 
ATOM      8  C   UNL     1      13.700   8.289  20.370  0.00  0.00    +0.020 C 
ATOM      9  C   UNL     1      11.291   9.785  21.292  0.00  0.00    +0.072 C 
ATOM     10  C   UNL     1      12.562  10.497  20.778  0.00  0.00    +0.024 C 
ATOM     11  C   UNL     1      12.499   7.673  21.122  0.00  0.00    +0.089 C 
ATOM     12  C   UNL     1      12.180   9.254  18.666  0.00  0.00    +0.019 C 
ATOM     13  C   UNL     1      11.078   8.412  19.331  0.00  0.00    +0.085 C 
ENDROOT
BRANCH   8  14
ATOM     14  C   UNL     1      14.912   8.452  21.285  0.00  0.00    +0.089 C 
BRANCH  14   5
ATOM      5  N   UNL     1      15.915   7.423  21.010  0.00  0.00    -0.298 NA
ATOM     16  C   UNL     1      16.048   7.197  19.565  0.00  0.00    +0.089 C 
ATOM     17  C   UNL     1      17.215   7.807  21.587  0.00  0.00    +0.119 C 
ATOM     18  C   UNL     1      16.941   5.980  19.309  0.00  0.00    +0.051 C 
ATOM     19  C   UNL     1      18.335   6.857  21.224  0.00  0.00    -0.030 A 
ATOM     20  C   UNL     1      18.219   6.014  20.106  0.00  0.00    -0.042 A 
ATOM     21  C   UNL     1      19.522   6.861  21.967  0.00  0.00    +0.005 A 
ATOM     22  C   UNL     1      19.278   5.160  19.770  0.00  0.00    +0.004 A 
ATOM     24  C   UNL     1      20.574   6.013  21.620  0.00  0.00    +0.000 A 
ATOM     25  C   UNL     1      20.451   5.163  20.524  0.00  0.00    +0.000 A 
ENDBRANCH  14   5
ENDBRANCH   8  14
BRANCH   9  15
ATOM     15  C   UNL     1      11.160   9.883  22.813  0.00  0.00    +0.124 C 
BRANCH  15   6
ATOM      6  N   UNL     1      10.412  11.070  23.190  0.00  0.00    -0.188 NA
ATOM     32  H   UNL     1       9.832  11.501  22.461  0.00  0.00    +0.148 HD
BRANCH   6   1
ATOM      1  S   UNL     1      10.996  12.119  24.412  0.00  0.00    +0.058 S 
ATOM      2  O   UNL     1      11.267  11.345  25.608  0.00  0.00    -0.153 OA
ATOM      3  O   UNL     1      10.156  13.300  24.482  0.00  0.00    -0.153 OA
BRANCH   1  23
ATOM     23  C   UNL     1      12.545  12.628  23.729  0.00  0.00    +0.105 A 
ATOM     26  C   UNL     1      12.580  13.590  22.719  0.00  0.00    +0.029 A 
ATOM     27  C   UNL     1      13.732  12.065  24.197  0.00  0.00    +0.029 A 
ATOM     28  C   UNL     1      13.802  13.990  22.179  0.00  0.00    +0.005 A 
ATOM     29  C   UNL     1      14.955  12.464  23.656  0.00  0.00    +0.005 A 
ATOM     30  C   UNL     1      14.989  13.426  22.647  0.00  0.00    -0.050 A 
ATOM     31  C   UNL     1      16.296  13.853  22.068  0.00  0.00    +0.044 C 
ENDBRANCH   1  23
ENDBRANCH   6   1
ENDBRANCH  15   6
ENDBRANCH   9  15
TORSDOF 6
ENDMDL
MODEL 3
REMARK VINA RESULT:      -7.5      1.767      2.762
REMARK  Name = 25389266
REMARK  7 active torsions:
REMARK  status: ('A' for Active; 'I' for Inactive)
REMARK    1  A    between atoms: S_1  and  N_6
REMARK    2  A    between atoms: S_1  and  C_23
REMARK    3  A    between atoms: N_5  and  C_14
REMARK    4  A    between atoms: N_6  and  C_15
REMARK    5  A    between atoms: C_8  and  C_14
REMARK    6  A    between atoms: C_9  and  C_15
REMARK    7  A    between atoms: C_30  and  C_31
REMARK                            x       y       z     vdW  Elec       q    Type
REMARK                         _______ _______ _______ _____ _____    ______ ____
ROOT
ATOM      4  N   UNL     1      -5.188 -12.825  16.657  0.00  0.00    -0.298 NA
ATOM      7  C   UNL     1      -4.951 -10.483  17.766  0.00  0.00    -0.003 C 
ATOM      8  C   UNL     1      -6.411 -10.740  17.325  0.00  0.00    +0.020 C 
ATOM      9  C   UNL     1      -4.085 -12.065  16.011  0.00  0.00    +0.072 C 
ATOM     10  C   UNL     1      -4.019 -10.617  16.547  0.00  0.00    +0.024 C 
ATOM     11  C   UNL     1      -6.463 -12.075  16.548  0.00  0.00    +0.089 C 
ATOM     12  C   UNL     1      -4.577 -11.607  18.752  0.00  0.00    +0.019 C 
ATOM     13  C   UNL     1      -4.860 -12.971  18.097  0.00  0.00    +0.085 C 
ENDROOT
BRANCH   8  14
ATOM     14  C   UNL     1      -7.005  -9.592  16.513  0.00  0.00    +0.089 C 
BRANCH  14   5
ATOM      5  N   UNL     1      -8.362  -9.284  16.962  0.00  0.00    -0.298 NA
ATOM     16  C   UNL     1      -9.331  -9.499  15.880  0.00  0.00    +0.089 C 
ATOM     17  C   UNL     1      -8.715 -10.107  18.131  0.00  0.00    +0.119 C 
ATOM     18  C   UNL     1     -10.707  -8.976  16.301  0.00  0.00    +0.051 C 
ATOM     19  C   UNL     1     -10.154  -9.944  18.567  0.00  0.00    -0.030 A 
ATOM     20  C   UNL     1     -11.116  -9.443  17.674  0.00  0.00    -0.042 A 
ATOM     21  C   UNL     1     -10.547 -10.354  19.848  0.00  0.00    +0.005 A 
ATOM     22  C   UNL     1     -12.449  -9.323  18.087  0.00  0.00    +0.004 A 
ATOM     24  C   UNL     1     -11.878 -10.239  20.247  0.00  0.00    +0.000 A 
ATOM     25  C   UNL     1     -12.827  -9.723  19.368  0.00  0.00    +0.000 A 
ENDBRANCH  14   5
ENDBRANCH   8  14
BRANCH   9  15
ATOM     15  C   UNL     1      -4.167 -12.101  14.483  0.00  0.00    +0.124 C 
BRANCH  15   6
ATOM      6  N   UNL     1      -3.626 -10.881  13.908  0.00  0.00    -0.188 NA
ATOM     32  H   UNL     1      -4.279 -10.098  13.790  0.00  0.00    +0.148 HD
BRANCH   6   1
ATOM      1  S   UNL     1      -2.307 -10.940  12.817  0.00  0.00    +0.058 S 
ATOM      2  O   UNL     1      -1.735 -12.272  12.840  0.00  0.00    -0.153 OA
ATOM      3  O   UNL     1      -1.461  -9.778  13.013  0.00  0.00    -0.153 OA
BRANCH   1  23
ATOM     23  C   UNL     1      -3.125 -10.724  11.264  0.00  0.00    +0.105 A 
ATOM     26  C   UNL     1      -3.213  -9.455  10.692  0.00  0.00    +0.029 A 
ATOM     27  C   UNL     1      -3.685 -11.823  10.613  0.00  0.00    +0.029 A 
ATOM     28  C   UNL     1      -3.860  -9.285   9.468  0.00  0.00    +0.005 A 
ATOM     29  C   UNL     1      -4.334 -11.653   9.389  0.00  0.00    +0.005 A 
ATOM     30  C   UNL     1      -4.421 -10.384   8.818  0.00  0.00    -0.050 A 
ATOM     31  C   UNL     1      -5.114 -10.202   7.509  0.00  0.00    +0.044 C 
ENDBRANCH   1  23
ENDBRANCH   6   1
ENDBRANCH  15   6
ENDBRANCH   9  15
TORSDOF 6
ENDMDL
MODEL 4
REMARK VINA RESULT:      -7.4      3.941      6.737
REMARK  Name = 25389266
REMARK  7 active torsions:
REMARK  status: ('A' for Active; 'I' for Inactive)
REMARK    1  A    between atoms: S_1  and  N_6
REMARK    2  A    between atoms: S_1  and  C_23
REMARK    3  A    between atoms: N_5  and  C_14
REMARK    4  A    between atoms: N_6  and  C_15
REMARK    5  A    between atoms: C_8  and  C_14
REMARK    6  A    between atoms: C_9  and  C_15
REMARK    7  A    between atoms: C_30  and  C_31
REMARK                            x       y       z     vdW  Elec       q    Type
REMARK                         _______ _______ _______ _____ _____    ______ ____
ROOT
ATOM      4  N   UNL     1      -7.094 -10.451  17.068  0.00  0.00    -0.298 NA
ATOM      7  C   UNL     1      -5.497 -11.586  18.778  0.00  0.00    -0.003 C 
ATOM      8  C   UNL     1      -4.706 -10.698  17.790  0.00  0.00    +0.020 C 
ATOM      9  C   UNL     1      -7.337 -11.918  17.094  0.00  0.00    +0.072 C 
ATOM     10  C   UNL     1      -6.301 -12.636  17.990  0.00  0.00    +0.024 C 
ATOM     11  C   UNL     1      -5.681 -10.169  16.715  0.00  0.00    +0.089 C 
ATOM     12  C   UNL     1      -6.512 -10.670  19.487  0.00  0.00    +0.019 C 
ATOM     13  C   UNL     1      -7.344  -9.921  18.431  0.00  0.00    +0.085 C 
ENDROOT
BRANCH   8  14
ATOM     14  C   UNL     1      -3.511 -11.414  17.163  0.00  0.00    +0.089 C 
BRANCH  14   5
ATOM      5  N   UNL     1      -3.454 -11.167  15.723  0.00  0.00    -0.298 NA
ATOM     16  C   UNL     1      -2.106 -10.749  15.318  0.00  0.00    +0.089 C 
ATOM     17  C   UNL     1      -3.856 -12.374  14.979  0.00  0.00    +0.119 C 
ATOM     18  C   UNL     1      -2.118 -10.297  13.855  0.00  0.00    +0.051 C 
ATOM     19  C   UNL     1      -3.688 -12.239  13.482  0.00  0.00    -0.030 A 
ATOM     20  C   UNL     1      -2.821 -11.272  12.947  0.00  0.00    -0.042 A 
ATOM     21  C   UNL     1      -4.351 -13.125  12.622  0.00  0.00    +0.005 A 
ATOM     22  C   UNL     1      -2.659 -11.179  11.559  0.00  0.00    +0.004 A 
ATOM     24  C   UNL     1      -4.177 -13.030  11.242  0.00  0.00    +0.000 A 
ATOM     25  C   UNL     1      -3.332 -12.058  10.711  0.00  0.00    +0.000 A 
ENDBRANCH  14   5
ENDBRANCH   8  14
BRANCH   9  15
ATOM     15  C   UNL     1      -7.392 -12.527  15.692  0.00  0.00    +0.124 C 
BRANCH  15   6
ATOM      6  N   UNL     1      -8.181 -11.695  14.799  0.00  0.00    -0.188 NA
ATOM     32  H   UNL     1      -8.917 -11.125  15.232  0.00  0.00    +0.148 HD
BRANCH   6   1
ATOM      1  S   UNL     1      -8.441 -12.161  13.171  0.00  0.00    +0.058 S 
ATOM      2  O   UNL     1      -9.810 -11.856  12.806  0.00  0.00    -0.153 OA
ATOM      3  O   UNL     1      -7.906 -13.492  12.954  0.00  0.00    -0.153 OA
BRANCH   1  23
ATOM     23  C   UNL     1      -7.384 -11.035  12.310  0.00  0.00    +0.105 A 
ATOM     26  C   UNL     1      -6.643 -10.091  13.021  0.00  0.00    +0.029 A 
ATOM     27  C   UNL     1      -7.294 -11.088  10.919  0.00  0.00    +0.029 A 
ATOM     28  C   UNL     1      -5.811  -9.201  12.341  0.00  0.00    +0.005 A 
ATOM     29  C   UNL     1      -6.463 -10.198  10.239  0.00  0.00    +0.005 A 
ATOM     30  C   UNL     1      -5.722  -9.255  10.950  0.00  0.00    -0.050 A 
ATOM     31  C   UNL     1      -4.832  -8.303  10.224  0.00  0.00    +0.044 C 
ENDBRANCH   1  23
ENDBRANCH   6   1
ENDBRANCH  15   6
ENDBRANCH   9  15
TORSDOF 6
ENDMDL
MODEL 5
REMARK VINA RESULT:      -7.3     27.340     30.464
REMARK  Name = 25389266
REMARK  7 active torsions:
REMARK  status: ('A' for Active; 'I' for Inactive)
REMARK    1  A    between atoms: S_1  and  N_6
REMARK    2  A    between atoms: S_1  and  C_23
REMARK    3  A    between atoms: N_5  and  C_14
REMARK    4  A    between atoms: N_6  and  C_15
REMARK    5  A    between atoms: C_8  and  C_14
REMARK    6  A    between atoms: C_9  and  C_15
REMARK    7  A    between atoms: C_30  and  C_31
REMARK                            x       y       z     vdW  Elec       q    Type
REMARK                         _______ _______ _______ _____ _____    ______ ____
ROOT
ATOM      4  N   UNL     1      13.798  10.067  19.793  0.00  0.00    -0.298 NA
ATOM      7  C   UNL     1      13.907   8.045  21.427  0.00  0.00    -0.003 C 
ATOM      8  C   UNL     1      15.143   8.073  20.500  0.00  0.00    +0.020 C 
ATOM      9  C   UNL     1      12.533   9.287  19.724  0.00  0.00    +0.072 C 
ATOM     10  C   UNL     1      12.628   7.998  20.571  0.00  0.00    +0.024 C 
ATOM     11  C   UNL     1      14.955   9.201  19.461  0.00  0.00    +0.089 C 
ATOM     12  C   UNL     1      13.894   9.382  22.194  0.00  0.00    +0.019 C 
ATOM     13  C   UNL     1      13.964  10.544  21.188  0.00  0.00    +0.085 C 
ENDROOT
BRANCH   8  14
ATOM     14  C   UNL     1      15.421   6.729  19.828  0.00  0.00    +0.089 C 
BRANCH  14   5
ATOM      5  N   UNL     1      16.724   6.204  20.233  0.00  0.00    -0.298 NA
ATOM     16  C   UNL     1      17.525   5.835  19.058  0.00  0.00    +0.089 C 
ATOM     17  C   UNL     1      17.446   7.196  21.048  0.00  0.00    +0.119 C 
ATOM     18  C   UNL     1      18.792   5.099  19.503  0.00  0.00    +0.051 C 
ATOM     19  C   UNL     1      18.860   6.779  21.387  0.00  0.00    -0.030 A 
ATOM     20  C   UNL     1      19.519   5.805  20.618  0.00  0.00    -0.042 A 
ATOM     21  C   UNL     1      19.543   7.411  22.435  0.00  0.00    +0.005 A 
ATOM     22  C   UNL     1      20.837   5.450  20.931  0.00  0.00    +0.004 A 
ATOM     24  C   UNL     1      20.859   7.057  22.733  0.00  0.00    +0.000 A 
ATOM     25  C   UNL     1      21.504   6.077  21.983  0.00  0.00    +0.000 A 
ENDBRANCH  14   5
ENDBRANCH   8  14
BRANCH   9  15
ATOM     15  C   UNL     1      12.109   8.990  18.284  0.00  0.00    +0.124 C 
BRANCH  15   6
ATOM      6  N   UNL     1      12.604  10.012  17.378  0.00  0.00    -0.188 NA
ATOM     32  H   UNL     1      12.158  10.935  17.438  0.00  0.00    +0.148 HD
BRANCH   6   1
ATOM      1  S   UNL     1      13.267   9.586  15.858  0.00  0.00    +0.058 S 
ATOM      2  O   UNL     1      12.330   9.954  14.815  0.00  0.00    -0.153 OA
ATOM      3  O   UNL     1      13.799   8.238  15.919  0.00  0.00    -0.153 OA
BRANCH   1  23
ATOM     23  C   UNL     1      14.652  10.682  15.758  0.00  0.00    +0.105 A 
ATOM     26  C   UNL     1      15.515  10.618  14.664  0.00  0.00    +0.029 A 
ATOM     27  C   UNL     1      14.882  11.608  16.775  0.00  0.00    +0.029 A 
ATOM     28  C   UNL     1      16.608  11.480  14.587  0.00  0.00    +0.005 A 
ATOM     29  C   UNL     1      15.976  12.471  16.698  0.00  0.00    +0.005 A 
ATOM     30  C   UNL     1      16.839  12.407  15.604  0.00  0.00    -0.050 A 
ATOM     31  C   UNL     1      18.008  13.329  15.521  0.00  0.00    +0.044 C 
ENDBRANCH   1  23
ENDBRANCH   6   1
ENDBRANCH  15   6
ENDBRANCH   9  15
TORSDOF 6
ENDMDL
MODEL 6
REMARK VINA RESULT:      -6.9      2.972      6.806
REMARK  Name = 25389266
REMARK  7 active torsions:
REMARK  status: ('A' for Active; 'I' for Inactive)
REMARK    1  A    between atoms: S_1  and  N_6
REMARK    2  A    between atoms: S_1  and  C_23
REMARK    3  A    between atoms: N_5  and  C_14
REMARK    4  A    between atoms: N_6  and  C_15
REMARK    5  A    between atoms: C_8  and  C_14
REMARK    6  A    between atoms: C_9  and  C_15
REMARK    7  A    between atoms: C_30  and  C_31
REMARK                            x       y       z     vdW  Elec       q    Type
REMARK                         _______ _______ _______ _____ _____    ______ ____
ROOT
ATOM      4  N   UNL     1     -10.843 -10.478  16.882  0.00  0.00    -0.298 NA
ATOM      7  C   UNL     1      -9.417  -8.566  15.842  0.00  0.00    -0.003 C 
ATOM      8  C   UNL     1      -9.079  -9.925  15.187  0.00  0.00    +0.020 C 
ATOM      9  C   UNL     1     -10.161  -9.708  17.958  0.00  0.00    +0.072 C 
ATOM     10  C   UNL     1      -9.191  -8.662  17.362  0.00  0.00    +0.024 C 
ATOM     11  C   UNL     1      -9.844 -11.038  15.939  0.00  0.00    +0.089 C 
ATOM     12  C   UNL     1     -10.922  -8.324  15.618  0.00  0.00    +0.019 C 
ATOM     13  C   UNL     1     -11.713  -9.541  16.130  0.00  0.00    +0.085 C 
ENDROOT
BRANCH   8  14
ATOM     14  C   UNL     1      -7.580 -10.210  15.133  0.00  0.00    +0.089 C 
BRANCH  14   5
ATOM      5  N   UNL     1      -7.141 -10.434  13.756  0.00  0.00    -0.298 NA
ATOM     16  C   UNL     1      -8.019  -9.734  12.809  0.00  0.00    +0.089 C 
ATOM     17  C   UNL     1      -5.748  -9.989  13.583  0.00  0.00    +0.119 C 
ATOM     18  C   UNL     1      -7.672 -10.148  11.376  0.00  0.00    +0.051 C 
ATOM     19  C   UNL     1      -5.270 -10.061  12.149  0.00  0.00    -0.030 A 
ATOM     20  C   UNL     1      -6.194 -10.092  11.091  0.00  0.00    -0.042 A 
ATOM     21  C   UNL     1      -3.898 -10.031  11.868  0.00  0.00    +0.005 A 
ATOM     22  C   UNL     1      -5.732 -10.132   9.769  0.00  0.00    +0.004 A 
ATOM     24  C   UNL     1      -3.448 -10.062  10.548  0.00  0.00    +0.000 A 
ATOM     25  C   UNL     1      -4.364 -10.114   9.501  0.00  0.00    +0.000 A 
ENDBRANCH  14   5
ENDBRANCH   8  14
BRANCH   9  15
ATOM     15  C   UNL     1      -9.464 -10.615  18.974  0.00  0.00    +0.124 C 
BRANCH  15   6
ATOM      6  N   UNL     1      -8.029 -10.390  18.966  0.00  0.00    -0.188 NA
ATOM     32  H   UNL     1      -7.665  -9.761  18.241  0.00  0.00    +0.148 HD
BRANCH   6   1
ATOM      1  S   UNL     1      -6.952 -11.595  19.535  0.00  0.00    +0.058 S 
ATOM      2  O   UNL     1      -7.670 -12.849  19.655  0.00  0.00    -0.153 OA
ATOM      3  O   UNL     1      -6.192 -11.078  20.658  0.00  0.00    -0.153 OA
BRANCH   1  23
ATOM     23  C   UNL     1      -5.831 -11.736  18.176  0.00  0.00    +0.105 A 
ATOM     26  C   UNL     1      -5.855 -12.872  17.366  0.00  0.00    +0.029 A 
ATOM     27  C   UNL     1      -4.920 -10.713  17.914  0.00  0.00    +0.029 A 
ATOM     28  C   UNL     1      -4.969 -12.984  16.295  0.00  0.00    +0.005 A 
ATOM     29  C   UNL     1      -4.033 -10.825  16.843  0.00  0.00    +0.005 A 
ATOM     30  C   UNL     1      -4.057 -11.961  16.034  0.00  0.00    -0.050 A 
ATOM     31  C   UNL     1      -3.109 -12.082  14.889  0.00  0.00    +0.044 C 
ENDBRANCH   1  23
ENDBRANCH   6   1
ENDBRANCH  15   6
ENDBRANCH   9  15
TORSDOF 6
ENDMDL
MODEL 7
REMARK VINA RESULT:      -6.9     24.712     27.880
REMARK  Name = 25389266
REMARK  7 active torsions:
REMARK  status: ('A' for Active; 'I' for Inactive)
REMARK    1  A    between atoms: S_1  and  N_6
REMARK    2  A    between atoms: S_1  and  C_23
REMARK    3  A    between atoms: N_5  and  C_14
REMARK    4  A    between atoms: N_6  and  C_15
REMARK    5  A    between atoms: C_8  and  C_14
REMARK    6  A    between atoms: C_9  and  C_15
REMARK    7  A    between atoms: C_30  and  C_31
REMARK                            x       y       z     vdW  Elec       q    Type
REMARK                         _______ _______ _______ _____ _____    ______ ____
ROOT
ATOM      4  N   UNL     1      10.091   7.382   7.088  0.00  0.00    -0.298 NA
ATOM      7  C   UNL     1       9.515   5.163   5.856  0.00  0.00    -0.003 C 
ATOM      8  C   UNL     1      10.781   5.816   5.254  0.00  0.00    +0.020 C 
ATOM      9  C   UNL     1       8.670   7.399   6.645  0.00  0.00    +0.072 C 
ATOM     10  C   UNL     1       8.343   6.159   5.781  0.00  0.00    +0.024 C 
ATOM     11  C   UNL     1      10.990   7.193   5.923  0.00  0.00    +0.089 C 
ATOM     12  C   UNL     1       9.807   4.913   7.348  0.00  0.00    +0.019 C 
ATOM     13  C   UNL     1      10.271   6.227   8.001  0.00  0.00    +0.085 C 
ENDROOT
BRANCH   8  14
ATOM     14  C   UNL     1      10.733   5.930   3.732  0.00  0.00    +0.089 C 
BRANCH  14   5
ATOM      5  N   UNL     1      11.896   5.286   3.125  0.00  0.00    -0.298 NA
ATOM     16  C   UNL     1      11.487   4.143   2.298  0.00  0.00    +0.089 C 
ATOM     17  C   UNL     1      12.654   6.254   2.314  0.00  0.00    +0.119 C 
ATOM     18  C   UNL     1      12.723   3.361   1.843  0.00  0.00    +0.051 C 
ATOM     19  C   UNL     1      13.794   5.627   1.542  0.00  0.00    -0.030 A 
ATOM     20  C   UNL     1      13.802   4.247   1.279  0.00  0.00    -0.042 A 
ATOM     21  C   UNL     1      14.818   6.435   1.028  0.00  0.00    +0.005 A 
ATOM     22  C   UNL     1      14.853   3.689   0.540  0.00  0.00    +0.004 A 
ATOM     24  C   UNL     1      15.855   5.872   0.286  0.00  0.00    +0.000 A 
ATOM     25  C   UNL     1      15.873   4.500   0.044  0.00  0.00    +0.000 A 
ENDBRANCH  14   5
ENDBRANCH   8  14
BRANCH   9  15
ATOM     15  C   UNL     1       8.296   8.701   5.934  0.00  0.00    +0.124 C 
BRANCH  15   6
ATOM      6  N   UNL     1       7.595   8.426   4.691  0.00  0.00    -0.188 NA
ATOM     32  H   UNL     1       7.191   7.488   4.587  0.00  0.00    +0.148 HD
BRANCH   6   1
ATOM      1  S   UNL     1       8.040   9.225   3.243  0.00  0.00    +0.058 S 
ATOM      2  O   UNL     1       8.567   8.249   2.309  0.00  0.00    -0.153 OA
ATOM      3  O   UNL     1       8.802  10.419   3.559  0.00  0.00    -0.153 OA
BRANCH   1  23
ATOM     23  C   UNL     1       6.468   9.763   2.639  0.00  0.00    +0.105 A 
ATOM     26  C   UNL     1       6.127   9.560   1.302  0.00  0.00    +0.029 A 
ATOM     27  C   UNL     1       5.569  10.393   3.500  0.00  0.00    +0.029 A 
ATOM     28  C   UNL     1       4.887   9.987   0.826  0.00  0.00    +0.005 A 
ATOM     29  C   UNL     1       4.329  10.820   3.024  0.00  0.00    +0.005 A 
ATOM     30  C   UNL     1       3.989  10.617   1.687  0.00  0.00    -0.050 A 
ATOM     31  C   UNL     1       2.664  11.073   1.177  0.00  0.00    +0.044 C 
ENDBRANCH   1  23
ENDBRANCH   6   1
ENDBRANCH  15   6
ENDBRANCH   9  15
TORSDOF 6
ENDMDL
MODEL 8
REMARK VINA RESULT:      -6.8     25.866     28.932
REMARK  Name = 25389266
REMARK  7 active torsions:
REMARK  status: ('A' for Active; 'I' for Inactive)
REMARK    1  A    between atoms: S_1  and  N_6
REMARK    2  A    between atoms: S_1  and  C_23
REMARK    3  A    between atoms: N_5  and  C_14
REMARK    4  A    between atoms: N_6  and  C_15
REMARK    5  A    between atoms: C_8  and  C_14
REMARK    6  A    between atoms: C_9  and  C_15
REMARK    7  A    between atoms: C_30  and  C_31
REMARK                            x       y       z     vdW  Elec       q    Type
REMARK                         _______ _______ _______ _____ _____    ______ ____
ROOT
ATOM      4  N   UNL     1      14.792   6.337   0.249  0.00  0.00    -0.298 NA
ATOM      7  C   UNL     1      14.430   3.774  -0.016  0.00  0.00    -0.003 C 
ATOM      8  C   UNL     1      13.189   4.559  -0.499  0.00  0.00    +0.020 C 
ATOM      9  C   UNL     1      15.079   5.646   1.535  0.00  0.00    +0.072 C 
ATOM     10  C   UNL     1      14.729   4.143   1.449  0.00  0.00    +0.024 C 
ATOM     11  C   UNL     1      13.401   6.057  -0.185  0.00  0.00    +0.089 C 
ATOM     12  C   UNL     1      15.623   4.259  -0.862  0.00  0.00    +0.019 C 
ATOM     13  C   UNL     1      15.714   5.792  -0.778  0.00  0.00    +0.085 C 
ENDROOT
BRANCH   8  14
ATOM     14  C   UNL     1      11.880   4.040   0.093  0.00  0.00    +0.089 C 
BRANCH  14   5
ATOM      5  N   UNL     1      11.368   4.959   1.109  0.00  0.00    -0.298 NA
ATOM     16  C   UNL     1      10.191   5.683   0.611  0.00  0.00    +0.089 C 
ATOM     17  C   UNL     1      11.028   4.225   2.340  0.00  0.00    +0.119 C 
ATOM     18  C   UNL     1       9.799   6.782   1.603  0.00  0.00    +0.051 C 
ATOM     19  C   UNL     1      10.362   5.088   3.388  0.00  0.00    -0.030 A 
ATOM     20  C   UNL     1       9.734   6.291   3.025  0.00  0.00    -0.042 A 
ATOM     21  C   UNL     1      10.311   4.656   4.720  0.00  0.00    +0.005 A 
ATOM     22  C   UNL     1       9.099   7.064   4.006  0.00  0.00    +0.004 A 
ATOM     24  C   UNL     1       9.668   5.428   5.688  0.00  0.00    +0.000 A 
ATOM     25  C   UNL     1       9.064   6.631   5.331  0.00  0.00    +0.000 A 
ENDBRANCH  14   5
ENDBRANCH   8  14
BRANCH   9  15
ATOM     15  C   UNL     1      14.396   6.321   2.726  0.00  0.00    +0.124 C 
BRANCH  15   6
ATOM      6  N   UNL     1      15.351   6.579   3.791  0.00  0.00    -0.188 NA
ATOM     32  H   UNL     1      15.529   5.809   4.446  0.00  0.00    +0.148 HD
BRANCH   6   1
ATOM      1  S   UNL     1      15.570   8.163   4.404  0.00  0.00    +0.058 S 
ATOM      2  O   UNL     1      15.539   9.104   3.301  0.00  0.00    -0.153 OA
ATOM      3  O   UNL     1      16.677   8.174   5.341  0.00  0.00    -0.153 OA
BRANCH   1  23
ATOM     23  C   UNL     1      14.093   8.382   5.349  0.00  0.00    +0.105 A 
ATOM     26  C   UNL     1      13.650   7.367   6.198  0.00  0.00    +0.029 A 
ATOM     27  C   UNL     1      13.367   9.569   5.244  0.00  0.00    +0.029 A 
ATOM     28  C   UNL     1      12.483   7.539   6.942  0.00  0.00    +0.005 A 
ATOM     29  C   UNL     1      12.199   9.742   5.988  0.00  0.00    +0.005 A 
ATOM     30  C   UNL     1      11.758   8.726   6.837  0.00  0.00    -0.050 A 
ATOM     31  C   UNL     1      10.510   8.910   7.632  0.00  0.00    +0.044 C 
ENDBRANCH   1  23
ENDBRANCH   6   1
ENDBRANCH  15   6
ENDBRANCH   9  15
TORSDOF 6
ENDMDL
MODEL 9
REMARK VINA RESULT:      -6.8      3.479      7.660
REMARK  Name = 25389266
REMARK  7 active torsions:
REMARK  status: ('A' for Active; 'I' for Inactive)
REMARK    1  A    between atoms: S_1  and  N_6
REMARK    2  A    between atoms: S_1  and  C_23
REMARK    3  A    between atoms: N_5  and  C_14
REMARK    4  A    between atoms: N_6  and  C_15
REMARK    5  A    between atoms: C_8  and  C_14
REMARK    6  A    between atoms: C_9  and  C_15
REMARK    7  A    between atoms: C_30  and  C_31
REMARK                            x       y       z     vdW  Elec       q    Type
REMARK                         _______ _______ _______ _____ _____    ______ ____
ROOT
ATOM      4  N   UNL     1     -11.846  -8.790  16.246  0.00  0.00    -0.298 NA
ATOM      7  C   UNL     1      -9.367  -8.010  16.143  0.00  0.00    -0.003 C 
ATOM      8  C   UNL     1      -9.579  -9.287  15.298  0.00  0.00    +0.020 C 
ATOM      9  C   UNL     1     -11.315  -8.598  17.622  0.00  0.00    +0.072 C 
ATOM     10  C   UNL     1      -9.803  -8.279  17.594  0.00  0.00    +0.024 C 
ATOM     11  C   UNL     1     -11.025  -9.785  15.512  0.00  0.00    +0.089 C 
ATOM     12  C   UNL     1     -10.314  -6.936  15.573  0.00  0.00    +0.019 C 
ATOM     13  C   UNL     1     -11.747  -7.494  15.532  0.00  0.00    +0.085 C 
ENDROOT
BRANCH   8  14
ATOM     14  C   UNL     1      -8.557 -10.382  15.597  0.00  0.00    +0.089 C 
BRANCH  14   5
ATOM      5  N   UNL     1      -7.313 -10.147  14.865  0.00  0.00    -0.298 NA
ATOM     16  C   UNL     1      -6.451 -11.336  14.905  0.00  0.00    +0.089 C 
ATOM     17  C   UNL     1      -7.602  -9.776  13.469  0.00  0.00    +0.119 C 
ATOM     18  C   UNL     1      -5.077 -11.003  14.317  0.00  0.00    +0.051 C 
ATOM     19  C   UNL     1      -6.361  -9.653  12.612  0.00  0.00    -0.030 A 
ATOM     20  C   UNL     1      -5.164 -10.279  12.999  0.00  0.00    -0.042 A 
ATOM     21  C   UNL     1      -6.420  -8.965  11.393  0.00  0.00    +0.005 A 
ATOM     22  C   UNL     1      -4.033 -10.175  12.179  0.00  0.00    +0.004 A 
ATOM     24  C   UNL     1      -5.290  -8.875  10.580  0.00  0.00    +0.000 A 
ATOM     25  C   UNL     1      -4.098  -9.478  10.973  0.00  0.00    +0.000 A 
ENDBRANCH  14   5
ENDBRANCH   8  14
BRANCH   9  15
ATOM     15  C   UNL     1     -11.629  -9.781  18.541  0.00  0.00    +0.124 C 
BRANCH  15   6
ATOM      6  N   UNL     1     -10.425 -10.254  19.202  0.00  0.00    -0.188 NA
ATOM     32  H   UNL     1      -9.648  -9.587  19.277  0.00  0.00    +0.148 HD
BRANCH   6   1
ATOM      1  S   UNL     1      -9.998 -11.913  19.159  0.00  0.00    +0.058 S 
ATOM      2  O   UNL     1     -10.576 -12.518  17.975  0.00  0.00    -0.153 OA
ATOM      3  O   UNL     1     -10.220 -12.506  20.465  0.00  0.00    -0.153 OA
BRANCH   1  23
ATOM     23  C   UNL     1      -8.248 -11.821  18.926  0.00  0.00    +0.105 A 
ATOM     26  C   UNL     1      -7.561 -10.652  19.255  0.00  0.00    +0.029 A 
ATOM     27  C   UNL     1      -7.556 -12.916  18.410  0.00  0.00    +0.029 A 
ATOM     28  C   UNL     1      -6.181 -10.579  19.068  0.00  0.00    +0.005 A 
ATOM     29  C   UNL     1      -6.175 -12.843  18.223  0.00  0.00    +0.005 A 
ATOM     30  C   UNL     1      -5.488 -11.675  18.552  0.00  0.00    -0.050 A 
ATOM     31  C   UNL     1      -4.012 -11.596  18.352  0.00  0.00    +0.044 C 
ENDBRANCH   1  23
ENDBRANCH   6   1
ENDBRANCH  15   6
ENDBRANCH   9  15
TORSDOF 6
ENDMDL
MODEL 10
REMARK VINA RESULT:      -6.7      3.355      4.233
REMARK  Name = 25389266
REMARK  7 active torsions:
REMARK  status: ('A' for Active; 'I' for Inactive)
REMARK    1  A    between atoms: S_1  and  N_6
REMARK    2  A    between atoms: S_1  and  C_23
REMARK    3  A    between atoms: N_5  and  C_14
REMARK    4  A    between atoms: N_6  and  C_15
REMARK    5  A    between atoms: C_8  and  C_14
REMARK    6  A    between atoms: C_9  and  C_15
REMARK    7  A    between atoms: C_30  and  C_31
REMARK                            x       y       z     vdW  Elec       q    Type
REMARK                         _______ _______ _______ _____ _____    ______ ____
ROOT
ATOM      4  N   UNL     1      -4.405 -12.353  17.834  0.00  0.00    -0.298 NA
ATOM      7  C   UNL     1      -6.480 -11.098  18.776  0.00  0.00    -0.003 C 
ATOM      8  C   UNL     1      -6.886 -12.466  18.183  0.00  0.00    +0.020 C 
ATOM      9  C   UNL     1      -4.469 -10.978  17.269  0.00  0.00    +0.072 C 
ATOM     10  C   UNL     1      -5.771 -10.262  17.695  0.00  0.00    +0.024 C 
ATOM     11  C   UNL     1      -5.647 -13.099  17.512  0.00  0.00    +0.089 C 
ATOM     12  C   UNL     1      -5.448 -11.380  19.885  0.00  0.00    +0.019 C 
ATOM     13  C   UNL     1      -4.307 -12.237  19.310  0.00  0.00    +0.085 C 
ENDROOT
BRANCH   8  14
ATOM     14  C   UNL     1      -8.065 -12.376  17.216  0.00  0.00    +0.089 C 
BRANCH  14   5
ATOM      5  N   UNL     1      -7.606 -12.426  15.829  0.00  0.00    -0.298 NA
ATOM     16  C   UNL     1      -8.221 -13.552  15.115  0.00  0.00    +0.089 C 
ATOM     17  C   UNL     1      -7.914 -11.160  15.141  0.00  0.00    +0.119 C 
ATOM     18  C   UNL     1      -7.574 -13.711  13.736  0.00  0.00    +0.051 C 
ATOM     19  C   UNL     1      -7.593 -11.187  13.663  0.00  0.00    -0.030 A 
ATOM     20  C   UNL     1      -7.474 -12.411  12.983  0.00  0.00    -0.042 A 
ATOM     21  C   UNL     1      -7.476  -9.986  12.951  0.00  0.00    +0.005 A 
ATOM     22  C   UNL     1      -7.203 -12.416  11.608  0.00  0.00    +0.004 A 
ATOM     24  C   UNL     1      -7.215 -10.001  11.581  0.00  0.00    +0.000 A 
ATOM     25  C   UNL     1      -7.077 -11.214  10.911  0.00  0.00    +0.000 A 
ENDBRANCH  14   5
ENDBRANCH   8  14
BRANCH   9  15
ATOM     15  C   UNL     1      -4.282 -10.962  15.751  0.00  0.00    +0.124 C 
BRANCH  15   6
ATOM      6  N   UNL     1      -3.239 -10.023  15.370  0.00  0.00    -0.188 NA
ATOM     32  H   UNL     1      -3.537  -9.062  15.168  0.00  0.00    +0.148 HD
BRANCH   6   1
ATOM      1  S   UNL     1      -1.827 -10.565  14.566  0.00  0.00    +0.058 S 
ATOM      2  O   UNL     1      -1.237 -11.648  15.327  0.00  0.00    -0.153 OA
ATOM      3  O   UNL     1      -1.022  -9.424  14.174  0.00  0.00    -0.153 OA
BRANCH   1  23
ATOM     23  C   UNL     1      -2.506 -11.248  13.083  0.00  0.00    +0.105 A 
ATOM     26  C   UNL     1      -2.575 -12.632  12.920  0.00  0.00    +0.029 A 
ATOM     27  C   UNL     1      -2.969 -10.403  12.074  0.00  0.00    +0.029 A 
ATOM     28  C   UNL     1      -3.109 -13.170  11.749  0.00  0.00    +0.005 A 
ATOM     29  C   UNL     1      -3.503 -10.942  10.903  0.00  0.00    +0.005 A 
ATOM     30  C   UNL     1      -3.572 -12.325  10.741  0.00  0.00    -0.050 A 
ATOM     31  C   UNL     1      -4.142 -12.902   9.489  0.00  0.00    +0.044 C 
ENDBRANCH   1  23
ENDBRANCH   6   1
ENDBRANCH  15   6
ENDBRANCH   9  15
TORSDOF 6
ENDMDL
