MODEL 1
REMARK VINA RESULT:      -7.3      0.000      0.000
REMARK  Name = 11884511
REMARK  7 active torsions:
REMARK  status: ('A' for Active; 'I' for Inactive)
REMARK    1  A    between atoms: O_6  and  C_29
REMARK    2  A    between atoms: N_9  and  C_17
REMARK    3  A    between atoms: N_10  and  C_20
REMARK    4  A    between atoms: C_17  and  C_21
REMARK    5  A    between atoms: C_18  and  C_19
REMARK    6  A    between atoms: C_19  and  C_22
REMARK    7  A    between atoms: C_22  and  C_29
REMARK                            x       y       z     vdW  Elec       q    Type
REMARK                         _______ _______ _______ _____ _____    ______ ____
ROOT
ATOM      3  O   UNL     1      11.069   5.110   4.321  0.00  0.00    -0.273 OA
ATOM      4  O   UNL     1      13.511   8.038   1.587  0.00  0.00    -0.252 OA
ATOM      5  O   UNL     1       9.211   6.359   6.483  0.00  0.00    -0.276 OA
ATOM      8  N   UNL     1      11.497   6.720   6.446  0.00  0.00    -0.288 N 
ATOM      9  N   UNL     1      13.351   8.453   3.842  0.00  0.00    -0.275 N 
ATOM     10  N   UNL     1      12.307   6.517   2.900  0.00  0.00    -0.192 N 
ATOM     11  C   UNL     1      12.842   8.112   5.152  0.00  0.00    +0.109 C 
ATOM     12  C   UNL     1      11.553   7.319   5.111  0.00  0.00    +0.183 C 
ATOM     13  C   UNL     1      13.765   7.228   5.993  0.00  0.00    +0.044 C 
ATOM     14  C   UNL     1      12.820   6.706   7.070  0.00  0.00    +0.110 C 
ATOM     15  C   UNL     1      11.612   6.193   4.091  0.00  0.00    +0.250 C 
ATOM     16  C   UNL     1      13.100   7.686   2.699  0.00  0.00    +0.316 C 
ATOM     18  C   UNL     1      10.308   6.332   7.043  0.00  0.00    +0.217 C 
ENDROOT
BRANCH  10  20
ATOM      1 CL   UNL     1       9.861   5.012  -1.375  0.00  0.00    -0.081 Cl
ATOM      2  F   UNL     1      11.943   2.903  -1.319  0.00  0.00    -0.204 F 
ATOM     20  C   UNL     1      12.210   5.578   1.798  0.00  0.00    +0.047 A 
ATOM     23  C   UNL     1      11.202   5.733   0.857  0.00  0.00    +0.047 A 
ATOM     24  C   UNL     1      13.124   4.539   1.703  0.00  0.00    +0.027 A 
ATOM     27  C   UNL     1      11.108   4.829  -0.202  0.00  0.00    +0.078 A 
ATOM     28  C   UNL     1      13.030   3.636   0.645  0.00  0.00    +0.041 A 
ATOM     32  C   UNL     1      12.021   3.781  -0.308  0.00  0.00    +0.142 A 
ENDBRANCH  10  20
BRANCH   9  17
ATOM     17  C   UNL     1      14.201   9.635   3.766  0.00  0.00    +0.144 C 
BRANCH  17  21
ATOM     21  C   UNL     1      15.559   9.312   4.309  0.00  0.00    -0.030 A 
ATOM     25  C   UNL     1      16.007   9.939   5.468  0.00  0.00    +0.005 A 
ATOM     26  C   UNL     1      16.364   8.385   3.652  0.00  0.00    +0.005 A 
ATOM     30  C   UNL     1      17.272   9.639   5.974  0.00  0.00    +0.000 A 
ATOM     31  C   UNL     1      17.628   8.085   4.159  0.00  0.00    +0.000 A 
ATOM     33  C   UNL     1      18.082   8.711   5.319  0.00  0.00    +0.000 A 
ENDBRANCH  17  21
ENDBRANCH   9  17
BRANCH  18  19
ATOM     19  C   UNL     1      10.428   5.846   8.466  0.00  0.00    +0.107 C 
BRANCH  19  22
ATOM     22  C   UNL     1       9.093   5.306   8.939  0.00  0.00    +0.129 C 
BRANCH  22  29
ATOM      7  O   UNL     1      10.238   4.323  10.827  0.00  0.00    -0.251 OA
ATOM     29  C   UNL     1       9.197   4.738  10.333  0.00  0.00    +0.305 C 
BRANCH  29   6
ATOM      6  O   UNL     1       8.004   4.711  10.977  0.00  0.00    -0.481 OA
ATOM     34  H   UNL     1       7.792   3.817  11.320  0.00  0.00    +0.295 HD
ENDBRANCH  29   6
ENDBRANCH  22  29
ENDBRANCH  19  22
ENDBRANCH  18  19
TORSDOF 7
ENDMDL
MODEL 2
REMARK VINA RESULT:      -7.3      3.498      5.996
REMARK  Name = 11884511
REMARK  7 active torsions:
REMARK  status: ('A' for Active; 'I' for Inactive)
REMARK    1  A    between atoms: O_6  and  C_29
REMARK    2  A    between atoms: N_9  and  C_17
REMARK    3  A    between atoms: N_10  and  C_20
REMARK    4  A    between atoms: C_17  and  C_21
REMARK    5  A    between atoms: C_18  and  C_19
REMARK    6  A    between atoms: C_19  and  C_22
REMARK    7  A    between atoms: C_22  and  C_29
REMARK                            x       y       z     vdW  Elec       q    Type
REMARK                         _______ _______ _______ _____ _____    ______ ____
ROOT
ATOM      3  O   UNL     1      13.189   8.116   7.268  0.00  0.00    -0.273 OA
ATOM      4  O   UNL     1      14.622   8.305   2.805  0.00  0.00    -0.252 OA
ATOM      5  O   UNL     1      11.790   5.507   8.230  0.00  0.00    -0.276 OA
ATOM      8  N   UNL     1      10.954   6.805   6.506  0.00  0.00    -0.288 N 
ATOM      9  N   UNL     1      12.564   7.410   3.303  0.00  0.00    -0.275 N 
ATOM     10  N   UNL     1      13.953   8.275   5.050  0.00  0.00    -0.192 N 
ATOM     11  C   UNL     1      11.562   7.019   4.268  0.00  0.00    +0.109 C 
ATOM     12  C   UNL     1      12.130   6.715   5.638  0.00  0.00    +0.183 C 
ATOM     13  C   UNL     1      10.500   8.080   4.562  0.00  0.00    +0.044 C 
ATOM     14  C   UNL     1       9.887   7.572   5.863  0.00  0.00    +0.110 C 
ATOM     15  C   UNL     1      13.129   7.771   6.086  0.00  0.00    +0.250 C 
ATOM     16  C   UNL     1      13.767   8.032   3.656  0.00  0.00    +0.316 C 
ATOM     18  C   UNL     1      10.867   6.145   7.721  0.00  0.00    +0.217 C 
ENDROOT
BRANCH  10  20
ATOM      1 CL   UNL     1      18.888   8.607   6.484  0.00  0.00    -0.081 Cl
ATOM      2  F   UNL     1      18.237  11.498   6.547  0.00  0.00    -0.204 F 
ATOM     20  C   UNL     1      15.072   9.111   5.438  0.00  0.00    +0.047 A 
ATOM     23  C   UNL     1      16.293   8.522   5.737  0.00  0.00    +0.047 A 
ATOM     24  C   UNL     1      14.905  10.486   5.509  0.00  0.00    +0.027 A 
ATOM     27  C   UNL     1      17.369   9.327   6.112  0.00  0.00    +0.078 A 
ATOM     28  C   UNL     1      15.980  11.291   5.885  0.00  0.00    +0.041 A 
ATOM     32  C   UNL     1      17.213  10.711   6.187  0.00  0.00    +0.142 A 
ENDBRANCH  10  20
BRANCH   9  17
ATOM     17  C   UNL     1      12.241   7.169   1.902  0.00  0.00    +0.144 C 
BRANCH  17  21
ATOM     21  C   UNL     1      12.721   5.807   1.503  0.00  0.00    -0.030 A 
ATOM     25  C   UNL     1      12.120   4.677   2.048  0.00  0.00    +0.005 A 
ATOM     26  C   UNL     1      13.766   5.681   0.591  0.00  0.00    +0.005 A 
ATOM     30  C   UNL     1      12.567   3.407   1.677  0.00  0.00    +0.000 A 
ATOM     31  C   UNL     1      14.212   4.413   0.221  0.00  0.00    +0.000 A 
ATOM     33  C   UNL     1      13.613   3.276   0.764  0.00  0.00    +0.000 A 
ENDBRANCH  17  21
ENDBRANCH   9  17
BRANCH  18  19
ATOM     19  C   UNL     1       9.537   6.255   8.423  0.00  0.00    +0.107 C 
BRANCH  19  22
ATOM     22  C   UNL     1       9.063   4.879   8.845  0.00  0.00    +0.129 C 
BRANCH  22  29
ATOM      7  O   UNL     1      10.252   4.449  10.905  0.00  0.00    -0.251 OA
ATOM     29  C   UNL     1       9.195   4.690  10.336  0.00  0.00    +0.305 C 
BRANCH  29   6
ATOM      6  O   UNL     1       8.007   4.790  10.983  0.00  0.00    -0.481 OA
ATOM     34  H   UNL     1       7.984   4.241  11.795  0.00  0.00    +0.295 HD
ENDBRANCH  29   6
ENDBRANCH  22  29
ENDBRANCH  19  22
ENDBRANCH  18  19
TORSDOF 7
ENDMDL
MODEL 3
REMARK VINA RESULT:      -7.1     13.215     16.807
REMARK  Name = 11884511
REMARK  7 active torsions:
REMARK  status: ('A' for Active; 'I' for Inactive)
REMARK    1  A    between atoms: O_6  and  C_29
REMARK    2  A    between atoms: N_9  and  C_17
REMARK    3  A    between atoms: N_10  and  C_20
REMARK    4  A    between atoms: C_17  and  C_21
REMARK    5  A    between atoms: C_18  and  C_19
REMARK    6  A    between atoms: C_19  and  C_22
REMARK    7  A    between atoms: C_22  and  C_29
REMARK                            x       y       z     vdW  Elec       q    Type
REMARK                         _______ _______ _______ _____ _____    ______ ____
ROOT
ATOM      3  O   UNL     1      12.507   9.281  18.601  0.00  0.00    -0.273 OA
ATOM      4  O   UNL     1      14.867   7.824  22.385  0.00  0.00    -0.252 OA
ATOM      5  O   UNL     1      13.990   9.240  15.865  0.00  0.00    -0.276 OA
ATOM      8  N   UNL     1      14.732  10.490  17.665  0.00  0.00    -0.288 N 
ATOM      9  N   UNL     1      15.905   9.181  20.847  0.00  0.00    -0.275 N 
ATOM     10  N   UNL     1      13.620   8.545  20.537  0.00  0.00    -0.192 N 
ATOM     11  C   UNL     1      15.889   9.916  19.602  0.00  0.00    +0.109 C 
ATOM     12  C   UNL     1      14.901   9.371  18.593  0.00  0.00    +0.183 C 
ATOM     13  C   UNL     1      15.483  11.385  19.726  0.00  0.00    +0.044 C 
ATOM     14  C   UNL     1      15.147  11.750  18.283  0.00  0.00    +0.110 C 
ATOM     15  C   UNL     1      13.550   9.075  19.225  0.00  0.00    +0.250 C 
ATOM     16  C   UNL     1      14.797   8.483  21.340  0.00  0.00    +0.316 C 
ATOM     18  C   UNL     1      14.333  10.320  16.349  0.00  0.00    +0.217 C 
ENDROOT
BRANCH  10  20
ATOM      1 CL   UNL     1      10.610   4.487  21.536  0.00  0.00    -0.081 Cl
ATOM      2  F   UNL     1       8.899   6.585  22.741  0.00  0.00    -0.204 F 
ATOM     20  C   UNL     1      12.392   8.030  21.112  0.00  0.00    +0.047 A 
ATOM     23  C   UNL     1      12.128   6.668  21.053  0.00  0.00    +0.047 A 
ATOM     24  C   UNL     1      11.498   8.906  21.710  0.00  0.00    +0.027 A 
ATOM     27  C   UNL     1      10.946   6.174  21.605  0.00  0.00    +0.078 A 
ATOM     28  C   UNL     1      10.316   8.412  22.261  0.00  0.00    +0.041 A 
ATOM     32  C   UNL     1      10.040   7.045  22.208  0.00  0.00    +0.142 A 
ENDBRANCH  10  20
BRANCH   9  17
ATOM     17  C   UNL     1      17.144   9.238  21.616  0.00  0.00    +0.144 C 
BRANCH  17  21
ATOM     21  C   UNL     1      18.010   8.069  21.258  0.00  0.00    -0.030 A 
ATOM     25  C   UNL     1      19.265   7.935  21.844  0.00  0.00    +0.005 A 
ATOM     26  C   UNL     1      17.553   7.124  20.343  0.00  0.00    +0.005 A 
ATOM     30  C   UNL     1      20.072   6.846  21.511  0.00  0.00    +0.000 A 
ATOM     31  C   UNL     1      18.360   6.036  20.011  0.00  0.00    +0.000 A 
ATOM     33  C   UNL     1      19.619   5.897  20.594  0.00  0.00    +0.000 A 
ENDBRANCH  17  21
ENDBRANCH   9  17
BRANCH  18  19
ATOM     19  C   UNL     1      14.329  11.571  15.507  0.00  0.00    +0.107 C 
BRANCH  19  22
ATOM     22  C   UNL     1      15.638  11.686  14.751  0.00  0.00    +0.129 C 
BRANCH  22  29
ATOM      7  O   UNL     1      14.918  12.813  12.738  0.00  0.00    -0.251 OA
ATOM     29  C   UNL     1      15.401  11.820  13.267  0.00  0.00    +0.305 C 
BRANCH  29   6
ATOM      6  O   UNL     1      15.759  10.708  12.578  0.00  0.00    -0.481 OA
ATOM     34  H   UNL     1      15.676  10.834  11.609  0.00  0.00    +0.295 HD
ENDBRANCH  29   6
ENDBRANCH  22  29
ENDBRANCH  19  22
ENDBRANCH  18  19
TORSDOF 7
ENDMDL
MODEL 4
REMARK VINA RESULT:      -7.1     14.500     17.971
REMARK  Name = 11884511
REMARK  7 active torsions:
REMARK  status: ('A' for Active; 'I' for Inactive)
REMARK    1  A    between atoms: O_6  and  C_29
REMARK    2  A    between atoms: N_9  and  C_17
REMARK    3  A    between atoms: N_10  and  C_20
REMARK    4  A    between atoms: C_17  and  C_21
REMARK    5  A    between atoms: C_18  and  C_19
REMARK    6  A    between atoms: C_19  and  C_22
REMARK    7  A    between atoms: C_22  and  C_29
REMARK                            x       y       z     vdW  Elec       q    Type
REMARK                         _______ _______ _______ _____ _____    ______ ____
ROOT
ATOM      3  O   UNL     1      15.053   8.890  22.512  0.00  0.00    -0.273 OA
ATOM      4  O   UNL     1      12.138  11.261  19.704  0.00  0.00    -0.252 OA
ATOM      5  O   UNL     1      18.020   8.610  21.615  0.00  0.00    -0.276 OA
ATOM      8  N   UNL     1      16.257   7.796  20.357  0.00  0.00    -0.288 N 
ATOM      9  N   UNL     1      13.642   9.779  18.794  0.00  0.00    -0.275 N 
ATOM     10  N   UNL     1      13.539  10.083  21.165  0.00  0.00    -0.192 N 
ATOM     11  C   UNL     1      14.728   8.837  18.943  0.00  0.00    +0.109 C 
ATOM     12  C   UNL     1      15.568   9.075  20.180  0.00  0.00    +0.183 C 
ATOM     13  C   UNL     1      14.299   7.377  19.093  0.00  0.00    +0.044 C 
ATOM     14  C   UNL     1      15.561   6.723  19.645  0.00  0.00    +0.110 C 
ATOM     15  C   UNL     1      14.709   9.323  21.410  0.00  0.00    +0.250 C 
ATOM     16  C   UNL     1      13.030  10.422  19.876  0.00  0.00    +0.316 C 
ATOM     18  C   UNL     1      17.465   7.681  21.027  0.00  0.00    +0.217 C 
ENDROOT
BRANCH  10  20
ATOM      1 CL   UNL     1      13.113  13.445  25.044  0.00  0.00    -0.081 Cl
ATOM      2  F   UNL     1      10.677  11.851  25.600  0.00  0.00    -0.204 F 
ATOM     20  C   UNL     1      12.795  10.548  22.320  0.00  0.00    +0.047 A 
ATOM     23  C   UNL     1      13.260  11.642  23.037  0.00  0.00    +0.047 A 
ATOM     24  C   UNL     1      11.633   9.890  22.694  0.00  0.00    +0.027 A 
ATOM     27  C   UNL     1      12.545  12.088  24.148  0.00  0.00    +0.078 A 
ATOM     28  C   UNL     1      10.918  10.335  23.806  0.00  0.00    +0.041 A 
ATOM     32  C   UNL     1      11.375  11.435  24.533  0.00  0.00    +0.142 A 
ENDBRANCH  10  20
BRANCH   9  17
ATOM     17  C   UNL     1      13.162  10.004  17.435  0.00  0.00    +0.144 C 
BRANCH  17  21
ATOM     21  C   UNL     1      14.237  10.663  16.626  0.00  0.00    -0.030 A 
ATOM     25  C   UNL     1      14.822  11.840  17.084  0.00  0.00    +0.005 A 
ATOM     26  C   UNL     1      14.644  10.095  15.422  0.00  0.00    +0.005 A 
ATOM     30  C   UNL     1      15.823  12.455  16.331  0.00  0.00    +0.000 A 
ATOM     31  C   UNL     1      15.644  10.709  14.670  0.00  0.00    +0.000 A 
ATOM     33  C   UNL     1      16.234  11.889  15.124  0.00  0.00    +0.000 A 
ENDBRANCH  17  21
ENDBRANCH   9  17
BRANCH  18  19
ATOM     19  C   UNL     1      18.087   6.308  21.008  0.00  0.00    +0.107 C 
BRANCH  19  22
ATOM     22  C   UNL     1      19.598   6.428  21.018  0.00  0.00    +0.129 C 
BRANCH  22  29
ATOM      7  O   UNL     1      21.081   5.182  22.463  0.00  0.00    -0.251 OA
ATOM     29  C   UNL     1      20.171   5.993  22.344  0.00  0.00    +0.305 C 
BRANCH  29   6
ATOM      6  O   UNL     1      19.552   6.579  23.398  0.00  0.00    -0.481 OA
ATOM     34  H   UNL     1      20.175   6.762  24.134  0.00  0.00    +0.295 HD
ENDBRANCH  29   6
ENDBRANCH  22  29
ENDBRANCH  19  22
ENDBRANCH  18  19
TORSDOF 7
ENDMDL
MODEL 5
REMARK VINA RESULT:      -6.9      3.686      5.721
REMARK  Name = 11884511
REMARK  7 active torsions:
REMARK  status: ('A' for Active; 'I' for Inactive)
REMARK    1  A    between atoms: O_6  and  C_29
REMARK    2  A    between atoms: N_9  and  C_17
REMARK    3  A    between atoms: N_10  and  C_20
REMARK    4  A    between atoms: C_17  and  C_21
REMARK    5  A    between atoms: C_18  and  C_19
REMARK    6  A    between atoms: C_19  and  C_22
REMARK    7  A    between atoms: C_22  and  C_29
REMARK                            x       y       z     vdW  Elec       q    Type
REMARK                         _______ _______ _______ _____ _____    ______ ____
ROOT
ATOM      3  O   UNL     1      10.797   5.548   3.812  0.00  0.00    -0.273 OA
ATOM      4  O   UNL     1       9.531   8.150   0.119  0.00  0.00    -0.252 OA
ATOM      5  O   UNL     1       8.776   5.294   6.165  0.00  0.00    -0.276 OA
ATOM      8  N   UNL     1       9.638   7.328   5.478  0.00  0.00    -0.288 N 
ATOM      9  N   UNL     1       9.097   8.905   2.247  0.00  0.00    -0.275 N 
ATOM     10  N   UNL     1      10.222   6.819   1.918  0.00  0.00    -0.192 N 
ATOM     11  C   UNL     1       9.130   8.719   3.680  0.00  0.00    +0.109 C 
ATOM     12  C   UNL     1       9.150   7.264   4.099  0.00  0.00    +0.183 C 
ATOM     13  C   UNL     1      10.364   9.295   4.377  0.00  0.00    +0.044 C 
ATOM     14  C   UNL     1      10.329   8.593   5.730  0.00  0.00    +0.110 C 
ATOM     15  C   UNL     1      10.145   6.452   3.284  0.00  0.00    +0.250 C 
ATOM     16  C   UNL     1       9.625   7.979   1.341  0.00  0.00    +0.316 C 
ATOM     18  C   UNL     1       9.363   6.347   6.417  0.00  0.00    +0.217 C 
ENDROOT
BRANCH  10  20
ATOM      1 CL   UNL     1      14.718   5.668  -0.314  0.00  0.00    -0.081 Cl
ATOM      2  F   UNL     1      13.101   3.469  -1.469  0.00  0.00    -0.204 F 
ATOM     20  C   UNL     1      10.976   5.947   1.038  0.00  0.00    +0.047 A 
ATOM     23  C   UNL     1      12.323   6.200   0.816  0.00  0.00    +0.047 A 
ATOM     24  C   UNL     1      10.340   4.876   0.429  0.00  0.00    +0.027 A 
ATOM     27  C   UNL     1      13.048   5.363  -0.032  0.00  0.00    +0.078 A 
ATOM     28  C   UNL     1      11.064   4.039  -0.420  0.00  0.00    +0.041 A 
ATOM     32  C   UNL     1      12.419   4.282  -0.650  0.00  0.00    +0.142 A 
ENDBRANCH  10  20
BRANCH   9  17
ATOM     17  C   UNL     1       8.517  10.156   1.771  0.00  0.00    +0.144 C 
BRANCH  17  21
ATOM     21  C   UNL     1       7.023  10.044   1.762  0.00  0.00    -0.030 A 
ATOM     25  C   UNL     1       6.371   9.597   0.617  0.00  0.00    +0.005 A 
ATOM     26  C   UNL     1       6.297  10.389   2.899  0.00  0.00    +0.005 A 
ATOM     30  C   UNL     1       4.979   9.493   0.608  0.00  0.00    +0.000 A 
ATOM     31  C   UNL     1       4.906  10.285   2.889  0.00  0.00    +0.000 A 
ATOM     33  C   UNL     1       4.247   9.837   1.744  0.00  0.00    +0.000 A 
ENDBRANCH  17  21
ENDBRANCH   9  17
BRANCH  18  19
ATOM     19  C   UNL     1       9.844   6.638   7.816  0.00  0.00    +0.107 C 
BRANCH  19  22
ATOM     22  C   UNL     1       9.049   5.818   8.813  0.00  0.00    +0.129 C 
BRANCH  22  29
ATOM      7  O   UNL     1      10.167   4.622  10.591  0.00  0.00    -0.251 OA
ATOM     29  C   UNL     1       9.889   4.712   9.403  0.00  0.00    +0.305 C 
BRANCH  29   6
ATOM      6  O   UNL     1      10.327   3.834   8.466  0.00  0.00    -0.481 OA
ATOM     34  H   UNL     1       9.619   3.588   7.834  0.00  0.00    +0.295 HD
ENDBRANCH  29   6
ENDBRANCH  22  29
ENDBRANCH  19  22
ENDBRANCH  18  19
TORSDOF 7
ENDMDL
MODEL 6
REMARK VINA RESULT:      -6.6      2.608      6.180
REMARK  Name = 11884511
REMARK  7 active torsions:
REMARK  status: ('A' for Active; 'I' for Inactive)
REMARK    1  A    between atoms: O_6  and  C_29
REMARK    2  A    between atoms: N_9  and  C_17
REMARK    3  A    between atoms: N_10  and  C_20
REMARK    4  A    between atoms: C_17  and  C_21
REMARK    5  A    between atoms: C_18  and  C_19
REMARK    6  A    between atoms: C_19  and  C_22
REMARK    7  A    between atoms: C_22  and  C_29
REMARK                            x       y       z     vdW  Elec       q    Type
REMARK                         _______ _______ _______ _____ _____    ______ ____
ROOT
ATOM      3  O   UNL     1      14.413   7.172   3.292  0.00  0.00    -0.273 OA
ATOM      4  O   UNL     1      10.352   4.832   3.086  0.00  0.00    -0.252 OA
ATOM      5  O   UNL     1      15.627   7.720   6.105  0.00  0.00    -0.276 OA
ATOM      8  N   UNL     1      13.545   8.508   5.473  0.00  0.00    -0.288 N 
ATOM      9  N   UNL     1      10.639   6.478   4.665  0.00  0.00    -0.275 N 
ATOM     10  N   UNL     1      12.390   5.986   3.110  0.00  0.00    -0.192 N 
ATOM     11  C   UNL     1      11.464   7.477   5.306  0.00  0.00    +0.109 C 
ATOM     12  C   UNL     1      12.948   7.202   5.187  0.00  0.00    +0.183 C 
ATOM     13  C   UNL     1      11.327   8.890   4.735  0.00  0.00    +0.044 C 
ATOM     14  C   UNL     1      12.570   9.582   5.284  0.00  0.00    +0.110 C 
ATOM     15  C   UNL     1      13.339   6.803   3.773  0.00  0.00    +0.250 C 
ATOM     16  C   UNL     1      11.069   5.714   3.574  0.00  0.00    +0.316 C 
ATOM     18  C   UNL     1      14.834   8.652   5.960  0.00  0.00    +0.217 C 
ENDROOT
BRANCH  10  20
ATOM      1 CL   UNL     1      12.600   6.287  -2.027  0.00  0.00    -0.081 Cl
ATOM      2  F   UNL     1      13.939   3.662  -1.705  0.00  0.00    -0.204 F 
ATOM     20  C   UNL     1      12.794   5.385   1.854  0.00  0.00    +0.047 A 
ATOM     23  C   UNL     1      12.533   6.050   0.663  0.00  0.00    +0.047 A 
ATOM     24  C   UNL     1      13.432   4.154   1.860  0.00  0.00    +0.027 A 
ATOM     27  C   UNL     1      12.920   5.470  -0.545  0.00  0.00    +0.078 A 
ATOM     28  C   UNL     1      13.818   3.574   0.652  0.00  0.00    +0.041 A 
ATOM     32  C   UNL     1      13.562   4.233  -0.551  0.00  0.00    +0.142 A 
ENDBRANCH  10  20
BRANCH   9  17
ATOM     17  C   UNL     1       9.285   6.327   5.184  0.00  0.00    +0.144 C 
BRANCH  17  21
ATOM     21  C   UNL     1       9.341   5.827   6.595  0.00  0.00    -0.030 A 
ATOM     25  C   UNL     1       9.744   4.520   6.849  0.00  0.00    +0.005 A 
ATOM     26  C   UNL     1       8.991   6.674   7.644  0.00  0.00    +0.005 A 
ATOM     30  C   UNL     1       9.797   4.054   8.163  0.00  0.00    +0.000 A 
ATOM     31  C   UNL     1       9.044   6.208   8.957  0.00  0.00    +0.000 A 
ATOM     33  C   UNL     1       9.446   4.898   9.217  0.00  0.00    +0.000 A 
ENDBRANCH  17  21
ENDBRANCH   9  17
BRANCH  18  19
ATOM     19  C   UNL     1      15.240  10.061   6.309  0.00  0.00    +0.107 C 
BRANCH  19  22
ATOM     22  C   UNL     1      16.426  10.480   5.462  0.00  0.00    +0.129 C 
BRANCH  22  29
ATOM      7  O   UNL     1      18.194  11.176   6.956  0.00  0.00    -0.251 OA
ATOM     29  C   UNL     1      17.721  10.320   6.220  0.00  0.00    +0.305 C 
BRANCH  29   6
ATOM      6  O   UNL     1      18.323   9.128   5.979  0.00  0.00    -0.481 OA
ATOM     34  H   UNL     1      17.720   8.496   5.534  0.00  0.00    +0.295 HD
ENDBRANCH  29   6
ENDBRANCH  22  29
ENDBRANCH  19  22
ENDBRANCH  18  19
TORSDOF 7
ENDMDL
MODEL 7
REMARK VINA RESULT:      -6.6     23.885     25.893
REMARK  Name = 11884511
REMARK  7 active torsions:
REMARK  status: ('A' for Active; 'I' for Inactive)
REMARK    1  A    between atoms: O_6  and  C_29
REMARK    2  A    between atoms: N_9  and  C_17
REMARK    3  A    between atoms: N_10  and  C_20
REMARK    4  A    between atoms: C_17  and  C_21
REMARK    5  A    between atoms: C_18  and  C_19
REMARK    6  A    between atoms: C_19  and  C_22
REMARK    7  A    between atoms: C_22  and  C_29
REMARK                            x       y       z     vdW  Elec       q    Type
REMARK                         _______ _______ _______ _____ _____    ______ ____
ROOT
ATOM      3  O   UNL     1      -6.151  -8.603  10.019  0.00  0.00    -0.273 OA
ATOM      4  O   UNL     1      -4.532 -12.937   9.241  0.00  0.00    -0.252 OA
ATOM      5  O   UNL     1      -9.190  -8.093   9.582  0.00  0.00    -0.276 OA
ATOM      8  N   UNL     1      -7.794  -8.823   7.887  0.00  0.00    -0.288 N 
ATOM      9  N   UNL     1      -6.038 -12.003   7.776  0.00  0.00    -0.275 N 
ATOM     10  N   UNL     1      -5.272 -10.756   9.668  0.00  0.00    -0.192 N 
ATOM     11  C   UNL     1      -6.901 -10.913   7.382  0.00  0.00    +0.109 C 
ATOM     12  C   UNL     1      -7.357 -10.056   8.544  0.00  0.00    +0.183 C 
ATOM     13  C   UNL     1      -6.265  -9.897   6.432  0.00  0.00    +0.044 C 
ATOM     14  C   UNL     1      -7.212  -8.707   6.549  0.00  0.00    +0.110 C 
ATOM     15  C   UNL     1      -6.209  -9.711   9.480  0.00  0.00    +0.250 C 
ATOM     16  C   UNL     1      -5.218 -11.963   8.909  0.00  0.00    +0.316 C 
ATOM     18  C   UNL     1      -8.722  -7.962   8.450  0.00  0.00    +0.217 C 
ENDROOT
BRANCH  10  20
ATOM      1 CL   UNL     1      -0.636  -9.005  11.068  0.00  0.00    -0.081 Cl
ATOM      2  F   UNL     1      -1.482 -10.096  13.691  0.00  0.00    -0.204 F 
ATOM     20  C   UNL     1      -4.283 -10.580  10.714  0.00  0.00    +0.047 A 
ATOM     23  C   UNL     1      -3.081  -9.951  10.419  0.00  0.00    +0.047 A 
ATOM     24  C   UNL     1      -4.550 -11.046  11.993  0.00  0.00    +0.027 A 
ATOM     27  C   UNL     1      -2.129  -9.783  11.425  0.00  0.00    +0.078 A 
ATOM     28  C   UNL     1      -3.598 -10.879  12.998  0.00  0.00    +0.041 A 
ATOM     32  C   UNL     1      -2.387 -10.248  12.714  0.00  0.00    +0.142 A 
ENDBRANCH  10  20
BRANCH   9  17
ATOM     17  C   UNL     1      -6.017 -13.163   6.891  0.00  0.00    +0.144 C 
BRANCH  17  21
ATOM     21  C   UNL     1      -5.124 -12.885   5.721  0.00  0.00    -0.030 A 
ATOM     25  C   UNL     1      -3.759 -12.706   5.921  0.00  0.00    +0.005 A 
ATOM     26  C   UNL     1      -5.666 -12.809   4.440  0.00  0.00    +0.005 A 
ATOM     30  C   UNL     1      -2.927 -12.448   4.830  0.00  0.00    +0.000 A 
ATOM     31  C   UNL     1      -4.835 -12.551   3.351  0.00  0.00    +0.000 A 
ATOM     33  C   UNL     1      -3.466 -12.370   3.546  0.00  0.00    +0.000 A 
ENDBRANCH  17  21
ENDBRANCH   9  17
BRANCH  18  19
ATOM     19  C   UNL     1      -9.142  -6.804   7.579  0.00  0.00    +0.107 C 
BRANCH  19  22
ATOM     22  C   UNL     1      -8.952  -5.501   8.329  0.00  0.00    +0.129 C 
BRANCH  22  29
ATOM      7  O   UNL     1     -11.358  -5.420   8.537  0.00  0.00    -0.251 OA
ATOM     29  C   UNL     1     -10.278  -4.855   8.647  0.00  0.00    +0.305 C 
BRANCH  29   6
ATOM      6  O   UNL     1     -10.148  -3.566   9.048  0.00  0.00    -0.481 OA
ATOM     34  H   UNL     1      -9.276  -3.192   8.803  0.00  0.00    +0.295 HD
ENDBRANCH  29   6
ENDBRANCH  22  29
ENDBRANCH  19  22
ENDBRANCH  18  19
TORSDOF 7
ENDMDL
MODEL 8
REMARK VINA RESULT:      -6.5     15.205     17.802
REMARK  Name = 11884511
REMARK  7 active torsions:
REMARK  status: ('A' for Active; 'I' for Inactive)
REMARK    1  A    between atoms: O_6  and  C_29
REMARK    2  A    between atoms: N_9  and  C_17
REMARK    3  A    between atoms: N_10  and  C_20
REMARK    4  A    between atoms: C_17  and  C_21
REMARK    5  A    between atoms: C_18  and  C_19
REMARK    6  A    between atoms: C_19  and  C_22
REMARK    7  A    between atoms: C_22  and  C_29
REMARK                            x       y       z     vdW  Elec       q    Type
REMARK                         _______ _______ _______ _____ _____    ______ ____
ROOT
ATOM      3  O   UNL     1      13.322   9.969  19.683  0.00  0.00    -0.273 OA
ATOM      4  O   UNL     1      13.382  14.620  20.293  0.00  0.00    -0.252 OA
ATOM      5  O   UNL     1      10.559   8.536  19.744  0.00  0.00    -0.276 OA
ATOM      8  N   UNL     1      11.378   9.739  21.543  0.00  0.00    -0.288 N 
ATOM      9  N   UNL     1      12.027  13.315  21.614  0.00  0.00    -0.275 N 
ATOM     10  N   UNL     1      13.427  12.301  19.960  0.00  0.00    -0.192 N 
ATOM     11  C   UNL     1      11.492  12.024  21.980  0.00  0.00    +0.109 C 
ATOM     12  C   UNL     1      11.511  11.020  20.847  0.00  0.00    +0.183 C 
ATOM     13  C   UNL     1      12.253  11.301  23.094  0.00  0.00    +0.044 C 
ATOM     14  C   UNL     1      11.750   9.869  22.953  0.00  0.00    +0.110 C 
ATOM     15  C   UNL     1      12.841  11.021  20.110  0.00  0.00    +0.250 C 
ATOM     16  C   UNL     1      12.986  13.492  20.611  0.00  0.00    +0.316 C 
ATOM     18  C   UNL     1      10.861   8.606  20.936  0.00  0.00    +0.217 C 
ENDROOT
BRANCH  10  20
ATOM      1 CL   UNL     1      18.548  12.403  19.419  0.00  0.00    -0.081 Cl
ATOM      2  F   UNL     1      17.818  12.720  16.564  0.00  0.00    -0.204 F 
ATOM     20  C   UNL     1      14.574  12.408  19.079  0.00  0.00    +0.047 A 
ATOM     23  C   UNL     1      15.854  12.359  19.614  0.00  0.00    +0.047 A 
ATOM     24  C   UNL     1      14.375  12.561  17.714  0.00  0.00    +0.027 A 
ATOM     27  C   UNL     1      16.956  12.463  18.766  0.00  0.00    +0.078 A 
ATOM     28  C   UNL     1      15.477  12.666  16.866  0.00  0.00    +0.041 A 
ATOM     32  C   UNL     1      16.768  12.617  17.392  0.00  0.00    +0.142 A 
ENDBRANCH  10  20
BRANCH   9  17
ATOM     17  C   UNL     1      11.549  14.456  22.388  0.00  0.00    +0.144 C 
BRANCH  17  21
ATOM     21  C   UNL     1      10.141  14.777  21.991  0.00  0.00    -0.030 A 
ATOM     25  C   UNL     1       9.121  14.689  22.932  0.00  0.00    +0.005 A 
ATOM     26  C   UNL     1       9.863  15.163  20.682  0.00  0.00    +0.005 A 
ATOM     30  C   UNL     1       7.809  14.989  22.563  0.00  0.00    +0.000 A 
ATOM     31  C   UNL     1       8.552  15.462  20.313  0.00  0.00    +0.000 A 
ATOM     33  C   UNL     1       7.525  15.375  21.252  0.00  0.00    +0.000 A 
ENDBRANCH  17  21
ENDBRANCH   9  17
BRANCH  18  19
ATOM     19  C   UNL     1      10.688   7.411  21.840  0.00  0.00    +0.107 C 
BRANCH  19  22
ATOM     22  C   UNL     1      11.555   6.267  21.352  0.00  0.00    +0.129 C 
BRANCH  22  29
ATOM      7  O   UNL     1      13.746   7.200  21.766  0.00  0.00    -0.251 OA
ATOM     29  C   UNL     1      12.932   6.751  20.969  0.00  0.00    +0.305 C 
BRANCH  29   6
ATOM      6  O   UNL     1      13.166   6.660  19.637  0.00  0.00    -0.481 OA
ATOM     34  H   UNL     1      14.125   6.607  19.436  0.00  0.00    +0.295 HD
ENDBRANCH  29   6
ENDBRANCH  22  29
ENDBRANCH  19  22
ENDBRANCH  18  19
TORSDOF 7
ENDMDL
MODEL 9
REMARK VINA RESULT:      -6.4      3.558      5.527
REMARK  Name = 11884511
REMARK  7 active torsions:
REMARK  status: ('A' for Active; 'I' for Inactive)
REMARK    1  A    between atoms: O_6  and  C_29
REMARK    2  A    between atoms: N_9  and  C_17
REMARK    3  A    between atoms: N_10  and  C_20
REMARK    4  A    between atoms: C_17  and  C_21
REMARK    5  A    between atoms: C_18  and  C_19
REMARK    6  A    between atoms: C_19  and  C_22
REMARK    7  A    between atoms: C_22  and  C_29
REMARK                            x       y       z     vdW  Elec       q    Type
REMARK                         _______ _______ _______ _____ _____    ______ ____
ROOT
ATOM      3  O   UNL     1       8.973   8.118   5.093  0.00  0.00    -0.273 OA
ATOM      4  O   UNL     1      11.521   8.927   1.238  0.00  0.00    -0.252 OA
ATOM      5  O   UNL     1      10.493   7.354   7.700  0.00  0.00    -0.276 OA
ATOM      8  N   UNL     1      10.619   6.086   5.768  0.00  0.00    -0.288 N 
ATOM      9  N   UNL     1      12.044   7.147   2.596  0.00  0.00    -0.275 N 
ATOM     10  N   UNL     1      10.186   8.558   3.127  0.00  0.00    -0.192 N 
ATOM     11  C   UNL     1      11.812   6.362   3.787  0.00  0.00    +0.109 C 
ATOM     12  C   UNL     1      11.153   7.142   4.905  0.00  0.00    +0.183 C 
ATOM     13  C   UNL     1      10.875   5.167   3.600  0.00  0.00    +0.044 C 
ATOM     14  C   UNL     1      10.497   4.824   5.037  0.00  0.00    +0.110 C 
ATOM     15  C   UNL     1       9.985   7.976   4.403  0.00  0.00    +0.250 C 
ATOM     16  C   UNL     1      11.259   8.249   2.239  0.00  0.00    +0.316 C 
ATOM     18  C   UNL     1      10.378   6.273   7.120  0.00  0.00    +0.217 C 
ENDROOT
BRANCH  10  20
ATOM      1 CL   UNL     1       5.844   9.593   0.557  0.00  0.00    -0.081 Cl
ATOM      2  F   UNL     1       6.479  12.351   1.436  0.00  0.00    -0.204 F 
ATOM     20  C   UNL     1       9.217   9.543   2.687  0.00  0.00    +0.047 A 
ATOM     23  C   UNL     1       8.128   9.138   1.926  0.00  0.00    +0.047 A 
ATOM     24  C   UNL     1       9.393  10.876   3.029  0.00  0.00    +0.027 A 
ATOM     27  C   UNL     1       7.197  10.085   1.501  0.00  0.00    +0.078 A 
ATOM     28  C   UNL     1       8.463  11.823   2.603  0.00  0.00    +0.041 A 
ATOM     32  C   UNL     1       7.365  11.428   1.839  0.00  0.00    +0.142 A 
ENDBRANCH  10  20
BRANCH   9  17
ATOM     17  C   UNL     1      13.130   6.703   1.730  0.00  0.00    +0.144 C 
BRANCH  17  21
ATOM     21  C   UNL     1      12.650   5.581   0.860  0.00  0.00    -0.030 A 
ATOM     25  C   UNL     1      13.297   4.350   0.903  0.00  0.00    +0.005 A 
ATOM     26  C   UNL     1      11.560   5.777   0.016  0.00  0.00    +0.005 A 
ATOM     30  C   UNL     1      12.850   3.304   0.093  0.00  0.00    +0.000 A 
ATOM     31  C   UNL     1      11.115   4.732  -0.793  0.00  0.00    +0.000 A 
ATOM     33  C   UNL     1      11.759   3.496  -0.755  0.00  0.00    +0.000 A 
ENDBRANCH  17  21
ENDBRANCH   9  17
BRANCH  18  19
ATOM     19  C   UNL     1       9.943   5.043   7.875  0.00  0.00    +0.107 C 
BRANCH  19  22
ATOM     22  C   UNL     1       8.947   5.427   8.952  0.00  0.00    +0.129 C 
BRANCH  22  29
ATOM      7  O   UNL     1      10.422   4.658  10.704  0.00  0.00    -0.251 OA
ATOM     29  C   UNL     1       9.284   4.769  10.267  0.00  0.00    +0.305 C 
BRANCH  29   6
ATOM      6  O   UNL     1       8.190   4.289  10.908  0.00  0.00    -0.481 OA
ATOM     34  H   UNL     1       8.186   3.309  10.943  0.00  0.00    +0.295 HD
ENDBRANCH  29   6
ENDBRANCH  22  29
ENDBRANCH  19  22
ENDBRANCH  18  19
TORSDOF 7
ENDMDL
MODEL 10
REMARK VINA RESULT:      -6.4      3.618      8.102
REMARK  Name = 11884511
REMARK  7 active torsions:
REMARK  status: ('A' for Active; 'I' for Inactive)
REMARK    1  A    between atoms: O_6  and  C_29
REMARK    2  A    between atoms: N_9  and  C_17
REMARK    3  A    between atoms: N_10  and  C_20
REMARK    4  A    between atoms: C_17  and  C_21
REMARK    5  A    between atoms: C_18  and  C_19
REMARK    6  A    between atoms: C_19  and  C_22
REMARK    7  A    between atoms: C_22  and  C_29
REMARK                            x       y       z     vdW  Elec       q    Type
REMARK                         _______ _______ _______ _____ _____    ______ ____
ROOT
ATOM      3  O   UNL     1      13.908   6.341   2.410  0.00  0.00    -0.273 OA
ATOM      4  O   UNL     1      11.220   8.302   5.718  0.00  0.00    -0.252 OA
ATOM      5  O   UNL     1      12.640   5.867  -0.392  0.00  0.00    -0.276 OA
ATOM      8  N   UNL     1      11.798   4.901   1.535  0.00  0.00    -0.288 N 
ATOM      9  N   UNL     1      10.344   6.667   4.359  0.00  0.00    -0.275 N 
ATOM     10  N   UNL     1      12.627   7.339   4.111  0.00  0.00    -0.192 N 
ATOM     11  C   UNL     1      10.478   5.738   3.260  0.00  0.00    +0.109 C 
ATOM     12  C   UNL     1      11.525   6.150   2.247  0.00  0.00    +0.183 C 
ATOM     13  C   UNL     1      10.917   4.328   3.657  0.00  0.00    +0.044 C 
ATOM     14  C   UNL     1      11.374   3.744   2.324  0.00  0.00    +0.110 C 
ATOM     15  C   UNL     1      12.814   6.603   2.916  0.00  0.00    +0.250 C 
ATOM     16  C   UNL     1      11.389   7.483   4.807  0.00  0.00    +0.316 C 
ATOM     18  C   UNL     1      12.293   4.868   0.241  0.00  0.00    +0.217 C 
ENDROOT
BRANCH  10  20
ATOM      1 CL   UNL     1      15.747  11.436   4.197  0.00  0.00    -0.081 Cl
ATOM      2  F   UNL     1      17.101   9.833   6.291  0.00  0.00    -0.204 F 
ATOM     20  C   UNL     1      13.791   7.993   4.678  0.00  0.00    +0.047 A 
ATOM     23  C   UNL     1      14.160   9.249   4.217  0.00  0.00    +0.047 A 
ATOM     24  C   UNL     1      14.519   7.352   5.669  0.00  0.00    +0.027 A 
ATOM     27  C   UNL     1      15.280   9.878   4.762  0.00  0.00    +0.078 A 
ATOM     28  C   UNL     1      15.640   7.980   6.213  0.00  0.00    +0.041 A 
ATOM     32  C   UNL     1      16.020   9.243   5.759  0.00  0.00    +0.142 A 
ENDBRANCH  10  20
BRANCH   9  17
ATOM     17  C   UNL     1       9.052   6.686   5.036  0.00  0.00    +0.144 C 
BRANCH  17  21
ATOM     21  C   UNL     1       9.205   6.141   6.423  0.00  0.00    -0.030 A 
ATOM     25  C   UNL     1       9.652   4.836   6.607  0.00  0.00    +0.005 A 
ATOM     26  C   UNL     1       8.899   6.943   7.520  0.00  0.00    +0.005 A 
ATOM     30  C   UNL     1       9.794   4.328   7.899  0.00  0.00    +0.000 A 
ATOM     31  C   UNL     1       9.042   6.436   8.810  0.00  0.00    +0.000 A 
ATOM     33  C   UNL     1       9.489   5.128   9.001  0.00  0.00    +0.000 A 
ENDBRANCH  17  21
ENDBRANCH   9  17
BRANCH  18  19
ATOM     19  C   UNL     1      12.400   3.497  -0.377  0.00  0.00    +0.107 C 
BRANCH  19  22
ATOM     22  C   UNL     1      13.197   3.573  -1.664  0.00  0.00    +0.129 C 
BRANCH  22  29
ATOM      7  O   UNL     1      11.194   2.839  -2.799  0.00  0.00    -0.251 OA
ATOM     29  C   UNL     1      12.399   3.047  -2.832  0.00  0.00    +0.305 C 
BRANCH  29   6
ATOM      6  O   UNL     1      13.168   2.804  -3.922  0.00  0.00    -0.481 OA
ATOM     34  H   UNL     1      12.643   2.443  -4.668  0.00  0.00    +0.295 HD
ENDBRANCH  29   6
ENDBRANCH  22  29
ENDBRANCH  19  22
ENDBRANCH  18  19
TORSDOF 7
ENDMDL
