MODEL 1
REMARK VINA RESULT:      -7.6      0.000      0.000
REMARK  Name = 11911829
REMARK  10 active torsions:
REMARK  status: ('A' for Active; 'I' for Inactive)
REMARK    1  A    between atoms: O_4  and  C_20
REMARK    2  A    between atoms: O_4  and  C_24
REMARK    3  A    between atoms: N_5  and  C_12
REMARK    4  A    between atoms: N_6  and  C_13
REMARK    5  A    between atoms: N_9  and  C_19
REMARK    6  A    between atoms: N_9  and  C_21
REMARK    7  A    between atoms: N_9  and  C_22
REMARK    8  A    between atoms: C_17  and  C_20
REMARK    9  A    between atoms: C_18  and  C_19
REMARK   10  A    between atoms: C_21  and  C_23
REMARK                            x       y       z     vdW  Elec       q    Type
REMARK                         _______ _______ _______ _____ _____    ______ ____
ROOT
ATOM      1  O   UNL     1     -17.689   3.847  26.981  0.00  0.00    -0.370 OA
ATOM      2  O   UNL     1     -16.511   1.844  24.862  0.00  0.00    -0.370 OA
ATOM     10  C   UNL     1     -16.116   2.241  26.189  0.00  0.00    +0.175 C 
ATOM     11  C   UNL     1     -16.420   3.721  26.322  0.00  0.00    +0.171 C 
ATOM     12  C   UNL     1     -17.008   1.570  27.215  0.00  0.00    +0.166 C 
ATOM     13  C   UNL     1     -16.519   4.212  24.895  0.00  0.00    +0.130 C 
ATOM     14  C   UNL     1     -18.172   2.547  27.348  0.00  0.00    +0.190 C 
ATOM     15  C   UNL     1     -17.031   2.985  24.165  0.00  0.00    +0.185 C 
ENDROOT
BRANCH  12   5
ATOM      5  N   UNL     1     -16.302   1.272  28.463  0.00  0.00    -0.244 N 
ATOM      7  N   UNL     1     -16.569   0.196  29.196  0.00  0.00    -0.065 NA
ATOM      8  N   UNL     1     -15.752   0.224  30.260  0.00  0.00    -0.133 NA
ATOM     16  C   UNL     1     -15.306   1.969  29.089  0.00  0.00    +0.135 A 
ATOM     18  C   UNL     1     -14.940   1.317  30.240  0.00  0.00    +0.097 A 
BRANCH  18  19
ATOM     19  C   UNL     1     -13.945   1.616  31.268  0.00  0.00    +0.143 C 
BRANCH  19   9
ATOM      9  N   UNL     1     -14.457   2.482  32.348  0.00  0.00    -0.295 NA
ATOM     22  C   UNL     1     -14.608   1.709  33.575  0.00  0.00    +0.105 C 
BRANCH   9  21
ATOM     21  C   UNL     1     -13.557   3.611  32.549  0.00  0.00    +0.119 C 
BRANCH  21  23
ATOM     23  C   UNL     1     -14.230   4.924  32.247  0.00  0.00    -0.033 A 
ATOM     25  C   UNL     1     -15.381   4.952  31.460  0.00  0.00    +0.005 A 
ATOM     26  C   UNL     1     -13.702   6.111  32.755  0.00  0.00    +0.005 A 
ATOM     29  C   UNL     1     -16.004   6.169  31.180  0.00  0.00    +0.000 A 
ATOM     30  C   UNL     1     -14.325   7.327  32.476  0.00  0.00    +0.000 A 
ATOM     31  C   UNL     1     -15.476   7.356  31.688  0.00  0.00    +0.000 A 
ENDBRANCH  21  23
ENDBRANCH   9  21
ENDBRANCH  19   9
ENDBRANCH  18  19
ENDBRANCH  12   5
BRANCH  13   6
ATOM      3  O   UNL     1     -15.741   4.538  22.123  0.00  0.00    -0.272 OA
ATOM      6  N   UNL     1     -15.230   4.620  24.391  0.00  0.00    -0.305 N 
ATOM     17  C   UNL     1     -14.950   4.750  23.038  0.00  0.00    +0.251 C 
ATOM     35  H   UNL     1     -14.486   4.799  25.059  0.00  0.00    +0.149 HD
BRANCH  17  20
ATOM     20  C   UNL     1     -13.522   5.193  22.800  0.00  0.00    +0.324 C 
BRANCH  20   4
ATOM      4  O   UNL     1     -13.317   5.504  21.438  0.00  0.00    -0.483 OA
BRANCH   4  24
ATOM     24  C   UNL     1     -12.861   6.768  21.145  0.00  0.00    +0.121 A 
ATOM     27  C   UNL     1     -11.698   6.933  20.392  0.00  0.00    +0.045 A 
ATOM     28  C   UNL     1     -13.562   7.884  21.600  0.00  0.00    +0.045 A 
ATOM     32  C   UNL     1     -11.236   8.215  20.095  0.00  0.00    +0.004 A 
ATOM     33  C   UNL     1     -13.100   9.166  21.303  0.00  0.00    +0.004 A 
ATOM     34  C   UNL     1     -11.937   9.332  20.550  0.00  0.00    +0.000 A 
ENDBRANCH   4  24
ENDBRANCH  20   4
ENDBRANCH  17  20
ENDBRANCH  13   6
TORSDOF 9
ENDMDL
MODEL 2
REMARK VINA RESULT:      -7.5      2.151     10.035
REMARK  Name = 11911829
REMARK  10 active torsions:
REMARK  status: ('A' for Active; 'I' for Inactive)
REMARK    1  A    between atoms: O_4  and  C_20
REMARK    2  A    between atoms: O_4  and  C_24
REMARK    3  A    between atoms: N_5  and  C_12
REMARK    4  A    between atoms: N_6  and  C_13
REMARK    5  A    between atoms: N_9  and  C_19
REMARK    6  A    between atoms: N_9  and  C_21
REMARK    7  A    between atoms: N_9  and  C_22
REMARK    8  A    between atoms: C_17  and  C_20
REMARK    9  A    between atoms: C_18  and  C_19
REMARK   10  A    between atoms: C_21  and  C_23
REMARK                            x       y       z     vdW  Elec       q    Type
REMARK                         _______ _______ _______ _____ _____    ______ ____
ROOT
ATOM      1  O   UNL     1     -17.437   1.704  23.641  0.00  0.00    -0.370 OA
ATOM      2  O   UNL     1     -18.108   3.998  25.684  0.00  0.00    -0.370 OA
ATOM     10  C   UNL     1     -17.005   3.745  24.793  0.00  0.00    +0.175 C 
ATOM     11  C   UNL     1     -16.768   2.247  24.789  0.00  0.00    +0.171 C 
ATOM     12  C   UNL     1     -17.406   4.076  23.369  0.00  0.00    +0.166 C 
ATOM     13  C   UNL     1     -17.429   1.761  26.060  0.00  0.00    +0.130 C 
ATOM     14  C   UNL     1     -18.013   2.768  22.871  0.00  0.00    +0.190 C 
ATOM     15  C   UNL     1     -18.561   2.755  26.236  0.00  0.00    +0.185 C 
ENDROOT
BRANCH  12   5
ATOM      5  N   UNL     1     -16.285   4.583  22.573  0.00  0.00    -0.244 N 
ATOM      7  N   UNL     1     -16.377   4.798  21.266  0.00  0.00    -0.065 NA
ATOM      8  N   UNL     1     -15.186   5.257  20.852  0.00  0.00    -0.133 NA
ATOM     16  C   UNL     1     -15.018   4.915  22.965  0.00  0.00    +0.135 A 
ATOM     18  C   UNL     1     -14.298   5.348  21.880  0.00  0.00    +0.097 A 
BRANCH  18  19
ATOM     19  C   UNL     1     -12.921   5.816  21.735  0.00  0.00    +0.143 C 
BRANCH  19   9
ATOM      9  N   UNL     1     -12.799   7.032  20.907  0.00  0.00    -0.295 NA
ATOM     22  C   UNL     1     -13.447   8.155  21.573  0.00  0.00    +0.105 C 
BRANCH   9  21
ATOM     21  C   UNL     1     -11.392   7.318  20.650  0.00  0.00    +0.119 C 
BRANCH  21  23
ATOM     23  C   UNL     1     -11.210   8.171  19.422  0.00  0.00    -0.033 A 
ATOM     25  C   UNL     1     -10.446   9.336  19.490  0.00  0.00    +0.005 A 
ATOM     26  C   UNL     1     -11.804   7.797  18.217  0.00  0.00    +0.005 A 
ATOM     29  C   UNL     1     -10.277  10.127  18.353  0.00  0.00    +0.000 A 
ATOM     30  C   UNL     1     -11.635   8.586  17.080  0.00  0.00    +0.000 A 
ATOM     31  C   UNL     1     -10.872   9.752  17.149  0.00  0.00    +0.000 A 
ENDBRANCH  21  23
ENDBRANCH   9  21
ENDBRANCH  19   9
ENDBRANCH  18  19
ENDBRANCH  12   5
BRANCH  13   6
ATOM      3  O   UNL     1     -17.555   0.197  28.496  0.00  0.00    -0.272 OA
ATOM      6  N   UNL     1     -16.515   1.805  27.176  0.00  0.00    -0.305 N 
ATOM     17  C   UNL     1     -16.658   1.013  28.305  0.00  0.00    +0.251 C 
ATOM     35  H   UNL     1     -15.744   2.465  27.140  0.00  0.00    +0.149 HD
BRANCH  17  20
ATOM     20  C   UNL     1     -15.556   1.268  29.312  0.00  0.00    +0.324 C 
BRANCH  20   4
ATOM      4  O   UNL     1     -14.955   2.526  29.085  0.00  0.00    -0.483 OA
BRANCH   4  24
ATOM     24  C   UNL     1     -14.593   3.257  30.192  0.00  0.00    +0.121 A 
ATOM     27  C   UNL     1     -15.378   4.335  30.603  0.00  0.00    +0.045 A 
ATOM     28  C   UNL     1     -13.444   2.919  30.905  0.00  0.00    +0.045 A 
ATOM     32  C   UNL     1     -15.011   5.076  31.726  0.00  0.00    +0.004 A 
ATOM     33  C   UNL     1     -13.076   3.660  32.028  0.00  0.00    +0.004 A 
ATOM     34  C   UNL     1     -13.860   4.739  32.439  0.00  0.00    +0.000 A 
ENDBRANCH   4  24
ENDBRANCH  20   4
ENDBRANCH  17  20
ENDBRANCH  13   6
TORSDOF 9
ENDMDL
MODEL 3
REMARK VINA RESULT:      -7.2      2.177      9.588
REMARK  Name = 11911829
REMARK  10 active torsions:
REMARK  status: ('A' for Active; 'I' for Inactive)
REMARK    1  A    between atoms: O_4  and  C_20
REMARK    2  A    between atoms: O_4  and  C_24
REMARK    3  A    between atoms: N_5  and  C_12
REMARK    4  A    between atoms: N_6  and  C_13
REMARK    5  A    between atoms: N_9  and  C_19
REMARK    6  A    between atoms: N_9  and  C_21
REMARK    7  A    between atoms: N_9  and  C_22
REMARK    8  A    between atoms: C_17  and  C_20
REMARK    9  A    between atoms: C_18  and  C_19
REMARK   10  A    between atoms: C_21  and  C_23
REMARK                            x       y       z     vdW  Elec       q    Type
REMARK                         _______ _______ _______ _____ _____    ______ ____
ROOT
ATOM      1  O   UNL     1     -16.994   0.471  26.053  0.00  0.00    -0.370 OA
ATOM      2  O   UNL     1     -17.987   2.862  27.837  0.00  0.00    -0.370 OA
ATOM     10  C   UNL     1     -16.953   2.718  26.846  0.00  0.00    +0.175 C 
ATOM     11  C   UNL     1     -16.363   1.331  27.014  0.00  0.00    +0.171 C 
ATOM     12  C   UNL     1     -17.565   2.712  25.459  0.00  0.00    +0.166 C 
ATOM     13  C   UNL     1     -16.755   0.926  28.418  0.00  0.00    +0.130 C 
ATOM     14  C   UNL     1     -17.885   1.238  25.232  0.00  0.00    +0.190 C 
ATOM     15  C   UNL     1     -18.069   1.658  28.611  0.00  0.00    +0.185 C 
ENDROOT
BRANCH  12   5
ATOM      5  N   UNL     1     -16.686   3.317  24.455  0.00  0.00    -0.244 N 
ATOM      7  N   UNL     1     -16.626   2.881  23.202  0.00  0.00    -0.065 NA
ATOM      8  N   UNL     1     -15.734   3.647  22.554  0.00  0.00    -0.133 NA
ATOM     16  C   UNL     1     -15.817   4.365  24.576  0.00  0.00    +0.135 A 
ATOM     18  C   UNL     1     -15.198   4.593  23.373  0.00  0.00    +0.097 A 
BRANCH  18  19
ATOM     19  C   UNL     1     -14.199   5.572  22.948  0.00  0.00    +0.143 C 
BRANCH  19   9
ATOM      9  N   UNL     1     -14.719   6.562  21.986  0.00  0.00    -0.295 NA
ATOM     22  C   UNL     1     -16.175   6.586  22.035  0.00  0.00    +0.105 C 
BRANCH   9  21
ATOM     21  C   UNL     1     -14.165   7.879  22.279  0.00  0.00    +0.119 C 
BRANCH  21  23
ATOM     23  C   UNL     1     -13.035   8.231  21.348  0.00  0.00    -0.033 A 
ATOM     25  C   UNL     1     -12.333   7.220  20.691  0.00  0.00    +0.005 A 
ATOM     26  C   UNL     1     -12.688   9.566  21.143  0.00  0.00    +0.005 A 
ATOM     29  C   UNL     1     -11.285   7.545  19.828  0.00  0.00    +0.000 A 
ATOM     30  C   UNL     1     -11.642   9.892  20.281  0.00  0.00    +0.000 A 
ATOM     31  C   UNL     1     -10.940   8.881  19.624  0.00  0.00    +0.000 A 
ENDBRANCH  21  23
ENDBRANCH   9  21
ENDBRANCH  19   9
ENDBRANCH  18  19
ENDBRANCH  12   5
BRANCH  13   6
ATOM      3  O   UNL     1     -14.566  -0.631  29.505  0.00  0.00    -0.272 OA
ATOM      6  N   UNL     1     -15.770   1.356  29.381  0.00  0.00    -0.305 N 
ATOM     17  C   UNL     1     -14.752   0.535  29.844  0.00  0.00    +0.251 C 
ATOM     35  H   UNL     1     -15.840   2.299  29.752  0.00  0.00    +0.149 HD
BRANCH  17  20
ATOM     20  C   UNL     1     -13.867   1.248  30.844  0.00  0.00    +0.324 C 
BRANCH  20   4
ATOM      4  O   UNL     1     -14.577   1.517  32.036  0.00  0.00    -0.483 OA
BRANCH   4  24
ATOM     24  C   UNL     1     -14.456   2.780  32.566  0.00  0.00    +0.121 A 
ATOM     27  C   UNL     1     -14.666   2.986  33.930  0.00  0.00    +0.045 A 
ATOM     28  C   UNL     1     -14.122   3.853  31.741  0.00  0.00    +0.045 A 
ATOM     32  C   UNL     1     -14.543   4.268  34.468  0.00  0.00    +0.004 A 
ATOM     33  C   UNL     1     -13.999   5.134  32.279  0.00  0.00    +0.004 A 
ATOM     34  C   UNL     1     -14.210   5.341  33.642  0.00  0.00    +0.000 A 
ENDBRANCH   4  24
ENDBRANCH  20   4
ENDBRANCH  17  20
ENDBRANCH  13   6
TORSDOF 9
ENDMDL
MODEL 4
REMARK VINA RESULT:      -7.1     18.452     21.151
REMARK  Name = 11911829
REMARK  10 active torsions:
REMARK  status: ('A' for Active; 'I' for Inactive)
REMARK    1  A    between atoms: O_4  and  C_20
REMARK    2  A    between atoms: O_4  and  C_24
REMARK    3  A    between atoms: N_5  and  C_12
REMARK    4  A    between atoms: N_6  and  C_13
REMARK    5  A    between atoms: N_9  and  C_19
REMARK    6  A    between atoms: N_9  and  C_21
REMARK    7  A    between atoms: N_9  and  C_22
REMARK    8  A    between atoms: C_17  and  C_20
REMARK    9  A    between atoms: C_18  and  C_19
REMARK   10  A    between atoms: C_21  and  C_23
REMARK                            x       y       z     vdW  Elec       q    Type
REMARK                         _______ _______ _______ _____ _____    ______ ____
ROOT
ATOM      1  O   UNL     1      -7.102 -12.353  16.795  0.00  0.00    -0.370 OA
ATOM      2  O   UNL     1      -5.225 -10.340  18.317  0.00  0.00    -0.370 OA
ATOM     10  C   UNL     1      -6.109 -10.222  17.186  0.00  0.00    +0.175 C 
ATOM     11  C   UNL     1      -6.005 -11.514  16.400  0.00  0.00    +0.171 C 
ATOM     12  C   UNL     1      -7.548 -10.173  17.660  0.00  0.00    +0.166 C 
ATOM     13  C   UNL     1      -4.694 -12.120  16.848  0.00  0.00    +0.130 C 
ATOM     14  C   UNL     1      -7.940 -11.646  17.719  0.00  0.00    +0.190 C 
ATOM     15  C   UNL     1      -4.576 -11.618  18.275  0.00  0.00    +0.185 C 
ENDROOT
BRANCH  12   5
ATOM      5  N   UNL     1      -8.394  -9.339  16.802  0.00  0.00    -0.244 N 
ATOM      7  N   UNL     1      -8.529  -9.562  15.499  0.00  0.00    -0.065 NA
ATOM      8  N   UNL     1      -9.365  -8.629  15.019  0.00  0.00    -0.133 NA
ATOM     16  C   UNL     1      -9.159  -8.253  17.123  0.00  0.00    +0.135 A 
ATOM     18  C   UNL     1      -9.788  -7.782  15.998  0.00  0.00    +0.097 A 
BRANCH  18  19
ATOM     19  C   UNL     1     -10.704  -6.666  15.775  0.00  0.00    +0.143 C 
BRANCH  19   9
ATOM      9  N   UNL     1     -11.941  -7.052  15.067  0.00  0.00    -0.295 NA
ATOM     22  C   UNL     1     -12.716  -7.973  15.889  0.00  0.00    +0.105 C 
BRANCH   9  21
ATOM     21  C   UNL     1     -12.719  -5.863  14.740  0.00  0.00    +0.119 C 
BRANCH  21  23
ATOM     23  C   UNL     1     -12.518  -5.439  13.309  0.00  0.00    -0.033 A 
ATOM     25  C   UNL     1     -12.516  -6.395  12.293  0.00  0.00    +0.005 A 
ATOM     26  C   UNL     1     -12.333  -4.092  12.999  0.00  0.00    +0.005 A 
ATOM     29  C   UNL     1     -12.330  -6.003  10.967  0.00  0.00    +0.000 A 
ATOM     30  C   UNL     1     -12.147  -3.699  11.674  0.00  0.00    +0.000 A 
ATOM     31  C   UNL     1     -12.145  -4.655  10.658  0.00  0.00    +0.000 A 
ENDBRANCH  21  23
ENDBRANCH   9  21
ENDBRANCH  19   9
ENDBRANCH  18  19
ENDBRANCH  12   5
BRANCH  13   6
ATOM      3  O   UNL     1      -3.394 -13.524  14.672  0.00  0.00    -0.272 OA
ATOM      6  N   UNL     1      -3.597 -11.651  16.037  0.00  0.00    -0.305 N 
ATOM     17  C   UNL     1      -3.038 -12.399  15.011  0.00  0.00    +0.251 C 
ATOM     35  H   UNL     1      -3.201 -10.738  16.242  0.00  0.00    +0.149 HD
BRANCH  17  20
ATOM     20  C   UNL     1      -1.905 -11.659  14.330  0.00  0.00    +0.324 C 
BRANCH  20   4
ATOM      4  O   UNL     1      -1.766 -12.085  12.990  0.00  0.00    -0.483 OA
BRANCH   4  24
ATOM     24  C   UNL     1      -2.312 -11.282  12.016  0.00  0.00    +0.121 A 
ATOM     27  C   UNL     1      -3.456 -11.694  11.333  0.00  0.00    +0.045 A 
ATOM     28  C   UNL     1      -1.721 -10.056  11.714  0.00  0.00    +0.045 A 
ATOM     32  C   UNL     1      -4.009 -10.879  10.345  0.00  0.00    +0.004 A 
ATOM     33  C   UNL     1      -2.275  -9.240  10.726  0.00  0.00    +0.004 A 
ATOM     34  C   UNL     1      -3.419  -9.652  10.042  0.00  0.00    +0.000 A 
ENDBRANCH   4  24
ENDBRANCH  20   4
ENDBRANCH  17  20
ENDBRANCH  13   6
TORSDOF 9
ENDMDL
MODEL 5
REMARK VINA RESULT:      -7.0     32.723     38.601
REMARK  Name = 11911829
REMARK  10 active torsions:
REMARK  status: ('A' for Active; 'I' for Inactive)
REMARK    1  A    between atoms: O_4  and  C_20
REMARK    2  A    between atoms: O_4  and  C_24
REMARK    3  A    between atoms: N_5  and  C_12
REMARK    4  A    between atoms: N_6  and  C_13
REMARK    5  A    between atoms: N_9  and  C_19
REMARK    6  A    between atoms: N_9  and  C_21
REMARK    7  A    between atoms: N_9  and  C_22
REMARK    8  A    between atoms: C_17  and  C_20
REMARK    9  A    between atoms: C_18  and  C_19
REMARK   10  A    between atoms: C_21  and  C_23
REMARK                            x       y       z     vdW  Elec       q    Type
REMARK                         _______ _______ _______ _____ _____    ______ ____
ROOT
ATOM      1  O   UNL     1      14.689   6.501  -1.353  0.00  0.00    -0.370 OA
ATOM      2  O   UNL     1      16.617   4.101  -0.715  0.00  0.00    -0.370 OA
ATOM     10  C   UNL     1      15.571   4.764   0.019  0.00  0.00    +0.175 C 
ATOM     11  C   UNL     1      15.652   6.239  -0.320  0.00  0.00    +0.171 C 
ATOM     12  C   UNL     1      14.217   4.322  -0.501  0.00  0.00    +0.166 C 
ATOM     13  C   UNL     1      17.055   6.424  -0.853  0.00  0.00    +0.130 C 
ATOM     14  C   UNL     1      13.946   5.307  -1.633  0.00  0.00    +0.190 C 
ATOM     15  C   UNL     1      17.344   5.073  -1.479  0.00  0.00    +0.185 C 
ENDROOT
BRANCH  12   5
ATOM      5  N   UNL     1      13.196   4.287   0.550  0.00  0.00    -0.244 N 
ATOM      7  N   UNL     1      13.104   3.291   1.424  0.00  0.00    -0.065 NA
ATOM      8  N   UNL     1      12.075   3.570   2.239  0.00  0.00    -0.133 NA
ATOM     16  C   UNL     1      12.208   5.187   0.834  0.00  0.00    +0.135 A 
ATOM     18  C   UNL     1      11.479   4.748   1.911  0.00  0.00    +0.097 A 
BRANCH  18  19
ATOM     19  C   UNL     1      10.332   5.312   2.620  0.00  0.00    +0.143 C 
BRANCH  19   9
ATOM      9  N   UNL     1      10.568   5.500   4.064  0.00  0.00    -0.295 NA
ATOM     22  C   UNL     1      11.631   6.475   4.271  0.00  0.00    +0.105 C 
BRANCH   9  21
ATOM     21  C   UNL     1       9.336   5.924   4.719  0.00  0.00    +0.119 C 
BRANCH  21  23
ATOM     23  C   UNL     1       9.395   5.719   6.209  0.00  0.00    -0.033 A 
ATOM     25  C   UNL     1       9.809   4.492   6.729  0.00  0.00    +0.005 A 
ATOM     26  C   UNL     1       9.036   6.755   7.071  0.00  0.00    +0.005 A 
ATOM     29  C   UNL     1       9.863   4.302   8.110  0.00  0.00    +0.000 A 
ATOM     30  C   UNL     1       9.091   6.566   8.452  0.00  0.00    +0.000 A 
ATOM     31  C   UNL     1       9.504   5.339   8.971  0.00  0.00    +0.000 A 
ENDBRANCH  21  23
ENDBRANCH   9  21
ENDBRANCH  19   9
ENDBRANCH  18  19
ENDBRANCH  12   5
BRANCH  13   6
ATOM      3  O   UNL     1      17.386   8.939   0.547  0.00  0.00    -0.272 OA
ATOM      6  N   UNL     1      17.985   6.716   0.211  0.00  0.00    -0.305 N 
ATOM     17  C   UNL     1      18.070   7.958   0.824  0.00  0.00    +0.251 C 
ATOM     35  H   UNL     1      18.621   5.983   0.510  0.00  0.00    +0.149 HD
BRANCH  17  20
ATOM     20  C   UNL     1      19.128   7.978   1.907  0.00  0.00    +0.324 C 
BRANCH  20   4
ATOM      4  O   UNL     1      18.594   8.470   3.118  0.00  0.00    -0.483 OA
BRANCH   4  24
ATOM     24  C   UNL     1      19.318   8.235   4.264  0.00  0.00    +0.121 A 
ATOM     27  C   UNL     1      20.498   7.493   4.204  0.00  0.00    +0.045 A 
ATOM     28  C   UNL     1      18.871   8.739   5.485  0.00  0.00    +0.045 A 
ATOM     32  C   UNL     1      21.231   7.255   5.366  0.00  0.00    +0.004 A 
ATOM     33  C   UNL     1      19.605   8.501   6.647  0.00  0.00    +0.004 A 
ATOM     34  C   UNL     1      20.785   7.759   6.588  0.00  0.00    +0.000 A 
ENDBRANCH   4  24
ENDBRANCH  20   4
ENDBRANCH  17  20
ENDBRANCH  13   6
TORSDOF 9
ENDMDL
MODEL 6
REMARK VINA RESULT:      -7.0     32.823     36.223
REMARK  Name = 11911829
REMARK  10 active torsions:
REMARK  status: ('A' for Active; 'I' for Inactive)
REMARK    1  A    between atoms: O_4  and  C_20
REMARK    2  A    between atoms: O_4  and  C_24
REMARK    3  A    between atoms: N_5  and  C_12
REMARK    4  A    between atoms: N_6  and  C_13
REMARK    5  A    between atoms: N_9  and  C_19
REMARK    6  A    between atoms: N_9  and  C_21
REMARK    7  A    between atoms: N_9  and  C_22
REMARK    8  A    between atoms: C_17  and  C_20
REMARK    9  A    between atoms: C_18  and  C_19
REMARK   10  A    between atoms: C_21  and  C_23
REMARK                            x       y       z     vdW  Elec       q    Type
REMARK                         _______ _______ _______ _____ _____    ______ ____
ROOT
ATOM      1  O   UNL     1      21.138   6.471  20.808  0.00  0.00    -0.370 OA
ATOM      2  O   UNL     1      20.002   8.177  23.192  0.00  0.00    -0.370 OA
ATOM     10  C   UNL     1      20.306   6.780  23.020  0.00  0.00    +0.175 C 
ATOM     11  C   UNL     1      19.938   6.415  21.595  0.00  0.00    +0.171 C 
ATOM     12  C   UNL     1      21.805   6.565  23.099  0.00  0.00    +0.166 C 
ATOM     13  C   UNL     1      18.979   7.504  21.166  0.00  0.00    +0.130 C 
ATOM     14  C   UNL     1      22.256   6.766  21.656  0.00  0.00    +0.190 C 
ATOM     15  C   UNL     1      19.463   8.696  21.969  0.00  0.00    +0.185 C 
ENDROOT
BRANCH  12   5
ATOM      5  N   UNL     1      22.156   5.269  23.684  0.00  0.00    -0.244 N 
ATOM      7  N   UNL     1      22.176   5.059  24.996  0.00  0.00    -0.065 NA
ATOM      8  N   UNL     1      22.532   3.780  25.190  0.00  0.00    -0.133 NA
ATOM     16  C   UNL     1      22.506   4.100  23.067  0.00  0.00    +0.135 A 
ATOM     18  C   UNL     1      22.751   3.135  24.011  0.00  0.00    +0.097 A 
BRANCH  18  19
ATOM     19  C   UNL     1      23.152   1.733  23.906  0.00  0.00    +0.143 C 
BRANCH  19   9
ATOM      9  N   UNL     1      24.603   1.550  23.714  0.00  0.00    -0.295 NA
ATOM     22  C   UNL     1      25.156   0.772  24.816  0.00  0.00    +0.105 C 
BRANCH   9  21
ATOM     21  C   UNL     1      24.857   0.896  22.436  0.00  0.00    +0.119 C 
BRANCH  21  23
ATOM     23  C   UNL     1      25.368   1.866  21.403  0.00  0.00    -0.033 A 
ATOM     25  C   UNL     1      26.675   2.347  21.484  0.00  0.00    +0.005 A 
ATOM     26  C   UNL     1      24.535   2.283  20.365  0.00  0.00    +0.005 A 
ATOM     29  C   UNL     1      27.148   3.245  20.527  0.00  0.00    +0.000 A 
ATOM     30  C   UNL     1      25.007   3.181  19.409  0.00  0.00    +0.000 A 
ATOM     31  C   UNL     1      26.314   3.662  19.490  0.00  0.00    +0.000 A 
ENDBRANCH  21  23
ENDBRANCH   9  21
ENDBRANCH  19   9
ENDBRANCH  18  19
ENDBRANCH  12   5
BRANCH  13   6
ATOM      3  O   UNL     1      16.943   6.454  19.392  0.00  0.00    -0.272 OA
ATOM      6  N   UNL     1      17.618   7.164  21.502  0.00  0.00    -0.305 N 
ATOM     17  C   UNL     1      16.711   6.664  20.579  0.00  0.00    +0.251 C 
ATOM     35  H   UNL     1      17.304   7.320  22.456  0.00  0.00    +0.149 HD
BRANCH  17  20
ATOM     20  C   UNL     1      15.360   6.396  21.209  0.00  0.00    +0.324 C 
BRANCH  20   4
ATOM      4  O   UNL     1      14.781   7.596  21.678  0.00  0.00    -0.483 OA
BRANCH   4  24
ATOM     24  C   UNL     1      13.527   7.911  21.212  0.00  0.00    +0.121 A 
ATOM     27  C   UNL     1      13.345   9.031  20.399  0.00  0.00    +0.045 A 
ATOM     28  C   UNL     1      12.436   7.111  21.552  0.00  0.00    +0.045 A 
ATOM     32  C   UNL     1      12.072   9.350  19.926  0.00  0.00    +0.004 A 
ATOM     33  C   UNL     1      11.163   7.431  21.079  0.00  0.00    +0.004 A 
ATOM     34  C   UNL     1      10.981   8.550  20.267  0.00  0.00    +0.000 A 
ENDBRANCH   4  24
ENDBRANCH  20   4
ENDBRANCH  17  20
ENDBRANCH  13   6
TORSDOF 9
ENDMDL
MODEL 7
REMARK VINA RESULT:      -6.9     31.746     37.808
REMARK  Name = 11911829
REMARK  10 active torsions:
REMARK  status: ('A' for Active; 'I' for Inactive)
REMARK    1  A    between atoms: O_4  and  C_20
REMARK    2  A    between atoms: O_4  and  C_24
REMARK    3  A    between atoms: N_5  and  C_12
REMARK    4  A    between atoms: N_6  and  C_13
REMARK    5  A    between atoms: N_9  and  C_19
REMARK    6  A    between atoms: N_9  and  C_21
REMARK    7  A    between atoms: N_9  and  C_22
REMARK    8  A    between atoms: C_17  and  C_20
REMARK    9  A    between atoms: C_18  and  C_19
REMARK   10  A    between atoms: C_21  and  C_23
REMARK                            x       y       z     vdW  Elec       q    Type
REMARK                         _______ _______ _______ _____ _____    ______ ____
ROOT
ATOM      1  O   UNL     1      12.968   5.692  -0.472  0.00  0.00    -0.370 OA
ATOM      2  O   UNL     1      13.420   2.827   0.742  0.00  0.00    -0.370 OA
ATOM     10  C   UNL     1      12.359   3.433  -0.020  0.00  0.00    +0.175 C 
ATOM     11  C   UNL     1      12.235   4.869   0.449  0.00  0.00    +0.171 C 
ATOM     12  C   UNL     1      12.766   3.536  -1.477  0.00  0.00    +0.166 C 
ATOM     13  C   UNL     1      12.903   4.878   1.806  0.00  0.00    +0.130 C 
ATOM     14  C   UNL     1      13.480   4.882  -1.539  0.00  0.00    +0.190 C 
ATOM     15  C   UNL     1      13.953   3.794   1.658  0.00  0.00    +0.185 C 
ENDROOT
BRANCH  12   5
ATOM      5  N   UNL     1      11.628   3.394  -2.389  0.00  0.00    -0.244 N 
ATOM      7  N   UNL     1      10.651   2.518  -2.182  0.00  0.00    -0.065 NA
ATOM      8  N   UNL     1       9.778   2.648  -3.192  0.00  0.00    -0.133 NA
ATOM     16  C   UNL     1      11.348   4.070  -3.544  0.00  0.00    +0.135 A 
ATOM     18  C   UNL     1      10.169   3.608  -4.074  0.00  0.00    +0.097 A 
BRANCH  18  19
ATOM     19  C   UNL     1       9.419   3.973  -5.274  0.00  0.00    +0.143 C 
BRANCH  19   9
ATOM      9  N   UNL     1       8.853   5.336  -5.222  0.00  0.00    -0.295 NA
ATOM     22  C   UNL     1       9.739   6.268  -5.909  0.00  0.00    +0.105 C 
BRANCH   9  21
ATOM     21  C   UNL     1       7.522   5.345  -5.817  0.00  0.00    +0.119 C 
BRANCH  21  23
ATOM     23  C   UNL     1       6.478   5.827  -4.845  0.00  0.00    -0.033 A 
ATOM     25  C   UNL     1       6.862   6.506  -3.689  0.00  0.00    +0.005 A 
ATOM     26  C   UNL     1       5.127   5.594  -5.099  0.00  0.00    +0.005 A 
ATOM     29  C   UNL     1       5.895   6.952  -2.788  0.00  0.00    +0.000 A 
ATOM     30  C   UNL     1       4.159   6.040  -4.200  0.00  0.00    +0.000 A 
ATOM     31  C   UNL     1       4.544   6.718  -3.043  0.00  0.00    +0.000 A 
ENDBRANCH  21  23
ENDBRANCH   9  21
ENDBRANCH  19   9
ENDBRANCH  18  19
ENDBRANCH  12   5
BRANCH  13   6
ATOM      3  O   UNL     1      10.886   6.616   2.950  0.00  0.00    -0.272 OA
ATOM      6  N   UNL     1      11.964   4.556   2.853  0.00  0.00    -0.305 N 
ATOM     17  C   UNL     1      11.029   5.460   3.338  0.00  0.00    +0.251 C 
ATOM     35  H   UNL     1      12.005   3.630   3.270  0.00  0.00    +0.149 HD
BRANCH  17  20
ATOM     20  C   UNL     1      10.175   4.851   4.431  0.00  0.00    +0.324 C 
BRANCH  20   4
ATOM      4  O   UNL     1       9.619   5.860   5.248  0.00  0.00    -0.483 OA
BRANCH   4  24
ATOM     24  C   UNL     1       9.539   5.602   6.597  0.00  0.00    +0.121 A 
ATOM     27  C   UNL     1       9.124   6.603   7.475  0.00  0.00    +0.045 A 
ATOM     28  C   UNL     1       9.873   4.339   7.085  0.00  0.00    +0.045 A 
ATOM     32  C   UNL     1       9.044   6.341   8.843  0.00  0.00    +0.004 A 
ATOM     33  C   UNL     1       9.792   4.077   8.452  0.00  0.00    +0.004 A 
ATOM     34  C   UNL     1       9.378   5.078   9.332  0.00  0.00    +0.000 A 
ENDBRANCH   4  24
ENDBRANCH  20   4
ENDBRANCH  17  20
ENDBRANCH  13   6
TORSDOF 9
ENDMDL
MODEL 8
REMARK VINA RESULT:      -6.9     33.048     37.353
REMARK  Name = 11911829
REMARK  10 active torsions:
REMARK  status: ('A' for Active; 'I' for Inactive)
REMARK    1  A    between atoms: O_4  and  C_20
REMARK    2  A    between atoms: O_4  and  C_24
REMARK    3  A    between atoms: N_5  and  C_12
REMARK    4  A    between atoms: N_6  and  C_13
REMARK    5  A    between atoms: N_9  and  C_19
REMARK    6  A    between atoms: N_9  and  C_21
REMARK    7  A    between atoms: N_9  and  C_22
REMARK    8  A    between atoms: C_17  and  C_20
REMARK    9  A    between atoms: C_18  and  C_19
REMARK   10  A    between atoms: C_21  and  C_23
REMARK                            x       y       z     vdW  Elec       q    Type
REMARK                         _______ _______ _______ _____ _____    ______ ____
ROOT
ATOM      1  O   UNL     1      10.221   8.193   5.127  0.00  0.00    -0.370 OA
ATOM      2  O   UNL     1      10.860   5.610   6.802  0.00  0.00    -0.370 OA
ATOM     10  C   UNL     1      11.668   6.555   6.076  0.00  0.00    +0.175 C 
ATOM     11  C   UNL     1      10.888   6.955   4.839  0.00  0.00    +0.171 C 
ATOM     12  C   UNL     1      11.806   7.836   6.876  0.00  0.00    +0.166 C 
ATOM     13  C   UNL     1       9.877   5.844   4.660  0.00  0.00    +0.130 C 
ATOM     14  C   UNL     1      10.593   8.648   6.435  0.00  0.00    +0.190 C 
ATOM     15  C   UNL     1       9.635   5.394   6.088  0.00  0.00    +0.185 C 
ENDROOT
BRANCH  12   5
ATOM      5  N   UNL     1      13.100   8.491   6.668  0.00  0.00    -0.244 N 
ATOM      7  N   UNL     1      13.282   9.792   6.867  0.00  0.00    -0.065 NA
ATOM      8  N   UNL     1      14.567  10.062   6.589  0.00  0.00    -0.133 NA
ATOM     16  C   UNL     1      14.291   7.958   6.261  0.00  0.00    +0.135 A 
ATOM     18  C   UNL     1      15.243   8.945   6.204  0.00  0.00    +0.097 A 
BRANCH  18  19
ATOM     19  C   UNL     1      16.658   8.929   5.839  0.00  0.00    +0.143 C 
BRANCH  19   9
ATOM      9  N   UNL     1      16.896   9.149   4.398  0.00  0.00    -0.295 NA
ATOM     22  C   UNL     1      18.074   9.986   4.211  0.00  0.00    +0.105 C 
BRANCH   9  21
ATOM     21  C   UNL     1      17.053   7.867   3.720  0.00  0.00    +0.119 C 
BRANCH  21  23
ATOM     23  C   UNL     1      16.062   7.703   2.598  0.00  0.00    -0.033 A 
ATOM     25  C   UNL     1      14.726   7.424   2.884  0.00  0.00    +0.005 A 
ATOM     26  C   UNL     1      16.480   7.829   1.273  0.00  0.00    +0.005 A 
ATOM     29  C   UNL     1      13.807   7.271   1.844  0.00  0.00    +0.000 A 
ATOM     30  C   UNL     1      15.563   7.678   0.234  0.00  0.00    +0.000 A 
ATOM     31  C   UNL     1      14.227   7.398   0.520  0.00  0.00    +0.000 A 
ENDBRANCH  21  23
ENDBRANCH   9  21
ENDBRANCH  19   9
ENDBRANCH  18  19
ENDBRANCH  12   5
BRANCH  13   6
ATOM      3  O   UNL     1      10.210   5.803   1.782  0.00  0.00    -0.272 OA
ATOM      6  N   UNL     1      10.414   4.772   3.858  0.00  0.00    -0.305 N 
ATOM     17  C   UNL     1      10.536   4.845   2.478  0.00  0.00    +0.251 C 
ATOM     35  H   UNL     1      10.696   3.915   4.325  0.00  0.00    +0.149 HD
BRANCH  17  20
ATOM     20  C   UNL     1      11.131   3.578   1.899  0.00  0.00    +0.324 C 
BRANCH  20   4
ATOM      4  O   UNL     1      12.491   3.456   2.261  0.00  0.00    -0.483 OA
BRANCH   4  24
ATOM     24  C   UNL     1      13.424   3.654   1.271  0.00  0.00    +0.121 A 
ATOM     27  C   UNL     1      14.779   3.733   1.594  0.00  0.00    +0.045 A 
ATOM     28  C   UNL     1      13.015   3.775  -0.057  0.00  0.00    +0.045 A 
ATOM     32  C   UNL     1      15.724   3.934   0.589  0.00  0.00    +0.004 A 
ATOM     33  C   UNL     1      13.961   3.976  -1.062  0.00  0.00    +0.004 A 
ATOM     34  C   UNL     1      15.316   4.055  -0.739  0.00  0.00    +0.000 A 
ENDBRANCH   4  24
ENDBRANCH  20   4
ENDBRANCH  17  20
ENDBRANCH  13   6
TORSDOF 9
ENDMDL
MODEL 9
REMARK VINA RESULT:      -6.9     27.518     30.892
REMARK  Name = 11911829
REMARK  10 active torsions:
REMARK  status: ('A' for Active; 'I' for Inactive)
REMARK    1  A    between atoms: O_4  and  C_20
REMARK    2  A    between atoms: O_4  and  C_24
REMARK    3  A    between atoms: N_5  and  C_12
REMARK    4  A    between atoms: N_6  and  C_13
REMARK    5  A    between atoms: N_9  and  C_19
REMARK    6  A    between atoms: N_9  and  C_21
REMARK    7  A    between atoms: N_9  and  C_22
REMARK    8  A    between atoms: C_17  and  C_20
REMARK    9  A    between atoms: C_18  and  C_19
REMARK   10  A    between atoms: C_21  and  C_23
REMARK                            x       y       z     vdW  Elec       q    Type
REMARK                         _______ _______ _______ _____ _____    ______ ____
ROOT
ATOM      1  O   UNL     1      12.403  11.642  25.380  0.00  0.00    -0.370 OA
ATOM      2  O   UNL     1      12.112  13.495  22.856  0.00  0.00    -0.370 OA
ATOM     10  C   UNL     1      12.446  12.107  23.043  0.00  0.00    +0.175 C 
ATOM     11  C   UNL     1      13.280  12.013  24.306  0.00  0.00    +0.171 C 
ATOM     12  C   UNL     1      11.192  11.312  23.349  0.00  0.00    +0.166 C 
ATOM     13  C   UNL     1      13.800  13.418  24.515  0.00  0.00    +0.130 C 
ATOM     14  C   UNL     1      11.083  11.414  24.867  0.00  0.00    +0.190 C 
ATOM     15  C   UNL     1      12.693  14.266  23.917  0.00  0.00    +0.185 C 
ENDROOT
BRANCH  12   5
ATOM      5  N   UNL     1      11.250   9.946  22.821  0.00  0.00    -0.244 N 
ATOM      7  N   UNL     1      10.235   9.096  22.927  0.00  0.00    -0.065 NA
ATOM      8  N   UNL     1      10.615   7.947  22.345  0.00  0.00    -0.133 NA
ATOM     16  C   UNL     1      12.266   9.308  22.166  0.00  0.00    +0.135 A 
ATOM     18  C   UNL     1      11.881   8.028  21.852  0.00  0.00    +0.097 A 
BRANCH  18  19
ATOM     19  C   UNL     1      12.565   6.934  21.166  0.00  0.00    +0.143 C 
BRANCH  19   9
ATOM      9  N   UNL     1      13.541   7.392  20.158  0.00  0.00    -0.295 NA
ATOM     22  C   UNL     1      14.714   6.527  20.174  0.00  0.00    +0.105 C 
BRANCH   9  21
ATOM     21  C   UNL     1      12.922   7.409  18.838  0.00  0.00    +0.119 C 
BRANCH  21  23
ATOM     23  C   UNL     1      13.358   8.603  18.031  0.00  0.00    -0.033 A 
ATOM     25  C   UNL     1      13.200   9.889  18.548  0.00  0.00    +0.005 A 
ATOM     26  C   UNL     1      13.919   8.425  16.766  0.00  0.00    +0.005 A 
ATOM     29  C   UNL     1      13.603  10.996  17.801  0.00  0.00    +0.000 A 
ATOM     30  C   UNL     1      14.322   9.531  16.019  0.00  0.00    +0.000 A 
ATOM     31  C   UNL     1      14.163  10.816  16.536  0.00  0.00    +0.000 A 
ENDBRANCH  21  23
ENDBRANCH   9  21
ENDBRANCH  19   9
ENDBRANCH  18  19
ENDBRANCH  12   5
BRANCH  13   6
ATOM      3  O   UNL     1      16.403  12.372  25.239  0.00  0.00    -0.272 OA
ATOM      6  N   UNL     1      15.048  13.623  23.821  0.00  0.00    -0.305 N 
ATOM     17  C   UNL     1      16.251  13.077  24.246  0.00  0.00    +0.251 C 
ATOM     35  H   UNL     1      15.048  14.214  22.994  0.00  0.00    +0.149 HD
BRANCH  17  20
ATOM     20  C   UNL     1      17.394  13.455  23.327  0.00  0.00    +0.324 C 
BRANCH  20   4
ATOM      4  O   UNL     1      17.095  13.110  21.991  0.00  0.00    -0.483 OA
BRANCH   4  24
ATOM     24  C   UNL     1      17.190  11.782  21.650  0.00  0.00    +0.121 A 
ATOM     27  C   UNL     1      18.344  11.062  21.960  0.00  0.00    +0.045 A 
ATOM     28  C   UNL     1      16.131  11.154  20.995  0.00  0.00    +0.045 A 
ATOM     32  C   UNL     1      18.440   9.714  21.614  0.00  0.00    +0.004 A 
ATOM     33  C   UNL     1      16.227   9.806  20.648  0.00  0.00    +0.004 A 
ATOM     34  C   UNL     1      17.381   9.086  20.958  0.00  0.00    +0.000 A 
ENDBRANCH   4  24
ENDBRANCH  20   4
ENDBRANCH  17  20
ENDBRANCH  13   6
TORSDOF 9
ENDMDL
MODEL 10
REMARK VINA RESULT:      -6.8     29.803     34.482
REMARK  Name = 11911829
REMARK  10 active torsions:
REMARK  status: ('A' for Active; 'I' for Inactive)
REMARK    1  A    between atoms: O_4  and  C_20
REMARK    2  A    between atoms: O_4  and  C_24
REMARK    3  A    between atoms: N_5  and  C_12
REMARK    4  A    between atoms: N_6  and  C_13
REMARK    5  A    between atoms: N_9  and  C_19
REMARK    6  A    between atoms: N_9  and  C_21
REMARK    7  A    between atoms: N_9  and  C_22
REMARK    8  A    between atoms: C_17  and  C_20
REMARK    9  A    between atoms: C_18  and  C_19
REMARK   10  A    between atoms: C_21  and  C_23
REMARK                            x       y       z     vdW  Elec       q    Type
REMARK                         _______ _______ _______ _____ _____    ______ ____
ROOT
ATOM      1  O   UNL     1      13.347   7.981  16.479  0.00  0.00    -0.370 OA
ATOM      2  O   UNL     1      12.913  10.071  18.789  0.00  0.00    -0.370 OA
ATOM     10  C   UNL     1      13.970   9.836  17.839  0.00  0.00    +0.175 C 
ATOM     11  C   UNL     1      14.085   8.335  17.659  0.00  0.00    +0.171 C 
ATOM     12  C   UNL     1      13.563  10.359  16.476  0.00  0.00    +0.166 C 
ATOM     13  C   UNL     1      13.417   7.759  18.888  0.00  0.00    +0.130 C 
ATOM     14  C   UNL     1      12.841   9.168  15.854  0.00  0.00    +0.190 C 
ATOM     15  C   UNL     1      12.374   8.811  19.213  0.00  0.00    +0.185 C 
ENDROOT
BRANCH  12   5
ATOM      5  N   UNL     1      14.703  10.864  15.705  0.00  0.00    -0.244 N 
ATOM      7  N   UNL     1      14.896  10.553  14.428  0.00  0.00    -0.065 NA
ATOM      8  N   UNL     1      16.016  11.176  14.031  0.00  0.00    -0.133 NA
ATOM     16  C   UNL     1      15.720  11.690  16.095  0.00  0.00    +0.135 A 
ATOM     18  C   UNL     1      16.571  11.903  15.039  0.00  0.00    +0.097 A 
BRANCH  18  19
ATOM     19  C   UNL     1      17.796  12.688  14.905  0.00  0.00    +0.143 C 
BRANCH  19   9
ATOM      9  N   UNL     1      18.992  12.009  15.441  0.00  0.00    -0.295 NA
ATOM     22  C   UNL     1      19.720  11.356  14.360  0.00  0.00    +0.105 C 
BRANCH   9  21
ATOM     21  C   UNL     1      19.841  12.971  16.135  0.00  0.00    +0.119 C 
BRANCH  21  23
ATOM     23  C   UNL     1      20.111  12.555  17.557  0.00  0.00    -0.033 A 
ATOM     25  C   UNL     1      21.373  12.082  17.917  0.00  0.00    +0.005 A 
ATOM     26  C   UNL     1      19.100  12.641  18.514  0.00  0.00    +0.005 A 
ATOM     29  C   UNL     1      21.624  11.697  19.234  0.00  0.00    +0.000 A 
ATOM     30  C   UNL     1      19.351  12.256  19.830  0.00  0.00    +0.000 A 
ATOM     31  C   UNL     1      20.613  11.783  20.190  0.00  0.00    +0.000 A 
ENDBRANCH  21  23
ENDBRANCH   9  21
ENDBRANCH  19   9
ENDBRANCH  18  19
ENDBRANCH  12   5
BRANCH  13   6
ATOM      3  O   UNL     1      15.778   6.080  18.935  0.00  0.00    -0.272 OA
ATOM      6  N   UNL     1      14.358   7.604  19.971  0.00  0.00    -0.305 N 
ATOM     17  C   UNL     1      15.466   6.772  19.900  0.00  0.00    +0.251 C 
ATOM     35  H   UNL     1      14.187   8.112  20.834  0.00  0.00    +0.149 HD
BRANCH  17  20
ATOM     20  C   UNL     1      16.276   6.807  21.178  0.00  0.00    +0.324 C 
BRANCH  20   4
ATOM      4  O   UNL     1      17.182   7.891  21.165  0.00  0.00    -0.483 OA
BRANCH   4  24
ATOM     24  C   UNL     1      18.522   7.588  21.100  0.00  0.00    +0.121 A 
ATOM     27  C   UNL     1      19.472   8.551  21.439  0.00  0.00    +0.045 A 
ATOM     28  C   UNL     1      18.929   6.317  20.695  0.00  0.00    +0.045 A 
ATOM     32  C   UNL     1      20.831   8.243  21.373  0.00  0.00    +0.004 A 
ATOM     33  C   UNL     1      20.288   6.009  20.629  0.00  0.00    +0.004 A 
ATOM     34  C   UNL     1      21.239   6.972  20.968  0.00  0.00    +0.000 A 
ENDBRANCH   4  24
ENDBRANCH  20   4
ENDBRANCH  17  20
ENDBRANCH  13   6
TORSDOF 9
ENDMDL
