MODEL 1
REMARK VINA RESULT:      -7.9      0.000      0.000
REMARK  Name = 28990896
REMARK  6 active torsions:
REMARK  status: ('A' for Active; 'I' for Inactive)
REMARK    1  A    between atoms: N_3  and  C_14
REMARK    2  A    between atoms: N_5  and  C_29
REMARK    3  A    between atoms: N_6  and  C_27
REMARK    4  A    between atoms: C_14  and  C_17
REMARK    5  A    between atoms: C_18  and  C_21
REMARK    6  A    between atoms: C_24  and  C_27
REMARK                            x       y       z     vdW  Elec       q    Type
REMARK                         _______ _______ _______ _____ _____    ______ ____
ROOT
ATOM      1  O   UNL     1      12.244   7.711   2.537  0.00  0.00    -0.267 OA
ATOM      3  N   UNL     1      13.831   4.593  -1.057  0.00  0.00    -0.297 NA
ATOM      4  N   UNL     1      12.767   5.566   1.789  0.00  0.00    -0.311 N 
ATOM      7  C   UNL     1      15.132   4.890   1.065  0.00  0.00    +0.024 C 
ATOM      8  C   UNL     1      13.320   3.245   0.983  0.00  0.00    +0.050 C 
ATOM      9  C   UNL     1      14.719   3.501   1.535  0.00  0.00    +0.017 C 
ATOM     10  C   UNL     1      15.132   4.947  -0.477  0.00  0.00    +0.090 C 
ATOM     11  C   UNL     1      13.358   3.292  -0.561  0.00  0.00    +0.094 C 
ATOM     12  C   UNL     1      14.190   5.925   1.695  0.00  0.00    +0.130 C 
ATOM     13  C   UNL     1      12.333   4.265   1.521  0.00  0.00    +0.026 A 
ATOM     15  C   UNL     1      11.049   3.929   1.722  0.00  0.00    +0.022 A 
ATOM     16  C   UNL     1      11.891   6.563   2.258  0.00  0.00    +0.259 A 
ATOM     18  C   UNL     1      10.450   6.166   2.441  0.00  0.00    +0.047 A 
ATOM     19  C   UNL     1      10.096   4.898   2.183  0.00  0.00    +0.015 A 
ENDROOT
BRANCH  18  21
ATOM     21  C   UNL     1       9.440   7.142   2.884  0.00  0.00    -0.008 A 
ATOM     24  C   UNL     1       8.795   7.009   4.113  0.00  0.00    -0.025 A 
ATOM     26  C   UNL     1       9.132   8.214   2.047  0.00  0.00    +0.009 A 
ATOM     30  C   UNL     1       7.841   7.949   4.505  0.00  0.00    +0.005 A 
ATOM     32  C   UNL     1       8.178   9.154   2.438  0.00  0.00    +0.001 A 
ATOM     36  C   UNL     1       7.532   9.022   3.667  0.00  0.00    +0.000 A 
BRANCH  24  27
ATOM     27  C   UNL     1       9.099   5.873   5.036  0.00  0.00    +0.120 C 
BRANCH  27   6
ATOM      2  O   UNL     1      11.800   5.863   8.248  0.00  0.00    -0.377 OA
ATOM      6  N   UNL     1       9.871   6.300   6.202  0.00  0.00    -0.294 NA
ATOM     33  C   UNL     1      11.311   6.280   5.909  0.00  0.00    +0.113 C 
ATOM     34  C   UNL     1       9.581   5.444   7.360  0.00  0.00    +0.113 C 
ATOM     37  C   UNL     1      12.096   6.716   7.142  0.00  0.00    +0.175 C 
ATOM     38  C   UNL     1      10.407   5.901   8.560  0.00  0.00    +0.175 C 
ENDBRANCH  27   6
ENDBRANCH  24  27
ENDBRANCH  18  21
BRANCH   3  14
ATOM     14  C   UNL     1      13.886   4.608  -2.517  0.00  0.00    +0.121 C 
BRANCH  14  17
ATOM      5  N   UNL     1      10.876   3.839  -4.488  0.00  0.00    -0.349 N 
ATOM     17  C   UNL     1      12.520   4.458  -3.131  0.00  0.00    -0.008 A 
ATOM     20  C   UNL     1      11.312   5.047  -2.663  0.00  0.00    +0.004 A 
ATOM     22  C   UNL     1      12.219   3.722  -4.255  0.00  0.00    +0.091 A 
ATOM     23  C   UNL     1      10.295   4.643  -3.532  0.00  0.00    +0.049 A 
ATOM     25  C   UNL     1      10.984   5.887  -1.581  0.00  0.00    +0.010 A 
ATOM     28  C   UNL     1       8.962   5.038  -3.371  0.00  0.00    +0.026 A 
ATOM     29  C   UNL     1      10.180   3.206  -5.588  0.00  0.00    +0.149 C 
ATOM     31  C   UNL     1       9.655   6.291  -1.408  0.00  0.00    +0.001 A 
ATOM     35  C   UNL     1       8.662   5.873  -2.291  0.00  0.00    +0.002 A 
ENDBRANCH  14  17
ENDBRANCH   3  14
TORSDOF 5
ENDMDL
MODEL 2
REMARK VINA RESULT:      -7.8     23.409     26.817
REMARK  Name = 28990896
REMARK  6 active torsions:
REMARK  status: ('A' for Active; 'I' for Inactive)
REMARK    1  A    between atoms: N_3  and  C_14
REMARK    2  A    between atoms: N_5  and  C_29
REMARK    3  A    between atoms: N_6  and  C_27
REMARK    4  A    between atoms: C_14  and  C_17
REMARK    5  A    between atoms: C_18  and  C_21
REMARK    6  A    between atoms: C_24  and  C_27
REMARK                            x       y       z     vdW  Elec       q    Type
REMARK                         _______ _______ _______ _____ _____    ______ ____
ROOT
ATOM      1  O   UNL     1      -6.031 -11.785  10.554  0.00  0.00    -0.267 OA
ATOM      3  N   UNL     1      -3.286 -11.001  14.677  0.00  0.00    -0.297 NA
ATOM      4  N   UNL     1      -3.966 -11.573  11.614  0.00  0.00    -0.311 N 
ATOM      7  C   UNL     1      -3.178 -13.182  13.447  0.00  0.00    +0.024 C 
ATOM      8  C   UNL     1      -1.732 -11.333  12.750  0.00  0.00    +0.050 C 
ATOM      9  C   UNL     1      -1.782 -12.847  12.936  0.00  0.00    +0.017 C 
ATOM     10  C   UNL     1      -3.439 -12.457  14.784  0.00  0.00    +0.090 C 
ATOM     11  C   UNL     1      -1.979 -10.638  14.108  0.00  0.00    +0.094 C 
ATOM     12  C   UNL     1      -4.202 -12.814  12.365  0.00  0.00    +0.130 C 
ATOM     13  C   UNL     1      -2.758 -10.881  11.727  0.00  0.00    +0.026 A 
ATOM     15  C   UNL     1      -2.516  -9.815  10.949  0.00  0.00    +0.022 A 
ATOM     16  C   UNL     1      -4.968 -11.181  10.706  0.00  0.00    +0.259 A 
ATOM     18  C   UNL     1      -4.684  -9.960   9.871  0.00  0.00    +0.047 A 
ATOM     19  C   UNL     1      -3.499  -9.347  10.013  0.00  0.00    +0.015 A 
ENDROOT
BRANCH  18  21
ATOM     21  C   UNL     1      -5.681  -9.436   8.922  0.00  0.00    -0.008 A 
ATOM     24  C   UNL     1      -5.774  -9.931   7.622  0.00  0.00    -0.025 A 
ATOM     26  C   UNL     1      -6.541  -8.423   9.346  0.00  0.00    +0.009 A 
ATOM     30  C   UNL     1      -6.728  -9.413   6.745  0.00  0.00    +0.005 A 
ATOM     32  C   UNL     1      -7.494  -7.905   8.469  0.00  0.00    +0.001 A 
ATOM     36  C   UNL     1      -7.588  -8.399   7.169  0.00  0.00    +0.000 A 
BRANCH  24  27
ATOM     27  C   UNL     1      -4.870 -11.016   7.133  0.00  0.00    +0.120 C 
BRANCH  27   6
ATOM      2  O   UNL     1      -5.476 -13.861   4.106  0.00  0.00    -0.377 OA
ATOM      6  N   UNL     1      -5.415 -11.706   5.965  0.00  0.00    -0.294 NA
ATOM     33  C   UNL     1      -5.941 -13.027   6.337  0.00  0.00    +0.113 C 
ATOM     34  C   UNL     1      -4.394 -11.847   4.919  0.00  0.00    +0.113 C 
ATOM     37  C   UNL     1      -6.492 -13.732   5.101  0.00  0.00    +0.175 C 
ATOM     38  C   UNL     1      -4.983 -12.579   3.716  0.00  0.00    +0.175 C 
ENDBRANCH  27   6
ENDBRANCH  24  27
ENDBRANCH  18  21
BRANCH   3  14
ATOM     14  C   UNL     1      -3.490 -10.356  15.972  0.00  0.00    +0.121 C 
BRANCH  14  17
ATOM      5  N   UNL     1      -7.132  -9.883  16.195  0.00  0.00    -0.349 N 
ATOM     17  C   UNL     1      -4.949 -10.263  16.330  0.00  0.00    -0.008 A 
ATOM     20  C   UNL     1      -5.539 -10.619  17.574  0.00  0.00    +0.004 A 
ATOM     22  C   UNL     1      -5.953  -9.814  15.502  0.00  0.00    +0.091 A 
ATOM     23  C   UNL     1      -6.910 -10.371  17.464  0.00  0.00    +0.049 A 
ATOM     25  C   UNL     1      -5.039 -11.129  18.789  0.00  0.00    +0.010 A 
ATOM     28  C   UNL     1      -7.808 -10.610  18.510  0.00  0.00    +0.026 A 
ATOM     29  C   UNL     1      -8.417  -9.493  15.658  0.00  0.00    +0.149 C 
ATOM     31  C   UNL     1      -5.926 -11.373  19.844  0.00  0.00    +0.001 A 
ATOM     35  C   UNL     1      -7.288 -11.116  19.705  0.00  0.00    +0.002 A 
ENDBRANCH  14  17
ENDBRANCH   3  14
TORSDOF 5
ENDMDL
MODEL 3
REMARK VINA RESULT:      -7.5      0.996      1.292
REMARK  Name = 28990896
REMARK  6 active torsions:
REMARK  status: ('A' for Active; 'I' for Inactive)
REMARK    1  A    between atoms: N_3  and  C_14
REMARK    2  A    between atoms: N_5  and  C_29
REMARK    3  A    between atoms: N_6  and  C_27
REMARK    4  A    between atoms: C_14  and  C_17
REMARK    5  A    between atoms: C_18  and  C_21
REMARK    6  A    between atoms: C_24  and  C_27
REMARK                            x       y       z     vdW  Elec       q    Type
REMARK                         _______ _______ _______ _____ _____    ______ ____
ROOT
ATOM      1  O   UNL     1      12.189   7.811   2.555  0.00  0.00    -0.267 OA
ATOM      3  N   UNL     1      13.614   4.362  -0.794  0.00  0.00    -0.297 NA
ATOM      4  N   UNL     1      12.734   5.612   2.005  0.00  0.00    -0.311 N 
ATOM      7  C   UNL     1      15.061   4.930   1.172  0.00  0.00    +0.024 C 
ATOM      8  C   UNL     1      13.311   3.234   1.413  0.00  0.00    +0.050 C 
ATOM      9  C   UNL     1      14.738   3.590   1.821  0.00  0.00    +0.017 C 
ATOM     10  C   UNL     1      14.942   4.816  -0.362  0.00  0.00    +0.090 C 
ATOM     11  C   UNL     1      13.230   3.110  -0.125  0.00  0.00    +0.094 C 
ATOM     12  C   UNL     1      14.131   6.001   1.759  0.00  0.00    +0.130 C 
ATOM     13  C   UNL     1      12.331   4.278   1.915  0.00  0.00    +0.026 A 
ATOM     15  C   UNL     1      11.080   3.929   2.253  0.00  0.00    +0.022 A 
ATOM     16  C   UNL     1      11.860   6.629   2.432  0.00  0.00    +0.259 A 
ATOM     18  C   UNL     1      10.453   6.214   2.771  0.00  0.00    +0.047 A 
ATOM     19  C   UNL     1      10.128   4.915   2.680  0.00  0.00    +0.015 A 
ENDROOT
BRANCH  18  21
ATOM     21  C   UNL     1       9.443   7.203   3.185  0.00  0.00    -0.008 A 
ATOM     24  C   UNL     1       9.169   7.438   4.532  0.00  0.00    -0.025 A 
ATOM     26  C   UNL     1       8.754   7.909   2.199  0.00  0.00    +0.009 A 
ATOM     30  C   UNL     1       8.206   8.381   4.893  0.00  0.00    +0.005 A 
ATOM     32  C   UNL     1       7.791   8.851   2.561  0.00  0.00    +0.001 A 
ATOM     36  C   UNL     1       7.516   9.087   3.907  0.00  0.00    +0.000 A 
BRANCH  24  27
ATOM     27  C   UNL     1       9.887   6.700   5.616  0.00  0.00    +0.120 C 
BRANCH  27   6
ATOM      2  O   UNL     1      13.407   8.331   7.219  0.00  0.00    -0.377 OA
ATOM      6  N   UNL     1      11.274   7.139   5.759  0.00  0.00    -0.294 NA
ATOM     33  C   UNL     1      11.932   6.436   6.869  0.00  0.00    +0.113 C 
ATOM     34  C   UNL     1      11.343   8.590   5.970  0.00  0.00    +0.113 C 
ATOM     37  C   UNL     1      13.373   6.919   7.007  0.00  0.00    +0.175 C 
ATOM     38  C   UNL     1      12.798   9.023   6.128  0.00  0.00    +0.175 C 
ENDBRANCH  27   6
ENDBRANCH  24  27
ENDBRANCH  18  21
BRANCH   3  14
ATOM     14  C   UNL     1      13.557   4.217  -2.247  0.00  0.00    +0.121 C 
BRANCH  14  17
ATOM      5  N   UNL     1      10.313   4.098  -3.978  0.00  0.00    -0.349 N 
ATOM     17  C   UNL     1      12.156   4.376  -2.773  0.00  0.00    -0.008 A 
ATOM     20  C   UNL     1      11.172   5.288  -2.298  0.00  0.00    +0.004 A 
ATOM     22  C   UNL     1      11.598   3.658  -3.806  0.00  0.00    +0.091 A 
ATOM     23  C   UNL     1      10.025   5.093  -3.071  0.00  0.00    +0.049 A 
ATOM     25  C   UNL     1      11.147   6.263  -1.281  0.00  0.00    +0.010 A 
ATOM     28  C   UNL     1       8.850   5.828  -2.877  0.00  0.00    +0.026 A 
ATOM     29  C   UNL     1       9.401   3.583  -4.977  0.00  0.00    +0.149 C 
ATOM     31  C   UNL     1       9.978   7.006  -1.076  0.00  0.00    +0.001 A 
ATOM     35  C   UNL     1       8.849   6.791  -1.863  0.00  0.00    +0.002 A 
ENDBRANCH  14  17
ENDBRANCH   3  14
TORSDOF 5
ENDMDL
MODEL 4
REMARK VINA RESULT:      -7.2     25.913     29.271
REMARK  Name = 28990896
REMARK  6 active torsions:
REMARK  status: ('A' for Active; 'I' for Inactive)
REMARK    1  A    between atoms: N_3  and  C_14
REMARK    2  A    between atoms: N_5  and  C_29
REMARK    3  A    between atoms: N_6  and  C_27
REMARK    4  A    between atoms: C_14  and  C_17
REMARK    5  A    between atoms: C_18  and  C_21
REMARK    6  A    between atoms: C_24  and  C_27
REMARK                            x       y       z     vdW  Elec       q    Type
REMARK                         _______ _______ _______ _____ _____    ______ ____
ROOT
ATOM      1  O   UNL     1      -7.656  -8.931  17.125  0.00  0.00    -0.267 OA
ATOM      3  N   UNL     1      -4.255 -12.304  15.641  0.00  0.00    -0.297 NA
ATOM      4  N   UNL     1      -6.637 -11.018  17.328  0.00  0.00    -0.311 N 
ATOM      7  C   UNL     1      -4.162 -11.298  17.935  0.00  0.00    +0.024 C 
ATOM      8  C   UNL     1      -5.548 -13.277  17.543  0.00  0.00    +0.050 C 
ATOM      9  C   UNL     1      -4.615 -12.614  18.552  0.00  0.00    +0.017 C 
ATOM     10  C   UNL     1      -3.429 -11.563  16.602  0.00  0.00    +0.090 C 
ATOM     11  C   UNL     1      -4.780 -13.545  16.229  0.00  0.00    +0.094 C 
ATOM     12  C   UNL     1      -5.384 -10.385  17.765  0.00  0.00    +0.130 C 
ATOM     13  C   UNL     1      -6.764 -12.408  17.281  0.00  0.00    +0.026 A 
ATOM     15  C   UNL     1      -7.949 -12.967  16.988  0.00  0.00    +0.022 A 
ATOM     16  C   UNL     1      -7.721 -10.160  17.061  0.00  0.00    +0.259 A 
ATOM     18  C   UNL     1      -9.028 -10.814  16.701  0.00  0.00    +0.047 A 
ATOM     19  C   UNL     1      -9.093 -12.154  16.688  0.00  0.00    +0.015 A 
ENDROOT
BRANCH  18  21
ATOM     21  C   UNL     1     -10.216 -10.012  16.360  0.00  0.00    -0.008 A 
ATOM     24  C   UNL     1     -11.037  -9.476  17.351  0.00  0.00    -0.025 A 
ATOM     26  C   UNL     1     -10.511  -9.792  15.015  0.00  0.00    +0.009 A 
ATOM     30  C   UNL     1     -12.156  -8.721  16.996  0.00  0.00    +0.005 A 
ATOM     32  C   UNL     1     -11.630  -9.038  14.660  0.00  0.00    +0.001 A 
ATOM     36  C   UNL     1     -12.452  -8.502  15.650  0.00  0.00    +0.000 A 
BRANCH  24  27
ATOM     27  C   UNL     1     -10.752  -9.690  18.803  0.00  0.00    +0.120 C 
BRANCH  27   6
ATOM      2  O   UNL     1     -12.382 -12.464  21.499  0.00  0.00    -0.377 OA
ATOM      6  N   UNL     1     -11.471 -10.842  19.344  0.00  0.00    -0.294 NA
ATOM     33  C   UNL     1     -12.565 -10.407  20.225  0.00  0.00    +0.113 C 
ATOM     34  C   UNL     1     -10.558 -11.729  20.076  0.00  0.00    +0.113 C 
ATOM     37  C   UNL     1     -13.292 -11.625  20.787  0.00  0.00    +0.175 C 
ATOM     38  C   UNL     1     -11.333 -12.917  20.641  0.00  0.00    +0.175 C 
ENDBRANCH  27   6
ENDBRANCH  24  27
ENDBRANCH  18  21
BRANCH   3  14
ATOM     14  C   UNL     1      -3.510 -12.581  14.415  0.00  0.00    +0.121 C 
BRANCH  14  17
ATOM      5  N   UNL     1      -3.459 -10.155  11.649  0.00  0.00    -0.349 N 
ATOM     17  C   UNL     1      -3.761 -11.539  13.358  0.00  0.00    -0.008 A 
ATOM     20  C   UNL     1      -4.973 -10.827  13.143  0.00  0.00    +0.004 A 
ATOM     22  C   UNL     1      -2.848 -11.104  12.424  0.00  0.00    +0.091 A 
ATOM     23  C   UNL     1      -4.758  -9.965  12.065  0.00  0.00    +0.049 A 
ATOM     25  C   UNL     1      -6.239 -10.832  13.764  0.00  0.00    +0.010 A 
ATOM     28  C   UNL     1      -5.747  -9.106  11.575  0.00  0.00    +0.026 A 
ATOM     29  C   UNL     1      -2.817  -9.459  10.555  0.00  0.00    +0.149 C 
ATOM     31  C   UNL     1      -7.238  -9.977  13.283  0.00  0.00    +0.001 A 
ATOM     35  C   UNL     1      -6.994  -9.128  12.207  0.00  0.00    +0.002 A 
ENDBRANCH  14  17
ENDBRANCH   3  14
TORSDOF 5
ENDMDL
MODEL 5
REMARK VINA RESULT:      -7.1     26.632     32.011
REMARK  Name = 28990896
REMARK  6 active torsions:
REMARK  status: ('A' for Active; 'I' for Inactive)
REMARK    1  A    between atoms: N_3  and  C_14
REMARK    2  A    between atoms: N_5  and  C_29
REMARK    3  A    between atoms: N_6  and  C_27
REMARK    4  A    between atoms: C_14  and  C_17
REMARK    5  A    between atoms: C_18  and  C_21
REMARK    6  A    between atoms: C_24  and  C_27
REMARK                            x       y       z     vdW  Elec       q    Type
REMARK                         _______ _______ _______ _____ _____    ______ ____
ROOT
ATOM      1  O   UNL     1     -14.014   9.747  17.907  0.00  0.00    -0.267 OA
ATOM      3  N   UNL     1     -15.909   8.264  22.307  0.00  0.00    -0.297 NA
ATOM      4  N   UNL     1     -14.190   8.177  19.621  0.00  0.00    -0.311 N 
ATOM      7  C   UNL     1     -16.392   6.998  20.198  0.00  0.00    +0.024 C 
ATOM      8  C   UNL     1     -14.368   6.484  21.475  0.00  0.00    +0.050 C 
ATOM      9  C   UNL     1     -15.491   5.857  20.653  0.00  0.00    +0.017 C 
ATOM     10  C   UNL     1     -16.960   7.744  21.424  0.00  0.00    +0.090 C 
ATOM     11  C   UNL     1     -14.968   7.206  22.703  0.00  0.00    +0.094 C 
ATOM     12  C   UNL     1     -15.593   7.918  19.265  0.00  0.00    +0.130 C 
ATOM     13  C   UNL     1     -13.557   7.451  20.632  0.00  0.00    +0.026 A 
ATOM     15  C   UNL     1     -12.247   7.623  20.866  0.00  0.00    +0.022 A 
ATOM     16  C   UNL     1     -13.498   9.113  18.829  0.00  0.00    +0.259 A 
ATOM     18  C   UNL     1     -12.037   9.311  19.137  0.00  0.00    +0.047 A 
ATOM     19  C   UNL     1     -11.481   8.572  20.110  0.00  0.00    +0.015 A 
ENDROOT
BRANCH  18  21
ATOM     21  C   UNL     1     -11.228  10.296  18.400  0.00  0.00    -0.008 A 
ATOM     24  C   UNL     1     -10.499   9.934  17.268  0.00  0.00    -0.025 A 
ATOM     26  C   UNL     1     -11.199  11.614  18.856  0.00  0.00    +0.009 A 
ATOM     30  C   UNL     1      -9.741  10.890  16.592  0.00  0.00    +0.005 A 
ATOM     32  C   UNL     1     -10.440  12.570  18.180  0.00  0.00    +0.001 A 
ATOM     36  C   UNL     1      -9.711  12.208  17.048  0.00  0.00    +0.000 A 
BRANCH  24  27
ATOM     27  C   UNL     1     -10.506   8.532  16.750  0.00  0.00    +0.120 C 
BRANCH  27   6
ATOM      2  O   UNL     1     -12.132   7.144  13.138  0.00  0.00    -0.377 OA
ATOM      6  N   UNL     1     -10.917   8.462  15.349  0.00  0.00    -0.294 NA
ATOM     33  C   UNL     1     -12.378   8.331  15.239  0.00  0.00    +0.113 C 
ATOM     34  C   UNL     1     -10.259   7.339  14.668  0.00  0.00    +0.113 C 
ATOM     37  C   UNL     1     -12.781   8.248  13.770  0.00  0.00    +0.175 C 
ATOM     38  C   UNL     1     -10.712   7.280  13.211  0.00  0.00    +0.175 C 
ENDBRANCH  27   6
ENDBRANCH  24  27
ENDBRANCH  18  21
BRANCH   3  14
ATOM     14  C   UNL     1     -16.486   8.917  23.480  0.00  0.00    +0.121 C 
BRANCH  14  17
ATOM      5  N   UNL     1     -14.325  10.449  26.034  0.00  0.00    -0.349 N 
ATOM     17  C   UNL     1     -15.439   9.620  24.302  0.00  0.00    -0.008 A 
ATOM     20  C   UNL     1     -14.274  10.273  23.810  0.00  0.00    +0.004 A 
ATOM     22  C   UNL     1     -15.443   9.746  25.673  0.00  0.00    +0.091 A 
ATOM     23  C   UNL     1     -13.592  10.785  24.917  0.00  0.00    +0.049 A 
ATOM     25  C   UNL     1     -13.732  10.478  22.526  0.00  0.00    +0.010 A 
ATOM     28  C   UNL     1     -12.391  11.494  24.803  0.00  0.00    +0.026 A 
ATOM     29  C   UNL     1     -13.979  10.787  27.398  0.00  0.00    +0.149 C 
ATOM     31  C   UNL     1     -12.531  11.186  22.397  0.00  0.00    +0.001 A 
ATOM     35  C   UNL     1     -11.873  11.685  23.519  0.00  0.00    +0.002 A 
ENDBRANCH  14  17
ENDBRANCH   3  14
TORSDOF 5
ENDMDL
MODEL 6
REMARK VINA RESULT:      -7.0     25.497     28.944
REMARK  Name = 28990896
REMARK  6 active torsions:
REMARK  status: ('A' for Active; 'I' for Inactive)
REMARK    1  A    between atoms: N_3  and  C_14
REMARK    2  A    between atoms: N_5  and  C_29
REMARK    3  A    between atoms: N_6  and  C_27
REMARK    4  A    between atoms: C_14  and  C_17
REMARK    5  A    between atoms: C_18  and  C_21
REMARK    6  A    between atoms: C_24  and  C_27
REMARK                            x       y       z     vdW  Elec       q    Type
REMARK                         _______ _______ _______ _____ _____    ______ ____
ROOT
ATOM      1  O   UNL     1      -8.442  -9.034  17.758  0.00  0.00    -0.267 OA
ATOM      3  N   UNL     1      -5.331 -12.009  15.184  0.00  0.00    -0.297 NA
ATOM      4  N   UNL     1      -6.817 -10.704  17.687  0.00  0.00    -0.311 N 
ATOM      7  C   UNL     1      -4.450 -10.297  16.790  0.00  0.00    +0.024 C 
ATOM      8  C   UNL     1      -5.071 -12.516  17.616  0.00  0.00    +0.050 C 
ATOM      9  C   UNL     1      -4.049 -11.392  17.769  0.00  0.00    +0.017 C 
ATOM     10  C   UNL     1      -4.446 -10.848  15.348  0.00  0.00    +0.090 C 
ATOM     11  C   UNL     1      -5.029 -13.058  16.169  0.00  0.00    +0.094 C 
ATOM     12  C   UNL     1      -5.818  -9.738  17.205  0.00  0.00    +0.130 C 
ATOM     13  C   UNL     1      -6.466 -12.028  17.961  0.00  0.00    +0.026 A 
ATOM     15  C   UNL     1      -7.362 -12.864  18.507  0.00  0.00    +0.022 A 
ATOM     16  C   UNL     1      -8.105 -10.203  17.954  0.00  0.00    +0.259 A 
ATOM     18  C   UNL     1      -9.101 -11.172  18.534  0.00  0.00    +0.047 A 
ATOM     19  C   UNL     1      -8.700 -12.427  18.790  0.00  0.00    +0.015 A 
ENDROOT
BRANCH  18  21
ATOM     21  C   UNL     1     -10.490 -10.767  18.811  0.00  0.00    -0.008 A 
ATOM     24  C   UNL     1     -11.474 -10.833  17.826  0.00  0.00    -0.025 A 
ATOM     26  C   UNL     1     -10.811 -10.310  20.089  0.00  0.00    +0.009 A 
ATOM     30  C   UNL     1     -12.780 -10.441  18.118  0.00  0.00    +0.005 A 
ATOM     32  C   UNL     1     -12.118  -9.917  20.381  0.00  0.00    +0.001 A 
ATOM     36  C   UNL     1     -13.102  -9.982  19.396  0.00  0.00    +0.000 A 
BRANCH  24  27
ATOM     27  C   UNL     1     -11.166 -11.318  16.445  0.00  0.00    +0.120 C 
BRANCH  27   6
ATOM      2  O   UNL     1     -10.705  -9.172  12.868  0.00  0.00    -0.377 OA
ATOM      6  N   UNL     1     -10.983 -10.218  15.500  0.00  0.00    -0.294 NA
ATOM     33  C   UNL     1     -12.131 -10.118  14.587  0.00  0.00    +0.113 C 
ATOM     34  C   UNL     1      -9.743 -10.390  14.733  0.00  0.00    +0.113 C 
ATOM     37  C   UNL     1     -11.912  -8.973  13.604  0.00  0.00    +0.175 C 
ATOM     38  C   UNL     1      -9.580  -9.237  13.746  0.00  0.00    +0.175 C 
ENDBRANCH  27   6
ENDBRANCH  24  27
ENDBRANCH  18  21
BRANCH   3  14
ATOM     14  C   UNL     1      -5.260 -12.534  13.822  0.00  0.00    +0.121 C 
BRANCH  14  17
ATOM      5  N   UNL     1      -6.382  -9.959  11.445  0.00  0.00    -0.349 N 
ATOM     17  C   UNL     1      -5.440 -11.450  12.793  0.00  0.00    -0.008 A 
ATOM     20  C   UNL     1      -4.408 -10.799  12.061  0.00  0.00    +0.004 A 
ATOM     22  C   UNL     1      -6.642 -10.913  12.392  0.00  0.00    +0.091 A 
ATOM     23  C   UNL     1      -5.026  -9.868  11.222  0.00  0.00    +0.049 A 
ATOM     25  C   UNL     1      -3.004 -10.912  12.031  0.00  0.00    +0.010 A 
ATOM     28  C   UNL     1      -4.306  -9.041  10.352  0.00  0.00    +0.026 A 
ATOM     29  C   UNL     1      -7.397  -9.172  10.780  0.00  0.00    +0.149 C 
ATOM     31  C   UNL     1      -2.271 -10.091  11.165  0.00  0.00    +0.001 A 
ATOM     35  C   UNL     1      -2.915  -9.172  10.339  0.00  0.00    +0.002 A 
ENDBRANCH  14  17
ENDBRANCH   3  14
TORSDOF 5
ENDMDL
MODEL 7
REMARK VINA RESULT:      -7.0     25.232     28.689
REMARK  Name = 28990896
REMARK  6 active torsions:
REMARK  status: ('A' for Active; 'I' for Inactive)
REMARK    1  A    between atoms: N_3  and  C_14
REMARK    2  A    between atoms: N_5  and  C_29
REMARK    3  A    between atoms: N_6  and  C_27
REMARK    4  A    between atoms: C_14  and  C_17
REMARK    5  A    between atoms: C_18  and  C_21
REMARK    6  A    between atoms: C_24  and  C_27
REMARK                            x       y       z     vdW  Elec       q    Type
REMARK                         _______ _______ _______ _____ _____    ______ ____
ROOT
ATOM      1  O   UNL     1      -7.625 -11.877  14.742  0.00  0.00    -0.267 OA
ATOM      3  N   UNL     1      -3.263 -12.999  12.537  0.00  0.00    -0.297 NA
ATOM      4  N   UNL     1      -5.493 -11.268  14.023  0.00  0.00    -0.311 N 
ATOM      7  C   UNL     1      -4.806 -11.285  11.554  0.00  0.00    +0.024 C 
ATOM      8  C   UNL     1      -3.186 -10.609  13.260  0.00  0.00    +0.050 C 
ATOM      9  C   UNL     1      -3.857 -10.166  11.962  0.00  0.00    +0.017 C 
ATOM     10  C   UNL     1      -4.020 -12.597  11.344  0.00  0.00    +0.090 C 
ATOM     11  C   UNL     1      -2.394 -11.913  13.013  0.00  0.00    +0.094 C 
ATOM     12  C   UNL     1      -5.903 -11.417  12.619  0.00  0.00    +0.130 C 
ATOM     13  C   UNL     1      -4.215 -10.813  14.357  0.00  0.00    +0.026 A 
ATOM     15  C   UNL     1      -3.898 -10.575  15.639  0.00  0.00    +0.022 A 
ATOM     16  C   UNL     1      -6.478 -11.507  15.000  0.00  0.00    +0.259 A 
ATOM     18  C   UNL     1      -6.083 -11.266  16.433  0.00  0.00    +0.047 A 
ATOM     19  C   UNL     1      -4.846 -10.813  16.690  0.00  0.00    +0.015 A 
ENDROOT
BRANCH  18  21
ATOM     21  C   UNL     1      -7.021 -11.526  17.538  0.00  0.00    -0.008 A 
ATOM     24  C   UNL     1      -7.953 -10.569  17.938  0.00  0.00    -0.025 A 
ATOM     26  C   UNL     1      -6.964 -12.758  18.189  0.00  0.00    +0.009 A 
ATOM     30  C   UNL     1      -8.828 -10.844  18.989  0.00  0.00    +0.005 A 
ATOM     32  C   UNL     1      -7.838 -13.033  19.241  0.00  0.00    +0.001 A 
ATOM     36  C   UNL     1      -8.770 -12.077  19.641  0.00  0.00    +0.000 A 
BRANCH  24  27
ATOM     27  C   UNL     1      -8.045  -9.238  17.263  0.00  0.00    +0.120 C 
BRANCH  27   6
ATOM      2  O   UNL     1     -11.219  -7.467  15.164  0.00  0.00    -0.377 OA
ATOM      6  N   UNL     1      -9.372  -8.991  16.703  0.00  0.00    -0.294 NA
ATOM     33  C   UNL     1      -9.325  -8.982  15.234  0.00  0.00    +0.113 C 
ATOM     34  C   UNL     1      -9.918  -7.720  17.197  0.00  0.00    +0.113 C 
ATOM     37  C   UNL     1     -10.718  -8.711  14.673  0.00  0.00    +0.175 C 
ATOM     38  C   UNL     1     -11.298  -7.480  16.590  0.00  0.00    +0.175 C 
ENDBRANCH  27   6
ENDBRANCH  24  27
ENDBRANCH  18  21
BRANCH   3  14
ATOM     14  C   UNL     1      -2.492 -14.213  12.283  0.00  0.00    +0.121 C 
BRANCH  14  17
ATOM      5  N   UNL     1      -1.607 -16.490  15.035  0.00  0.00    -0.349 N 
ATOM     17  C   UNL     1      -2.390 -15.080  13.510  0.00  0.00    -0.008 A 
ATOM     20  C   UNL     1      -3.384 -15.244  14.514  0.00  0.00    +0.004 A 
ATOM     22  C   UNL     1      -1.310 -15.858  13.857  0.00  0.00    +0.091 A 
ATOM     23  C   UNL     1      -2.868 -16.134  15.460  0.00  0.00    +0.049 A 
ATOM     25  C   UNL     1      -4.677 -14.721  14.711  0.00  0.00    +0.010 A 
ATOM     28  C   UNL     1      -3.584 -16.527  16.596  0.00  0.00    +0.026 A 
ATOM     29  C   UNL     1      -0.716 -17.401  15.720  0.00  0.00    +0.149 C 
ATOM     31  C   UNL     1      -5.404 -15.106  15.844  0.00  0.00    +0.001 A 
ATOM     35  C   UNL     1      -4.864 -15.996  16.770  0.00  0.00    +0.002 A 
ENDBRANCH  14  17
ENDBRANCH   3  14
TORSDOF 5
ENDMDL
MODEL 8
REMARK VINA RESULT:      -7.0     33.831     37.426
REMARK  Name = 28990896
REMARK  6 active torsions:
REMARK  status: ('A' for Active; 'I' for Inactive)
REMARK    1  A    between atoms: N_3  and  C_14
REMARK    2  A    between atoms: N_5  and  C_29
REMARK    3  A    between atoms: N_6  and  C_27
REMARK    4  A    between atoms: C_14  and  C_17
REMARK    5  A    between atoms: C_18  and  C_21
REMARK    6  A    between atoms: C_24  and  C_27
REMARK                            x       y       z     vdW  Elec       q    Type
REMARK                         _______ _______ _______ _____ _____    ______ ____
ROOT
ATOM      1  O   UNL     1       9.490  -9.394  32.567  0.00  0.00    -0.267 OA
ATOM      3  N   UNL     1       8.700  -6.080  36.248  0.00  0.00    -0.297 NA
ATOM      4  N   UNL     1       8.776  -7.299  33.301  0.00  0.00    -0.311 N 
ATOM      7  C   UNL     1      10.350  -5.613  34.419  0.00  0.00    +0.024 C 
ATOM      8  C   UNL     1       7.992  -5.041  34.090  0.00  0.00    +0.050 C 
ATOM      9  C   UNL     1       9.418  -4.568  33.819  0.00  0.00    +0.017 C 
ATOM     10  C   UNL     1      10.094  -5.741  35.936  0.00  0.00    +0.090 C 
ATOM     11  C   UNL     1       7.763  -5.140  35.615  0.00  0.00    +0.094 C 
ATOM     12  C   UNL     1      10.152  -6.940  33.673  0.00  0.00    +0.130 C 
ATOM     13  C   UNL     1       7.732  -6.380  33.425  0.00  0.00    +0.026 A 
ATOM     15  C   UNL     1       6.506  -6.687  32.975  0.00  0.00    +0.022 A 
ATOM     16  C   UNL     1       8.587  -8.569  32.724  0.00  0.00    +0.259 A 
ATOM     18  C   UNL     1       7.193  -8.901  32.259  0.00  0.00    +0.047 A 
ATOM     19  C   UNL     1       6.235  -7.970  32.390  0.00  0.00    +0.015 A 
ENDROOT
BRANCH  18  21
ATOM     21  C   UNL     1       6.873 -10.217  31.681  0.00  0.00    -0.008 A 
ATOM     24  C   UNL     1       6.444 -11.275  32.481  0.00  0.00    -0.025 A 
ATOM     26  C   UNL     1       7.009 -10.393  30.304  0.00  0.00    +0.009 A 
ATOM     30  C   UNL     1       6.149 -12.511  31.903  0.00  0.00    +0.005 A 
ATOM     32  C   UNL     1       6.715 -11.629  29.727  0.00  0.00    +0.001 A 
ATOM     36  C   UNL     1       6.286 -12.688  30.526  0.00  0.00    +0.000 A 
BRANCH  24  27
ATOM     27  C   UNL     1       6.287 -11.123  33.960  0.00  0.00    +0.120 C 
BRANCH  27   6
ATOM      2  O   UNL     1       2.811 -10.834  36.295  0.00  0.00    -0.377 OA
ATOM      6  N   UNL     1       4.889 -10.958  34.353  0.00  0.00    -0.294 NA
ATOM     33  C   UNL     1       4.728  -9.792  35.234  0.00  0.00    +0.113 C 
ATOM     34  C   UNL     1       4.390 -12.167  35.022  0.00  0.00    +0.113 C 
ATOM     37  C   UNL     1       3.265  -9.648  35.642  0.00  0.00    +0.175 C 
ATOM     38  C   UNL     1       2.933 -11.967  35.434  0.00  0.00    +0.175 C 
ENDBRANCH  27   6
ENDBRANCH  24  27
ENDBRANCH  18  21
BRANCH   3  14
ATOM     14  C   UNL     1       8.486  -6.140  37.692  0.00  0.00    +0.121 C 
BRANCH  14  17
ATOM      5  N   UNL     1       6.866  -9.312  38.614  0.00  0.00    -0.349 N 
ATOM     17  C   UNL     1       7.584  -7.281  38.079  0.00  0.00    -0.008 A 
ATOM     20  C   UNL     1       6.181  -7.212  38.304  0.00  0.00    +0.004 A 
ATOM     22  C   UNL     1       7.976  -8.586  38.276  0.00  0.00    +0.091 A 
ATOM     23  C   UNL     1       5.754  -8.500  38.638  0.00  0.00    +0.049 A 
ATOM     25  C   UNL     1       5.228  -6.174  38.256  0.00  0.00    +0.010 A 
ATOM     28  C   UNL     1       4.419  -8.802  38.928  0.00  0.00    +0.026 A 
ATOM     29  C   UNL     1       6.876 -10.731  38.898  0.00  0.00    +0.149 C 
ATOM     31  C   UNL     1       3.889  -6.463  38.544  0.00  0.00    +0.001 A 
ATOM     35  C   UNL     1       3.493  -7.757  38.873  0.00  0.00    +0.002 A 
ENDBRANCH  14  17
ENDBRANCH   3  14
TORSDOF 5
ENDMDL
MODEL 9
REMARK VINA RESULT:      -6.8     23.684     27.211
REMARK  Name = 28990896
REMARK  6 active torsions:
REMARK  status: ('A' for Active; 'I' for Inactive)
REMARK    1  A    between atoms: N_3  and  C_14
REMARK    2  A    between atoms: N_5  and  C_29
REMARK    3  A    between atoms: N_6  and  C_27
REMARK    4  A    between atoms: C_14  and  C_17
REMARK    5  A    between atoms: C_18  and  C_21
REMARK    6  A    between atoms: C_24  and  C_27
REMARK                            x       y       z     vdW  Elec       q    Type
REMARK                         _______ _______ _______ _____ _____    ______ ____
ROOT
ATOM      1  O   UNL     1      -5.527 -12.325  10.834  0.00  0.00    -0.267 OA
ATOM      3  N   UNL     1      -3.300 -10.990  15.124  0.00  0.00    -0.297 NA
ATOM      4  N   UNL     1      -3.608 -11.841  12.065  0.00  0.00    -0.311 N 
ATOM      7  C   UNL     1      -2.873 -13.233  14.089  0.00  0.00    +0.024 C 
ATOM      8  C   UNL     1      -1.533 -11.308  13.387  0.00  0.00    +0.050 C 
ATOM      9  C   UNL     1      -1.468 -12.803  13.688  0.00  0.00    +0.017 C 
ATOM     10  C   UNL     1      -3.334 -12.443  15.332  0.00  0.00    +0.090 C 
ATOM     11  C   UNL     1      -1.979 -10.545  14.655  0.00  0.00    +0.094 C 
ATOM     12  C   UNL     1      -3.810 -13.043  12.888  0.00  0.00    +0.130 C 
ATOM     13  C   UNL     1      -2.484 -11.030  12.238  0.00  0.00    +0.026 A 
ATOM     15  C   UNL     1      -2.260 -10.003  11.403  0.00  0.00    +0.022 A 
ATOM     16  C   UNL     1      -4.543 -11.612  11.038  0.00  0.00    +0.259 A 
ATOM     18  C   UNL     1      -4.284 -10.433  10.139  0.00  0.00    +0.047 A 
ATOM     19  C   UNL     1      -3.179  -9.700  10.343  0.00  0.00    +0.015 A 
ENDROOT
BRANCH  18  21
ATOM     21  C   UNL     1      -5.221 -10.075   9.059  0.00  0.00    -0.008 A 
ATOM     24  C   UNL     1      -6.476  -9.536   9.338  0.00  0.00    -0.025 A 
ATOM     26  C   UNL     1      -4.830 -10.285   7.737  0.00  0.00    +0.009 A 
ATOM     30  C   UNL     1      -7.341  -9.208   8.294  0.00  0.00    +0.005 A 
ATOM     32  C   UNL     1      -5.695  -9.958   6.693  0.00  0.00    +0.001 A 
ATOM     36  C   UNL     1      -6.951  -9.420   6.971  0.00  0.00    +0.000 A 
BRANCH  24  27
ATOM     27  C   UNL     1      -6.929  -9.296  10.742  0.00  0.00    +0.120 C 
BRANCH  27   6
ATOM      2  O   UNL     1     -10.273 -10.772  12.806  0.00  0.00    -0.377 OA
ATOM      6  N   UNL     1      -8.119 -10.075  11.080  0.00  0.00    -0.294 NA
ATOM     33  C   UNL     1      -9.287  -9.198  11.246  0.00  0.00    +0.113 C 
ATOM     34  C   UNL     1      -7.900 -10.857  12.304  0.00  0.00    +0.113 C 
ATOM     37  C   UNL     1     -10.512 -10.030  11.610  0.00  0.00    +0.175 C 
ATOM     38  C   UNL     1      -9.159 -11.652  12.642  0.00  0.00    +0.175 C 
ENDBRANCH  27   6
ENDBRANCH  24  27
ENDBRANCH  18  21
BRANCH   3  14
ATOM     14  C   UNL     1      -3.692 -10.277  16.338  0.00  0.00    +0.121 C 
BRANCH  14  17
ATOM      5  N   UNL     1      -7.349  -9.913  16.167  0.00  0.00    -0.349 N 
ATOM     17  C   UNL     1      -5.186 -10.261  16.522  0.00  0.00    -0.008 A 
ATOM     20  C   UNL     1      -5.907 -10.785  17.630  0.00  0.00    +0.004 A 
ATOM     22  C   UNL     1      -6.099  -9.731  15.639  0.00  0.00    +0.091 A 
ATOM     23  C   UNL     1      -7.263 -10.554  17.383  0.00  0.00    +0.049 A 
ATOM     25  C   UNL     1      -5.537 -11.436  18.824  0.00  0.00    +0.010 A 
ATOM     28  C   UNL     1      -8.270 -10.944  18.274  0.00  0.00    +0.026 A 
ATOM     29  C   UNL     1      -8.575  -9.485  15.529  0.00  0.00    +0.149 C 
ATOM     31  C   UNL     1      -6.535 -11.831  19.724  0.00  0.00    +0.001 A 
ATOM     35  C   UNL     1      -7.879 -11.587  19.451  0.00  0.00    +0.002 A 
ENDBRANCH  14  17
ENDBRANCH   3  14
TORSDOF 5
ENDMDL
MODEL 10
REMARK VINA RESULT:      -6.8     24.824     28.222
REMARK  Name = 28990896
REMARK  6 active torsions:
REMARK  status: ('A' for Active; 'I' for Inactive)
REMARK    1  A    between atoms: N_3  and  C_14
REMARK    2  A    between atoms: N_5  and  C_29
REMARK    3  A    between atoms: N_6  and  C_27
REMARK    4  A    between atoms: C_14  and  C_17
REMARK    5  A    between atoms: C_18  and  C_21
REMARK    6  A    between atoms: C_24  and  C_27
REMARK                            x       y       z     vdW  Elec       q    Type
REMARK                         _______ _______ _______ _____ _____    ______ ____
ROOT
ATOM      1  O   UNL     1      -7.609  -8.883  16.364  0.00  0.00    -0.267 OA
ATOM      3  N   UNL     1      -4.398 -12.685  15.746  0.00  0.00    -0.297 NA
ATOM      4  N   UNL     1      -6.542 -10.795  17.163  0.00  0.00    -0.311 N 
ATOM      7  C   UNL     1      -4.003 -10.930  17.491  0.00  0.00    +0.024 C 
ATOM      8  C   UNL     1      -5.401 -12.867  18.026  0.00  0.00    +0.050 C 
ATOM      9  C   UNL     1      -4.346 -11.921  18.595  0.00  0.00    +0.017 C 
ATOM     10  C   UNL     1      -3.459 -11.680  16.256  0.00  0.00    +0.090 C 
ATOM     11  C   UNL     1      -4.819 -13.614  16.805  0.00  0.00    +0.094 C 
ATOM     12  C   UNL     1      -5.250 -10.094  17.171  0.00  0.00    +0.130 C 
ATOM     13  C   UNL     1      -6.654 -12.105  17.636  0.00  0.00    +0.026 A 
ATOM     15  C   UNL     1      -7.859 -12.688  17.726  0.00  0.00    +0.022 A 
ATOM     16  C   UNL     1      -7.665 -10.051  16.755  0.00  0.00    +0.259 A 
ATOM     18  C   UNL     1      -9.000 -10.742  16.833  0.00  0.00    +0.047 A 
ATOM     19  C   UNL     1      -9.046 -11.995  17.312  0.00  0.00    +0.015 A 
ENDROOT
BRANCH  18  21
ATOM     21  C   UNL     1     -10.235 -10.072  16.390  0.00  0.00    -0.008 A 
ATOM     24  C   UNL     1     -10.646 -10.117  15.059  0.00  0.00    -0.025 A 
ATOM     26  C   UNL     1     -10.997  -9.383  17.333  0.00  0.00    +0.009 A 
ATOM     30  C   UNL     1     -11.820  -9.472  14.670  0.00  0.00    +0.005 A 
ATOM     32  C   UNL     1     -12.170  -8.737  16.944  0.00  0.00    +0.001 A 
ATOM     36  C   UNL     1     -12.582  -8.781  15.613  0.00  0.00    +0.000 A 
BRANCH  24  27
ATOM     27  C   UNL     1      -9.855 -10.847  14.021  0.00  0.00    +0.120 C 
BRANCH  27   6
ATOM      2  O   UNL     1      -7.537  -9.393  10.839  0.00  0.00    -0.377 OA
ATOM      6  N   UNL     1      -9.182  -9.936  13.096  0.00  0.00    -0.294 NA
ATOM     33  C   UNL     1      -9.671 -10.131  11.724  0.00  0.00    +0.113 C 
ATOM     34  C   UNL     1      -7.727 -10.126  13.144  0.00  0.00    +0.113 C 
ATOM     37  C   UNL     1      -8.947  -9.180  10.776  0.00  0.00    +0.175 C 
ATOM     38  C   UNL     1      -7.048  -9.173  12.163  0.00  0.00    +0.175 C 
ENDBRANCH  27   6
ENDBRANCH  24  27
ENDBRANCH  18  21
BRANCH   3  14
ATOM     14  C   UNL     1      -3.827 -13.409  14.612  0.00  0.00    +0.121 C 
BRANCH  14  17
ATOM      5  N   UNL     1      -5.391 -12.399  11.439  0.00  0.00    -0.349 N 
ATOM     17  C   UNL     1      -4.247 -12.812  13.296  0.00  0.00    -0.008 A 
ATOM     20  C   UNL     1      -3.573 -11.786  12.578  0.00  0.00    +0.004 A 
ATOM     22  C   UNL     1      -5.361 -13.169  12.570  0.00  0.00    +0.091 A 
ATOM     23  C   UNL     1      -4.311 -11.545  11.417  0.00  0.00    +0.049 A 
ATOM     25  C   UNL     1      -2.402 -11.035  12.805  0.00  0.00    +0.010 A 
ATOM     28  C   UNL     1      -3.935 -10.587  10.468  0.00  0.00    +0.026 A 
ATOM     29  C   UNL     1      -6.415 -12.485  10.421  0.00  0.00    +0.149 C 
ATOM     31  C   UNL     1      -2.014 -10.074  11.864  0.00  0.00    +0.001 A 
ATOM     35  C   UNL     1      -2.770  -9.856  10.714  0.00  0.00    +0.002 A 
ENDBRANCH  14  17
ENDBRANCH   3  14
TORSDOF 5
ENDMDL
