MODEL 1
REMARK VINA RESULT:      -6.2      0.000      0.000
REMARK  Name = 44716748
REMARK  14 active torsions:
REMARK  status: ('A' for Active; 'I' for Inactive)
REMARK    1  A    between atoms: O_2  and  C_12
REMARK    2  A    between atoms: O_4  and  C_28
REMARK    3  A    between atoms: O_4  and  C_30
REMARK    4  A    between atoms: N_7  and  C_26
REMARK    5  A    between atoms: N_9  and  C_29
REMARK    6  A    between atoms: N_9  and  C_31
REMARK    7  A    between atoms: N_9  and  C_32
REMARK    8  A    between atoms: C_10  and  C_18
REMARK    9  A    between atoms: C_13  and  C_19
REMARK   10  A    between atoms: C_15  and  C_22
REMARK   11  A    between atoms: C_19  and  C_23
REMARK   12  A    between atoms: C_19  and  C_24
REMARK   13  A    between atoms: C_26  and  C_28
REMARK   14  A    between atoms: C_27  and  C_29
REMARK                            x       y       z     vdW  Elec       q    Type
REMARK                         _______ _______ _______ _____ _____    ______ ____
ROOT
ATOM      1  S   UNL     1      -5.279 -10.527   7.267  0.00  0.00    -0.057 S 
ATOM      5  O   UNL     1      -8.470  -7.100   7.171  0.00  0.00    -0.274 OA
ATOM      6  N   UNL     1      -6.557  -8.828   8.739  0.00  0.00    -0.229 NA
ATOM      8  N   UNL     1      -7.052  -8.811   6.381  0.00  0.00    -0.264 N 
ATOM     10  C   UNL     1      -3.536 -10.804  10.982  0.00  0.00    -0.022 C 
ATOM     11  C   UNL     1      -4.825 -10.394  11.799  0.00  0.00    +0.033 C 
ATOM     12  C   UNL     1      -4.472 -10.029  13.269  0.00  0.00    +0.123 C 
ATOM     13  C   UNL     1      -3.638 -11.122  13.972  0.00  0.00    +0.029 C 
ATOM     14  C   UNL     1      -2.770 -11.914  11.741  0.00  0.00    +0.008 C 
ATOM     15  C   UNL     1      -5.665  -9.276  11.056  0.00  0.00    +0.042 C 
ATOM     16  C   UNL     1      -2.403 -11.523  13.165  0.00  0.00    +0.007 C 
ATOM     17  C   UNL     1      -3.951 -11.387   9.596  0.00  0.00    +0.051 C 
ATOM     18  C   UNL     1      -2.583  -9.600  10.756  0.00  0.00    +0.012 C 
ATOM     20  C   UNL     1      -5.732  -9.560   9.574  0.00  0.00    +0.057 A 
ATOM     21  C   UNL     1      -4.951 -10.502   8.938  0.00  0.00    +0.015 A 
ATOM     22  C   UNL     1      -7.084  -9.109  11.620  0.00  0.00    +0.014 C 
ATOM     25  C   UNL     1      -6.411  -9.258   7.505  0.00  0.00    +0.165 A 
ATOM     27  C   UNL     1      -8.027  -7.783   6.253  0.00  0.00    +0.233 C 
ATOM     35  H   UNL     1      -6.780  -9.300   5.531  0.00  0.00    +0.157 HD
ENDROOT
BRANCH  12   2
ATOM      2  O   UNL     1      -5.676  -9.869  14.019  0.00  0.00    -0.391 OA
ATOM     33  H   UNL     1      -6.233 -10.652  13.866  0.00  0.00    +0.210 HD
ENDBRANCH  12   2
BRANCH  13  19
ATOM     19  C   UNL     1      -3.213 -10.696  15.382  0.00  0.00    +0.077 C 
ATOM     23  C   UNL     1      -1.766 -11.102  15.640  0.00  0.00    +0.017 C 
BRANCH  19  24
ATOM      3  O   UNL     1      -4.237 -12.518  16.606  0.00  0.00    -0.276 OA
ATOM      7  N   UNL     1      -4.890 -10.346  17.096  0.00  0.00    -0.313 N 
ATOM     24  C   UNL     1      -4.155 -11.306  16.416  0.00  0.00    +0.216 C 
ATOM     34  H   UNL     1      -4.723  -9.361  16.920  0.00  0.00    +0.149 HD
BRANCH   7  26
ATOM     26  C   UNL     1      -5.850 -10.680  18.121  0.00  0.00    +0.132 C 
BRANCH  26  28
ATOM     28  C   UNL     1      -7.146  -9.910  17.946  0.00  0.00    +0.178 C 
BRANCH  28   4
ATOM      4  O   UNL     1      -7.251  -9.464  16.599  0.00  0.00    -0.381 OA
ATOM     30  C   UNL     1      -8.599  -9.187  16.245  0.00  0.00    +0.194 C 
ENDBRANCH  28   4
ENDBRANCH  26  28
ENDBRANCH   7  26
ENDBRANCH  19  24
ENDBRANCH  13  19
BRANCH  27  29
ATOM     29  C   UNL     1      -8.483  -7.618   4.814  0.00  0.00    +0.180 C 
BRANCH  29   9
ATOM      9  N   UNL     1      -9.937  -7.562   4.771  0.00  0.00    -0.300 NA
ATOM     31  C   UNL     1     -10.392  -6.811   3.600  0.00  0.00    +0.105 C 
ATOM     32  C   UNL     1     -10.506  -8.912   4.759  0.00  0.00    +0.105 C 
ENDBRANCH  29   9
ENDBRANCH  27  29
TORSDOF 8
ENDMDL
MODEL 2
REMARK VINA RESULT:      -6.1     28.211     31.087
REMARK  Name = 44716748
REMARK  14 active torsions:
REMARK  status: ('A' for Active; 'I' for Inactive)
REMARK    1  A    between atoms: O_2  and  C_12
REMARK    2  A    between atoms: O_4  and  C_28
REMARK    3  A    between atoms: O_4  and  C_30
REMARK    4  A    between atoms: N_7  and  C_26
REMARK    5  A    between atoms: N_9  and  C_29
REMARK    6  A    between atoms: N_9  and  C_31
REMARK    7  A    between atoms: N_9  and  C_32
REMARK    8  A    between atoms: C_10  and  C_18
REMARK    9  A    between atoms: C_13  and  C_19
REMARK   10  A    between atoms: C_15  and  C_22
REMARK   11  A    between atoms: C_19  and  C_23
REMARK   12  A    between atoms: C_19  and  C_24
REMARK   13  A    between atoms: C_26  and  C_28
REMARK   14  A    between atoms: C_27  and  C_29
REMARK                            x       y       z     vdW  Elec       q    Type
REMARK                         _______ _______ _______ _____ _____    ______ ____
ROOT
ATOM      1  S   UNL     1      16.972   5.829  18.948  0.00  0.00    -0.057 S 
ATOM      5  O   UNL     1      20.589   6.710  21.789  0.00  0.00    -0.274 OA
ATOM      6  N   UNL     1      17.787   7.350  20.874  0.00  0.00    -0.229 NA
ATOM      8  N   UNL     1      19.330   5.675  20.085  0.00  0.00    -0.264 N 
ATOM     10  C   UNL     1      13.667   8.010  20.061  0.00  0.00    -0.022 C 
ATOM     11  C   UNL     1      14.469   9.276  20.564  0.00  0.00    +0.033 C 
ATOM     12  C   UNL     1      13.568  10.216  21.414  0.00  0.00    +0.123 C 
ATOM     13  C   UNL     1      12.248  10.585  20.701  0.00  0.00    +0.029 C 
ATOM     14  C   UNL     1      12.375   8.464  19.342  0.00  0.00    +0.008 C 
ATOM     15  C   UNL     1      15.819   8.873  21.287  0.00  0.00    +0.042 C 
ATOM     16  C   UNL     1      11.490   9.353  20.205  0.00  0.00    +0.007 C 
ATOM     17  C   UNL     1      14.525   7.219  19.026  0.00  0.00    +0.051 C 
ATOM     18  C   UNL     1      13.287   7.061  21.229  0.00  0.00    +0.012 C 
ATOM     20  C   UNL     1      16.506   7.754  20.542  0.00  0.00    +0.057 A 
ATOM     21  C   UNL     1      15.908   7.019  19.539  0.00  0.00    +0.015 A 
ATOM     22  C   UNL     1      16.786  10.052  21.466  0.00  0.00    +0.014 C 
ATOM     25  C   UNL     1      18.140   6.352  20.092  0.00  0.00    +0.165 A 
ATOM     27  C   UNL     1      20.476   5.868  20.904  0.00  0.00    +0.233 C 
ATOM     35  H   UNL     1      19.378   4.938  19.385  0.00  0.00    +0.157 HD
ENDROOT
BRANCH  12   2
ATOM      2  O   UNL     1      14.265  11.436  21.669  0.00  0.00    -0.391 OA
ATOM     33  H   UNL     1      14.080  11.701  22.587  0.00  0.00    +0.210 HD
ENDBRANCH  12   2
BRANCH  13  19
ATOM     19  C   UNL     1      11.331  11.424  21.598  0.00  0.00    +0.077 C 
ATOM     23  C   UNL     1      11.511  12.907  21.290  0.00  0.00    +0.017 C 
BRANCH  19  24
ATOM      3  O   UNL     1      11.309  10.058  23.598  0.00  0.00    -0.276 OA
ATOM      7  N   UNL     1      12.257  12.174  23.709  0.00  0.00    -0.313 N 
ATOM     24  C   UNL     1      11.619  11.122  23.065  0.00  0.00    +0.216 C 
ATOM     34  H   UNL     1      12.529  12.998  23.184  0.00  0.00    +0.149 HD
BRANCH   7  26
ATOM     26  C   UNL     1      12.630  12.123  25.103  0.00  0.00    +0.132 C 
BRANCH  26  28
ATOM     28  C   UNL     1      14.105  11.808  25.274  0.00  0.00    +0.178 C 
BRANCH  28   4
ATOM      4  O   UNL     1      14.293  11.076  26.480  0.00  0.00    -0.381 OA
ATOM     30  C   UNL     1      15.395  11.575  27.225  0.00  0.00    +0.194 C 
ENDBRANCH  28   4
ENDBRANCH  26  28
ENDBRANCH   7  26
ENDBRANCH  19  24
ENDBRANCH  13  19
BRANCH  27  29
ATOM     29  C   UNL     1      21.587   4.894  20.552  0.00  0.00    +0.180 C 
BRANCH  29   9
ATOM      9  N   UNL     1      22.450   4.706  21.709  0.00  0.00    -0.300 NA
ATOM     31  C   UNL     1      22.194   3.410  22.341  0.00  0.00    +0.105 C 
ATOM     32  C   UNL     1      23.860   4.811  21.325  0.00  0.00    +0.105 C 
ENDBRANCH  29   9
ENDBRANCH  27  29
TORSDOF 8
ENDMDL
MODEL 3
REMARK VINA RESULT:      -6.0     27.964     31.297
REMARK  Name = 44716748
REMARK  14 active torsions:
REMARK  status: ('A' for Active; 'I' for Inactive)
REMARK    1  A    between atoms: O_2  and  C_12
REMARK    2  A    between atoms: O_4  and  C_28
REMARK    3  A    between atoms: O_4  and  C_30
REMARK    4  A    between atoms: N_7  and  C_26
REMARK    5  A    between atoms: N_9  and  C_29
REMARK    6  A    between atoms: N_9  and  C_31
REMARK    7  A    between atoms: N_9  and  C_32
REMARK    8  A    between atoms: C_10  and  C_18
REMARK    9  A    between atoms: C_13  and  C_19
REMARK   10  A    between atoms: C_15  and  C_22
REMARK   11  A    between atoms: C_19  and  C_23
REMARK   12  A    between atoms: C_19  and  C_24
REMARK   13  A    between atoms: C_26  and  C_28
REMARK   14  A    between atoms: C_27  and  C_29
REMARK                            x       y       z     vdW  Elec       q    Type
REMARK                         _______ _______ _______ _____ _____    ______ ____
ROOT
ATOM      1  S   UNL     1      19.269   5.290  20.362  0.00  0.00    -0.057 S 
ATOM      5  O   UNL     1      21.534   7.099  24.040  0.00  0.00    -0.274 OA
ATOM      6  N   UNL     1      19.281   7.257  22.040  0.00  0.00    -0.229 NA
ATOM      8  N   UNL     1      21.022   5.609  22.285  0.00  0.00    -0.264 N 
ATOM     10  C   UNL     1      15.769   7.329  19.646  0.00  0.00    -0.022 C 
ATOM     11  C   UNL     1      16.310   8.744  20.097  0.00  0.00    +0.033 C 
ATOM     12  C   UNL     1      15.145   9.752  20.313  0.00  0.00    +0.123 C 
ATOM     13  C   UNL     1      14.190   9.831  19.102  0.00  0.00    +0.029 C 
ATOM     14  C   UNL     1      14.842   7.493  18.419  0.00  0.00    +0.008 C 
ATOM     15  C   UNL     1      17.289   8.636  21.337  0.00  0.00    +0.042 C 
ATOM     16  C   UNL     1      13.688   8.455  18.665  0.00  0.00    +0.007 C 
ATOM     17  C   UNL     1      16.962   6.422  19.212  0.00  0.00    +0.051 C 
ATOM     18  C   UNL     1      14.984   6.618  20.780  0.00  0.00    +0.012 C 
ATOM     20  C   UNL     1      18.217   7.456  21.178  0.00  0.00    +0.057 A 
ATOM     21  C   UNL     1      18.050   6.470  20.227  0.00  0.00    +0.015 A 
ATOM     22  C   UNL     1      18.106   9.914  21.577  0.00  0.00    +0.014 C 
ATOM     25  C   UNL     1      19.912   6.155  21.698  0.00  0.00    +0.165 A 
ATOM     27  C   UNL     1      21.772   6.081  23.398  0.00  0.00    +0.233 C 
ATOM     35  H   UNL     1      21.339   4.749  21.844  0.00  0.00    +0.157 HD
ENDROOT
BRANCH  12   2
ATOM      2  O   UNL     1      15.682  11.059  20.514  0.00  0.00    -0.391 OA
ATOM     33  H   UNL     1      16.179  11.307  19.716  0.00  0.00    +0.210 HD
ENDBRANCH  12   2
BRANCH  13  19
ATOM     19  C   UNL     1      12.995  10.750  19.378  0.00  0.00    +0.077 C 
ATOM     23  C   UNL     1      13.357  12.195  19.053  0.00  0.00    +0.017 C 
BRANCH  19  24
ATOM      3  O   UNL     1      13.074  11.221  21.753  0.00  0.00    -0.276 OA
ATOM      7  N   UNL     1      11.503   9.701  20.975  0.00  0.00    -0.313 N 
ATOM     24  C   UNL     1      12.549  10.602  20.830  0.00  0.00    +0.216 C 
ATOM     34  H   UNL     1      11.087   9.272  20.155  0.00  0.00    +0.149 HD
BRANCH   7  26
ATOM     26  C   UNL     1      10.912   9.392  22.255  0.00  0.00    +0.132 C 
BRANCH  26  28
ATOM     28  C   UNL     1      10.545   7.923  22.361  0.00  0.00    +0.178 C 
BRANCH  28   4
ATOM      4  O   UNL     1      11.674   7.130  22.013  0.00  0.00    -0.381 OA
ATOM     30  C   UNL     1      11.282   5.871  21.483  0.00  0.00    +0.194 C 
ENDBRANCH  28   4
ENDBRANCH  26  28
ENDBRANCH   7  26
ENDBRANCH  19  24
ENDBRANCH  13  19
BRANCH  27  29
ATOM     29  C   UNL     1      22.942   5.166  23.714  0.00  0.00    +0.180 C 
BRANCH  29   9
ATOM      9  N   UNL     1      22.454   3.973  24.391  0.00  0.00    -0.300 NA
ATOM     31  C   UNL     1      22.893   2.765  23.690  0.00  0.00    +0.105 C 
ATOM     32  C   UNL     1      22.910   3.945  25.783  0.00  0.00    +0.105 C 
ENDBRANCH  29   9
ENDBRANCH  27  29
TORSDOF 8
ENDMDL
MODEL 4
REMARK VINA RESULT:      -5.9     29.749     32.689
REMARK  Name = 44716748
REMARK  14 active torsions:
REMARK  status: ('A' for Active; 'I' for Inactive)
REMARK    1  A    between atoms: O_2  and  C_12
REMARK    2  A    between atoms: O_4  and  C_28
REMARK    3  A    between atoms: O_4  and  C_30
REMARK    4  A    between atoms: N_7  and  C_26
REMARK    5  A    between atoms: N_9  and  C_29
REMARK    6  A    between atoms: N_9  and  C_31
REMARK    7  A    between atoms: N_9  and  C_32
REMARK    8  A    between atoms: C_10  and  C_18
REMARK    9  A    between atoms: C_13  and  C_19
REMARK   10  A    between atoms: C_15  and  C_22
REMARK   11  A    between atoms: C_19  and  C_23
REMARK   12  A    between atoms: C_19  and  C_24
REMARK   13  A    between atoms: C_26  and  C_28
REMARK   14  A    between atoms: C_27  and  C_29
REMARK                            x       y       z     vdW  Elec       q    Type
REMARK                         _______ _______ _______ _____ _____    ______ ____
ROOT
ATOM      1  S   UNL     1      16.933   9.753  21.529  0.00  0.00    -0.057 S 
ATOM      5  O   UNL     1      13.544   6.740  20.360  0.00  0.00    -0.274 OA
ATOM      6  N   UNL     1      16.468   7.304  20.842  0.00  0.00    -0.229 NA
ATOM      8  N   UNL     1      14.562   8.770  20.997  0.00  0.00    -0.264 N 
ATOM     10  C   UNL     1      20.527   7.808  22.000  0.00  0.00    -0.022 C 
ATOM     11  C   UNL     1      20.273   6.722  20.881  0.00  0.00    +0.033 C 
ATOM     12  C   UNL     1      21.284   5.546  20.992  0.00  0.00    +0.123 C 
ATOM     13  C   UNL     1      22.752   6.023  21.045  0.00  0.00    +0.029 C 
ATOM     14  C   UNL     1      22.009   8.247  21.973  0.00  0.00    +0.008 C 
ATOM     15  C   UNL     1      18.761   6.252  20.844  0.00  0.00    +0.042 C 
ATOM     16  C   UNL     1      22.982   7.085  22.120  0.00  0.00    +0.007 C 
ATOM     17  C   UNL     1      19.659   9.072  21.717  0.00  0.00    +0.051 C 
ATOM     18  C   UNL     1      20.187   7.273  23.417  0.00  0.00    +0.012 C 
ATOM     20  C   UNL     1      17.835   7.432  21.019  0.00  0.00    +0.057 A 
ATOM     21  C   UNL     1      18.254   8.684  21.418  0.00  0.00    +0.015 A 
ATOM     22  C   UNL     1      18.395   5.485  19.565  0.00  0.00    +0.014 C 
ATOM     25  C   UNL     1      15.894   8.465  21.073  0.00  0.00    +0.165 A 
ATOM     27  C   UNL     1      13.467   7.929  20.655  0.00  0.00    +0.233 C 
ATOM     35  H   UNL     1      14.350   9.741  21.216  0.00  0.00    +0.157 HD
ENDROOT
BRANCH  12   2
ATOM      2  O   UNL     1      21.155   4.701  19.849  0.00  0.00    -0.391 OA
ATOM     33  H   UNL     1      22.007   4.697  19.380  0.00  0.00    +0.210 HD
ENDBRANCH  12   2
BRANCH  13  19
ATOM     19  C   UNL     1      23.723   4.857  21.260  0.00  0.00    +0.077 C 
ATOM     23  C   UNL     1      24.457   5.023  22.586  0.00  0.00    +0.017 C 
BRANCH  19  24
ATOM      3  O   UNL     1      24.675   3.854  19.271  0.00  0.00    -0.276 OA
ATOM      7  N   UNL     1      25.598   5.827  20.070  0.00  0.00    -0.313 N 
ATOM     24  C   UNL     1      24.700   4.770  20.091  0.00  0.00    +0.216 C 
ATOM     34  H   UNL     1      25.517   6.575  20.751  0.00  0.00    +0.149 HD
BRANCH   7  26
ATOM     26  C   UNL     1      26.621   5.962  19.060  0.00  0.00    +0.132 C 
BRANCH  26  28
ATOM     28  C   UNL     1      26.454   7.245  18.265  0.00  0.00    +0.178 C 
BRANCH  28   4
ATOM      4  O   UNL     1      26.981   7.060  16.956  0.00  0.00    -0.381 OA
ATOM     30  C   UNL     1      26.396   7.963  16.027  0.00  0.00    +0.194 C 
ENDBRANCH  28   4
ENDBRANCH  26  28
ENDBRANCH   7  26
ENDBRANCH  19  24
ENDBRANCH  13  19
BRANCH  27  29
ATOM     29  C   UNL     1      12.149   8.683  20.687  0.00  0.00    +0.180 C 
BRANCH  29   9
ATOM      9  N   UNL     1      11.555   8.562  22.011  0.00  0.00    -0.300 NA
ATOM     31  C   UNL     1      10.982   9.839  22.439  0.00  0.00    +0.105 C 
ATOM     32  C   UNL     1      10.529   7.517  22.024  0.00  0.00    +0.105 C 
ENDBRANCH  29   9
ENDBRANCH  27  29
TORSDOF 8
ENDMDL
MODEL 5
REMARK VINA RESULT:      -5.9     20.609     21.974
REMARK  Name = 44716748
REMARK  14 active torsions:
REMARK  status: ('A' for Active; 'I' for Inactive)
REMARK    1  A    between atoms: O_2  and  C_12
REMARK    2  A    between atoms: O_4  and  C_28
REMARK    3  A    between atoms: O_4  and  C_30
REMARK    4  A    between atoms: N_7  and  C_26
REMARK    5  A    between atoms: N_9  and  C_29
REMARK    6  A    between atoms: N_9  and  C_31
REMARK    7  A    between atoms: N_9  and  C_32
REMARK    8  A    between atoms: C_10  and  C_18
REMARK    9  A    between atoms: C_13  and  C_19
REMARK   10  A    between atoms: C_15  and  C_22
REMARK   11  A    between atoms: C_19  and  C_23
REMARK   12  A    between atoms: C_19  and  C_24
REMARK   13  A    between atoms: C_26  and  C_28
REMARK   14  A    between atoms: C_27  and  C_29
REMARK                            x       y       z     vdW  Elec       q    Type
REMARK                         _______ _______ _______ _____ _____    ______ ____
ROOT
ATOM      1  S   UNL     1      -9.816   9.247  19.185  0.00  0.00    -0.057 S 
ATOM      5  O   UNL     1     -11.033  12.377  15.922  0.00  0.00    -0.274 OA
ATOM      6  N   UNL     1     -11.815  10.182  17.838  0.00  0.00    -0.229 NA
ATOM      8  N   UNL     1      -9.656  11.155  17.395  0.00  0.00    -0.264 N 
ATOM     10  C   UNL     1     -13.144   7.495  20.852  0.00  0.00    -0.022 C 
ATOM     11  C   UNL     1     -14.018   7.522  19.537  0.00  0.00    +0.033 C 
ATOM     12  C   UNL     1     -15.519   7.258  19.849  0.00  0.00    +0.123 C 
ATOM     13  C   UNL     1     -15.739   5.983  20.692  0.00  0.00    +0.029 C 
ATOM     14  C   UNL     1     -13.405   6.181  21.625  0.00  0.00    +0.008 C 
ATOM     15  C   UNL     1     -13.772   8.837  18.688  0.00  0.00    +0.042 C 
ATOM     16  C   UNL     1     -14.875   5.961  21.953  0.00  0.00    +0.007 C 
ATOM     17  C   UNL     1     -11.629   7.526  20.480  0.00  0.00    +0.051 C 
ATOM     18  C   UNL     1     -13.456   8.698  21.783  0.00  0.00    +0.012 C 
ATOM     20  C   UNL     1     -12.302   9.182  18.661  0.00  0.00    +0.057 A 
ATOM     21  C   UNL     1     -11.360   8.591  19.476  0.00  0.00    +0.015 A 
ATOM     22  C   UNL     1     -14.314   8.743  17.255  0.00  0.00    +0.014 C 
ATOM     25  C   UNL     1     -10.517  10.295  18.021  0.00  0.00    +0.165 A 
ATOM     27  C   UNL     1      -9.930  12.134  16.400  0.00  0.00    +0.233 C 
ATOM     35  H   UNL     1      -8.688  11.059  17.696  0.00  0.00    +0.157 HD
ENDROOT
BRANCH  12   2
ATOM      2  O   UNL     1     -16.233   7.085  18.625  0.00  0.00    -0.391 OA
ATOM     33  H   UNL     1     -15.960   7.791  18.014  0.00  0.00    +0.210 HD
ENDBRANCH  12   2
BRANCH  13  19
ATOM     19  C   UNL     1     -17.212   5.801  21.075  0.00  0.00    +0.077 C 
ATOM     23  C   UNL     1     -17.395   6.018  22.574  0.00  0.00    +0.017 C 
BRANCH  19  24
ATOM      3  O   UNL     1     -17.647   4.025  19.487  0.00  0.00    -0.276 OA
ATOM      7  N   UNL     1     -18.178   3.674  21.718  0.00  0.00    -0.313 N 
ATOM     24  C   UNL     1     -17.693   4.417  20.652  0.00  0.00    +0.216 C 
ATOM     34  H   UNL     1     -18.129   4.048  22.660  0.00  0.00    +0.149 HD
BRANCH   7  26
ATOM     26  C   UNL     1     -18.691   2.333  21.565  0.00  0.00    +0.132 C 
BRANCH  26  28
ATOM     28  C   UNL     1     -17.961   1.350  22.462  0.00  0.00    +0.178 C 
BRANCH  28   4
ATOM      4  O   UNL     1     -17.085   2.062  23.327  0.00  0.00    -0.381 OA
ATOM     30  C   UNL     1     -17.197   1.610  24.670  0.00  0.00    +0.194 C 
ENDBRANCH  28   4
ENDBRANCH  26  28
ENDBRANCH   7  26
ENDBRANCH  19  24
ENDBRANCH  13  19
BRANCH  27  29
ATOM     29  C   UNL     1      -8.671  12.868  15.972  0.00  0.00    +0.180 C 
BRANCH  29   9
ATOM      9  N   UNL     1      -8.136  13.611  17.104  0.00  0.00    -0.300 NA
ATOM     31  C   UNL     1      -6.752  14.015  16.851  0.00  0.00    +0.105 C 
ATOM     32  C   UNL     1      -8.963  14.787  17.388  0.00  0.00    +0.105 C 
ENDBRANCH  29   9
ENDBRANCH  27  29
TORSDOF 8
ENDMDL
MODEL 6
REMARK VINA RESULT:      -5.8      1.610      2.513
REMARK  Name = 44716748
REMARK  14 active torsions:
REMARK  status: ('A' for Active; 'I' for Inactive)
REMARK    1  A    between atoms: O_2  and  C_12
REMARK    2  A    between atoms: O_4  and  C_28
REMARK    3  A    between atoms: O_4  and  C_30
REMARK    4  A    between atoms: N_7  and  C_26
REMARK    5  A    between atoms: N_9  and  C_29
REMARK    6  A    between atoms: N_9  and  C_31
REMARK    7  A    between atoms: N_9  and  C_32
REMARK    8  A    between atoms: C_10  and  C_18
REMARK    9  A    between atoms: C_13  and  C_19
REMARK   10  A    between atoms: C_15  and  C_22
REMARK   11  A    between atoms: C_19  and  C_23
REMARK   12  A    between atoms: C_19  and  C_24
REMARK   13  A    between atoms: C_26  and  C_28
REMARK   14  A    between atoms: C_27  and  C_29
REMARK                            x       y       z     vdW  Elec       q    Type
REMARK                         _______ _______ _______ _____ _____    ______ ____
ROOT
ATOM      1  S   UNL     1      -5.175 -10.615   7.498  0.00  0.00    -0.057 S 
ATOM      5  O   UNL     1      -8.327  -7.153   7.397  0.00  0.00    -0.274 OA
ATOM      6  N   UNL     1      -6.431  -8.897   8.967  0.00  0.00    -0.229 NA
ATOM      8  N   UNL     1      -6.929  -8.881   6.609  0.00  0.00    -0.264 N 
ATOM     10  C   UNL     1      -3.429 -10.902  11.211  0.00  0.00    -0.022 C 
ATOM     11  C   UNL     1      -4.712 -10.475  12.028  0.00  0.00    +0.033 C 
ATOM     12  C   UNL     1      -4.353 -10.110  13.497  0.00  0.00    +0.123 C 
ATOM     13  C   UNL     1      -3.530 -11.210  14.202  0.00  0.00    +0.029 C 
ATOM     14  C   UNL     1      -2.675 -12.018  11.971  0.00  0.00    +0.008 C 
ATOM     15  C   UNL     1      -5.541  -9.349  11.283  0.00  0.00    +0.042 C 
ATOM     16  C   UNL     1      -2.301 -11.627  13.394  0.00  0.00    +0.007 C 
ATOM     17  C   UNL     1      -3.853 -11.483   9.827  0.00  0.00    +0.051 C 
ATOM     18  C   UNL     1      -2.463  -9.709  10.980  0.00  0.00    +0.012 C 
ATOM     20  C   UNL     1      -5.612  -9.636   9.803  0.00  0.00    +0.057 A 
ATOM     21  C   UNL     1      -4.843 -10.589   9.168  0.00  0.00    +0.015 A 
ATOM     22  C   UNL     1      -6.956  -9.164  11.849  0.00  0.00    +0.014 C 
ATOM     25  C   UNL     1      -6.292  -9.333   7.733  0.00  0.00    +0.165 A 
ATOM     27  C   UNL     1      -7.893  -7.843   6.481  0.00  0.00    +0.233 C 
ATOM     35  H   UNL     1      -6.664  -9.375   5.760  0.00  0.00    +0.157 HD
ENDROOT
BRANCH  12   2
ATOM      2  O   UNL     1      -5.554  -9.934  14.248  0.00  0.00    -0.391 OA
ATOM     33  H   UNL     1      -5.714 -10.748  14.755  0.00  0.00    +0.210 HD
ENDBRANCH  12   2
BRANCH  13  19
ATOM     19  C   UNL     1      -3.098 -10.785  15.610  0.00  0.00    +0.077 C 
ATOM     23  C   UNL     1      -1.586 -10.914  15.757  0.00  0.00    +0.017 C 
BRANCH  19  24
ATOM      3  O   UNL     1      -3.983 -11.251  17.816  0.00  0.00    -0.276 OA
ATOM      7  N   UNL     1      -4.292 -12.826  16.141  0.00  0.00    -0.313 N 
ATOM     24  C   UNL     1      -3.831 -11.622  16.654  0.00  0.00    +0.216 C 
ATOM     34  H   UNL     1      -4.176 -13.034  15.155  0.00  0.00    +0.149 HD
BRANCH   7  26
ATOM     26  C   UNL     1      -5.014 -13.789  16.939  0.00  0.00    +0.132 C 
BRANCH  26  28
ATOM     28  C   UNL     1      -4.695 -15.213  16.521  0.00  0.00    +0.178 C 
BRANCH  28   4
ATOM      4  O   UNL     1      -3.978 -15.193  15.293  0.00  0.00    -0.381 OA
ATOM     30  C   UNL     1      -4.113 -16.422  14.591  0.00  0.00    +0.194 C 
ENDBRANCH  28   4
ENDBRANCH  26  28
ENDBRANCH   7  26
ENDBRANCH  19  24
ENDBRANCH  13  19
BRANCH  27  29
ATOM     29  C   UNL     1      -8.349  -7.676   5.041  0.00  0.00    +0.180 C 
BRANCH  29   9
ATOM      9  N   UNL     1      -8.493  -8.987   4.425  0.00  0.00    -0.300 NA
ATOM     31  C   UNL     1      -9.881  -9.444   4.499  0.00  0.00    +0.105 C 
ATOM     32  C   UNL     1      -8.044  -8.954   3.031  0.00  0.00    +0.105 C 
ENDBRANCH  29   9
ENDBRANCH  27  29
TORSDOF 8
ENDMDL
MODEL 7
REMARK VINA RESULT:      -5.8     27.803     31.031
REMARK  Name = 44716748
REMARK  14 active torsions:
REMARK  status: ('A' for Active; 'I' for Inactive)
REMARK    1  A    between atoms: O_2  and  C_12
REMARK    2  A    between atoms: O_4  and  C_28
REMARK    3  A    between atoms: O_4  and  C_30
REMARK    4  A    between atoms: N_7  and  C_26
REMARK    5  A    between atoms: N_9  and  C_29
REMARK    6  A    between atoms: N_9  and  C_31
REMARK    7  A    between atoms: N_9  and  C_32
REMARK    8  A    between atoms: C_10  and  C_18
REMARK    9  A    between atoms: C_13  and  C_19
REMARK   10  A    between atoms: C_15  and  C_22
REMARK   11  A    between atoms: C_19  and  C_23
REMARK   12  A    between atoms: C_19  and  C_24
REMARK   13  A    between atoms: C_26  and  C_28
REMARK   14  A    between atoms: C_27  and  C_29
REMARK                            x       y       z     vdW  Elec       q    Type
REMARK                         _______ _______ _______ _____ _____    ______ ____
ROOT
ATOM      1  S   UNL     1      19.863   8.970  21.648  0.00  0.00    -0.057 S 
ATOM      5  O   UNL     1      20.387   4.552  20.186  0.00  0.00    -0.274 OA
ATOM      6  N   UNL     1      18.577   6.866  20.869  0.00  0.00    -0.229 NA
ATOM      8  N   UNL     1      20.980   6.703  20.949  0.00  0.00    -0.264 N 
ATOM     10  C   UNL     1      15.951  10.184  21.277  0.00  0.00    -0.022 C 
ATOM     11  C   UNL     1      15.312   8.774  21.590  0.00  0.00    +0.033 C 
ATOM     12  C   UNL     1      13.810   8.732  21.191  0.00  0.00    +0.123 C 
ATOM     13  C   UNL     1      13.000   9.903  21.786  0.00  0.00    +0.029 C 
ATOM     14  C   UNL     1      15.096  11.299  21.924  0.00  0.00    +0.008 C 
ATOM     15  C   UNL     1      16.162   7.588  20.972  0.00  0.00    +0.042 C 
ATOM     16  C   UNL     1      13.637  11.262  21.492  0.00  0.00    +0.007 C 
ATOM     17  C   UNL     1      17.378  10.268  21.901  0.00  0.00    +0.051 C 
ATOM     18  C   UNL     1      16.055  10.451  19.752  0.00  0.00    +0.012 C 
ATOM     20  C   UNL     1      17.639   7.841  21.162  0.00  0.00    +0.057 A 
ATOM     21  C   UNL     1      18.165   9.049  21.570  0.00  0.00    +0.015 A 
ATOM     22  C   UNL     1      15.789   6.213  21.544  0.00  0.00    +0.014 C 
ATOM     25  C   UNL     1      19.781   7.346  21.099  0.00  0.00    +0.165 A 
ATOM     27  C   UNL     1      21.237   5.374  20.513  0.00  0.00    +0.233 C 
ATOM     35  H   UNL     1      21.786   7.275  21.193  0.00  0.00    +0.157 HD
ENDROOT
BRANCH  12   2
ATOM      2  O   UNL     1      13.225   7.523  21.676  0.00  0.00    -0.391 OA
ATOM     33  H   UNL     1      13.335   7.502  22.643  0.00  0.00    +0.210 HD
ENDBRANCH  12   2
BRANCH  13  19
ATOM     19  C   UNL     1      11.548   9.901  21.295  0.00  0.00    +0.077 C 
ATOM     23  C   UNL     1      10.603   9.588  22.451  0.00  0.00    +0.017 C 
BRANCH  19  24
ATOM      3  O   UNL     1      10.709   7.876  20.264  0.00  0.00    -0.276 OA
ATOM      7  N   UNL     1      12.080   9.271  19.016  0.00  0.00    -0.313 N 
ATOM     24  C   UNL     1      11.385   8.897  20.158  0.00  0.00    +0.216 C 
ATOM     34  H   UNL     1      12.569  10.159  18.989  0.00  0.00    +0.149 HD
BRANCH   7  26
ATOM     26  C   UNL     1      12.079   8.479  17.809  0.00  0.00    +0.132 C 
BRANCH  26  28
ATOM     28  C   UNL     1      12.978   9.083  16.745  0.00  0.00    +0.178 C 
BRANCH  28   4
ATOM      4  O   UNL     1      12.374   8.918  15.468  0.00  0.00    -0.381 OA
ATOM     30  C   UNL     1      10.996   9.266  15.495  0.00  0.00    +0.194 C 
ENDBRANCH  28   4
ENDBRANCH  26  28
ENDBRANCH   7  26
ENDBRANCH  19  24
ENDBRANCH  13  19
BRANCH  27  29
ATOM     29  C   UNL     1      22.724   5.065  20.500  0.00  0.00    +0.180 C 
BRANCH  29   9
ATOM      9  N   UNL     1      22.974   3.859  21.276  0.00  0.00    -0.300 NA
ATOM     31  C   UNL     1      24.312   3.333  20.998  0.00  0.00    +0.105 C 
ATOM     32  C   UNL     1      22.824   4.126  22.709  0.00  0.00    +0.105 C 
ENDBRANCH  29   9
ENDBRANCH  27  29
TORSDOF 8
ENDMDL
MODEL 8
REMARK VINA RESULT:      -5.7     20.335     23.020
REMARK  Name = 44716748
REMARK  14 active torsions:
REMARK  status: ('A' for Active; 'I' for Inactive)
REMARK    1  A    between atoms: O_2  and  C_12
REMARK    2  A    between atoms: O_4  and  C_28
REMARK    3  A    between atoms: O_4  and  C_30
REMARK    4  A    between atoms: N_7  and  C_26
REMARK    5  A    between atoms: N_9  and  C_29
REMARK    6  A    between atoms: N_9  and  C_31
REMARK    7  A    between atoms: N_9  and  C_32
REMARK    8  A    between atoms: C_10  and  C_18
REMARK    9  A    between atoms: C_13  and  C_19
REMARK   10  A    between atoms: C_15  and  C_22
REMARK   11  A    between atoms: C_19  and  C_23
REMARK   12  A    between atoms: C_19  and  C_24
REMARK   13  A    between atoms: C_26  and  C_28
REMARK   14  A    between atoms: C_27  and  C_29
REMARK                            x       y       z     vdW  Elec       q    Type
REMARK                         _______ _______ _______ _____ _____    ______ ____
ROOT
ATOM      1  S   UNL     1     -13.752   5.503  22.043  0.00  0.00    -0.057 S 
ATOM      5  O   UNL     1     -18.163   5.003  20.550  0.00  0.00    -0.274 OA
ATOM      6  N   UNL     1     -15.511   6.432  20.391  0.00  0.00    -0.229 NA
ATOM      8  N   UNL     1     -16.204   4.605  21.801  0.00  0.00    -0.264 N 
ATOM     10  C   UNL     1     -11.697   8.171  19.682  0.00  0.00    -0.022 C 
ATOM     11  C   UNL     1     -12.934   9.106  19.378  0.00  0.00    +0.033 C 
ATOM     12  C   UNL     1     -12.638  10.069  18.193  0.00  0.00    +0.123 C 
ATOM     13  C   UNL     1     -11.321  10.855  18.376  0.00  0.00    +0.029 C 
ATOM     14  C   UNL     1     -10.427   9.032  19.873  0.00  0.00    +0.008 C 
ATOM     15  C   UNL     1     -14.273   8.278  19.199  0.00  0.00    +0.042 C 
ATOM     16  C   UNL     1     -10.135   9.941  18.686  0.00  0.00    +0.007 C 
ATOM     17  C   UNL     1     -11.938   7.392  21.012  0.00  0.00    +0.051 C 
ATOM     18  C   UNL     1     -11.446   7.149  18.541  0.00  0.00    +0.012 C 
ATOM     20  C   UNL     1     -14.355   7.177  20.228  0.00  0.00    +0.057 A 
ATOM     21  C   UNL     1     -13.298   6.788  21.024  0.00  0.00    +0.015 A 
ATOM     22  C   UNL     1     -15.536   9.149  19.261  0.00  0.00    +0.014 C 
ATOM     25  C   UNL     1     -15.313   5.531  21.328  0.00  0.00    +0.165 A 
ATOM     27  C   UNL     1     -17.553   4.378  21.412  0.00  0.00    +0.233 C 
ATOM     35  H   UNL     1     -15.827   4.011  22.536  0.00  0.00    +0.157 HD
ENDROOT
BRANCH  12   2
ATOM      2  O   UNL     1     -13.691  11.028  18.088  0.00  0.00    -0.391 OA
ATOM     33  H   UNL     1     -13.479  11.773  18.677  0.00  0.00    +0.210 HD
ENDBRANCH  12   2
BRANCH  13  19
ATOM     19  C   UNL     1     -10.997  11.717  17.151  0.00  0.00    +0.077 C 
ATOM     23  C   UNL     1     -10.248  10.891  16.110  0.00  0.00    +0.017 C 
BRANCH  19  24
ATOM      3  O   UNL     1     -10.632  13.793  18.344  0.00  0.00    -0.276 OA
ATOM      7  N   UNL     1      -8.931  12.974  16.995  0.00  0.00    -0.313 N 
ATOM     24  C   UNL     1     -10.191  12.941  17.574  0.00  0.00    +0.216 C 
ATOM     34  H   UNL     1      -8.621  12.203  16.413  0.00  0.00    +0.149 HD
BRANCH   7  26
ATOM     26  C   UNL     1      -7.986  14.037  17.243  0.00  0.00    +0.132 C 
BRANCH  26  28
ATOM     28  C   UNL     1      -6.761  13.913  16.355  0.00  0.00    +0.178 C 
BRANCH  28   4
ATOM      4  O   UNL     1      -7.145  13.382  15.093  0.00  0.00    -0.381 OA
ATOM     30  C   UNL     1      -7.270  14.405  14.114  0.00  0.00    +0.194 C 
ENDBRANCH  28   4
ENDBRANCH  26  28
ENDBRANCH   7  26
ENDBRANCH  19  24
ENDBRANCH  13  19
BRANCH  27  29
ATOM     29  C   UNL     1     -18.184   3.247  22.206  0.00  0.00    +0.180 C 
BRANCH  29   9
ATOM      9  N   UNL     1     -17.755   3.334  23.594  0.00  0.00    -0.300 NA
ATOM     31  C   UNL     1     -18.784   3.974  24.415  0.00  0.00    +0.105 C 
ATOM     32  C   UNL     1     -17.441   2.004  24.122  0.00  0.00    +0.105 C 
ENDBRANCH  29   9
ENDBRANCH  27  29
TORSDOF 8
ENDMDL
MODEL 9
REMARK VINA RESULT:      -5.7      5.248     11.046
REMARK  Name = 44716748
REMARK  14 active torsions:
REMARK  status: ('A' for Active; 'I' for Inactive)
REMARK    1  A    between atoms: O_2  and  C_12
REMARK    2  A    between atoms: O_4  and  C_28
REMARK    3  A    between atoms: O_4  and  C_30
REMARK    4  A    between atoms: N_7  and  C_26
REMARK    5  A    between atoms: N_9  and  C_29
REMARK    6  A    between atoms: N_9  and  C_31
REMARK    7  A    between atoms: N_9  and  C_32
REMARK    8  A    between atoms: C_10  and  C_18
REMARK    9  A    between atoms: C_13  and  C_19
REMARK   10  A    between atoms: C_15  and  C_22
REMARK   11  A    between atoms: C_19  and  C_23
REMARK   12  A    between atoms: C_19  and  C_24
REMARK   13  A    between atoms: C_26  and  C_28
REMARK   14  A    between atoms: C_27  and  C_29
REMARK                            x       y       z     vdW  Elec       q    Type
REMARK                         _______ _______ _______ _____ _____    ______ ____
ROOT
ATOM      1  S   UNL     1     -10.102 -10.696  19.690  0.00  0.00    -0.057 S 
ATOM      5  O   UNL     1     -11.157 -15.044  21.074  0.00  0.00    -0.274 OA
ATOM      6  N   UNL     1      -9.359 -13.168  19.542  0.00  0.00    -0.229 NA
ATOM      8  N   UNL     1     -11.334 -12.704  20.842  0.00  0.00    -0.264 N 
ATOM     10  C   UNL     1      -6.452 -10.604  17.797  0.00  0.00    -0.022 C 
ATOM     11  C   UNL     1      -6.573 -12.035  17.139  0.00  0.00    +0.033 C 
ATOM     12  C   UNL     1      -5.199 -12.533  16.609  0.00  0.00    +0.123 C 
ATOM     13  C   UNL     1      -4.504 -11.506  15.689  0.00  0.00    +0.029 C 
ATOM     14  C   UNL     1      -5.768  -9.632  16.807  0.00  0.00    +0.008 C 
ATOM     15  C   UNL     1      -7.292 -13.070  18.099  0.00  0.00    +0.042 C 
ATOM     16  C   UNL     1      -4.408 -10.121  16.330  0.00  0.00    +0.007 C 
ATOM     17  C   UNL     1      -7.874 -10.039  18.100  0.00  0.00    +0.051 C 
ATOM     18  C   UNL     1      -5.634 -10.637  19.116  0.00  0.00    +0.012 C 
ATOM     20  C   UNL     1      -8.466 -12.422  18.792  0.00  0.00    +0.057 A 
ATOM     21  C   UNL     1      -8.706 -11.063  18.789  0.00  0.00    +0.015 A 
ATOM     22  C   UNL     1      -7.748 -14.348  17.381  0.00  0.00    +0.014 C 
ATOM     25  C   UNL     1     -10.269 -12.366  20.051  0.00  0.00    +0.165 A 
ATOM     27  C   UNL     1     -11.732 -13.986  21.311  0.00  0.00    +0.233 C 
ATOM     35  H   UNL     1     -11.910 -11.911  21.115  0.00  0.00    +0.157 HD
ENDROOT
BRANCH  12   2
ATOM      2  O   UNL     1      -5.389 -13.724  15.845  0.00  0.00    -0.391 OA
ATOM     33  H   UNL     1      -5.855 -13.484  15.025  0.00  0.00    +0.210 HD
ENDBRANCH  12   2
BRANCH  13  19
ATOM     19  C   UNL     1      -3.107 -11.973  15.265  0.00  0.00    +0.077 C 
ATOM     23  C   UNL     1      -2.055 -10.973  15.732  0.00  0.00    +0.017 C 
BRANCH  19  24
ATOM      3  O   UNL     1      -3.459 -13.187  13.198  0.00  0.00    -0.276 OA
ATOM      7  N   UNL     1      -2.522 -11.067  13.095  0.00  0.00    -0.313 N 
ATOM     24  C   UNL     1      -3.060 -12.164  13.752  0.00  0.00    +0.216 C 
ATOM     34  H   UNL     1      -2.268 -10.237  13.619  0.00  0.00    +0.149 HD
BRANCH   7  26
ATOM     26  C   UNL     1      -2.372 -11.013  11.659  0.00  0.00    +0.132 C 
BRANCH  26  28
ATOM     28  C   UNL     1      -3.569 -10.357  10.997  0.00  0.00    +0.178 C 
BRANCH  28   4
ATOM      4  O   UNL     1      -3.136  -9.218  10.262  0.00  0.00    -0.381 OA
ATOM     30  C   UNL     1      -4.038  -8.904   9.210  0.00  0.00    +0.194 C 
ENDBRANCH  28   4
ENDBRANCH  26  28
ENDBRANCH   7  26
ENDBRANCH  19  24
ENDBRANCH  13  19
BRANCH  27  29
ATOM     29  C   UNL     1     -12.988 -13.908  22.161  0.00  0.00    +0.180 C 
BRANCH  29   9
ATOM      9  N   UNL     1     -12.650 -13.378  23.475  0.00  0.00    -0.300 NA
ATOM     31  C   UNL     1     -13.758 -12.587  24.013  0.00  0.00    +0.105 C 
ATOM     32  C   UNL     1     -12.308 -14.464  24.397  0.00  0.00    +0.105 C 
ENDBRANCH  29   9
ENDBRANCH  27  29
TORSDOF 8
ENDMDL
MODEL 10
REMARK VINA RESULT:      -5.4     28.388     31.682
REMARK  Name = 44716748
REMARK  14 active torsions:
REMARK  status: ('A' for Active; 'I' for Inactive)
REMARK    1  A    between atoms: O_2  and  C_12
REMARK    2  A    between atoms: O_4  and  C_28
REMARK    3  A    between atoms: O_4  and  C_30
REMARK    4  A    between atoms: N_7  and  C_26
REMARK    5  A    between atoms: N_9  and  C_29
REMARK    6  A    between atoms: N_9  and  C_31
REMARK    7  A    between atoms: N_9  and  C_32
REMARK    8  A    between atoms: C_10  and  C_18
REMARK    9  A    between atoms: C_13  and  C_19
REMARK   10  A    between atoms: C_15  and  C_22
REMARK   11  A    between atoms: C_19  and  C_23
REMARK   12  A    between atoms: C_19  and  C_24
REMARK   13  A    between atoms: C_26  and  C_28
REMARK   14  A    between atoms: C_27  and  C_29
REMARK                            x       y       z     vdW  Elec       q    Type
REMARK                         _______ _______ _______ _____ _____    ______ ____
ROOT
ATOM      1  S   UNL     1      19.972   4.704  20.089  0.00  0.00    -0.057 S 
ATOM      5  O   UNL     1      23.326   5.887  23.136  0.00  0.00    -0.274 OA
ATOM      6  N   UNL     1      20.650   6.458  21.864  0.00  0.00    -0.229 NA
ATOM      8  N   UNL     1      22.201   4.656  21.468  0.00  0.00    -0.264 N 
ATOM     10  C   UNL     1      16.655   7.090  20.558  0.00  0.00    -0.022 C 
ATOM     11  C   UNL     1      17.448   8.395  20.964  0.00  0.00    +0.033 C 
ATOM     12  C   UNL     1      16.503   9.463  21.584  0.00  0.00    +0.123 C 
ATOM     13  C   UNL     1      15.273   9.759  20.699  0.00  0.00    +0.029 C 
ATOM     14  C   UNL     1      15.455   7.469  19.658  0.00  0.00    +0.008 C 
ATOM     15  C   UNL     1      18.707   8.066  21.868  0.00  0.00    +0.042 C 
ATOM     16  C   UNL     1      14.523   8.487  20.299  0.00  0.00    +0.007 C 
ATOM     17  C   UNL     1      17.580   6.145  19.731  0.00  0.00    +0.051 C 
ATOM     18  C   UNL     1      16.130   6.319  21.799  0.00  0.00    +0.012 C 
ATOM     20  C   UNL     1      19.422   6.840  21.353  0.00  0.00    +0.057 A 
ATOM     21  C   UNL     1      18.898   5.987  20.403  0.00  0.00    +0.015 A 
ATOM     22  C   UNL     1      19.693   9.237  21.983  0.00  0.00    +0.014 C 
ATOM     25  C   UNL     1      21.041   5.354  21.264  0.00  0.00    +0.165 A 
ATOM     27  C   UNL     1      23.269   4.934  22.365  0.00  0.00    +0.233 C 
ATOM     35  H   UNL     1      22.291   3.829  20.882  0.00  0.00    +0.157 HD
ENDROOT
BRANCH  12   2
ATOM      2  O   UNL     1      17.215  10.690  21.742  0.00  0.00    -0.391 OA
ATOM     33  H   UNL     1      18.118  10.560  21.405  0.00  0.00    +0.210 HD
ENDBRANCH  12   2
BRANCH  13  19
ATOM     19  C   UNL     1      14.304  10.734  21.377  0.00  0.00    +0.077 C 
ATOM     23  C   UNL     1      14.500  10.703  22.889  0.00  0.00    +0.017 C 
BRANCH  19  24
ATOM      3  O   UNL     1      12.433  10.522  19.853  0.00  0.00    -0.276 OA
ATOM      7  N   UNL     1      12.130   9.921  22.074  0.00  0.00    -0.313 N 
ATOM     24  C   UNL     1      12.867  10.389  20.996  0.00  0.00    +0.216 C 
ATOM     34  H   UNL     1      12.578   9.787  22.974  0.00  0.00    +0.149 HD
BRANCH   7  26
ATOM     26  C   UNL     1      10.744   9.533  21.961  0.00  0.00    +0.132 C 
BRANCH  26  28
ATOM     28  C   UNL     1      10.563   8.041  22.174  0.00  0.00    +0.178 C 
BRANCH  28   4
ATOM      4  O   UNL     1      10.868   7.353  20.967  0.00  0.00    -0.381 OA
ATOM     30  C   UNL     1      11.667   6.203  21.211  0.00  0.00    +0.194 C 
ENDBRANCH  28   4
ENDBRANCH  26  28
ENDBRANCH   7  26
ENDBRANCH  19  24
ENDBRANCH  13  19
BRANCH  27  29
ATOM     29  C   UNL     1      24.374   3.897  22.262  0.00  0.00    +0.180 C 
BRANCH  29   9
ATOM      9  N   UNL     1      24.303   3.244  20.962  0.00  0.00    -0.300 NA
ATOM     31  C   UNL     1      25.374   3.720  20.085  0.00  0.00    +0.105 C 
ATOM     32  C   UNL     1      24.380   1.788  21.111  0.00  0.00    +0.105 C 
ENDBRANCH  29   9
ENDBRANCH  27  29
TORSDOF 8
ENDMDL
