MODEL 1
REMARK VINA RESULT:      -7.0      0.000      0.000
REMARK  Name = 45783565
REMARK  10 active torsions:
REMARK  status: ('A' for Active; 'I' for Inactive)
REMARK    1  A    between atoms: O_2  and  C_26
REMARK    2  A    between atoms: O_2  and  C_27
REMARK    3  A    between atoms: O_3  and  C_28
REMARK    4  A    between atoms: O_3  and  C_29
REMARK    5  A    between atoms: N_4  and  C_12
REMARK    6  A    between atoms: C_8  and  C_13
REMARK    7  A    between atoms: C_12  and  C_14
REMARK    8  A    between atoms: C_15  and  C_19
REMARK    9  A    between atoms: C_17  and  C_22
REMARK   10  A    between atoms: C_27  and  C_28
REMARK                            x       y       z     vdW  Elec       q    Type
REMARK                         _______ _______ _______ _____ _____    ______ ____
ROOT
ATOM      1  O   UNL     1     -17.328   2.420  21.976  0.00  0.00    -0.336 OA
ATOM      5  N   UNL     1     -17.149   3.939  23.612  0.00  0.00    -0.190 NA
ATOM      6  N   UNL     1     -17.031   1.703  23.142  0.00  0.00    -0.056 NA
ATOM     13  C   UNL     1     -17.379   3.728  22.340  0.00  0.00    +0.245 A 
ATOM     17  C   UNL     1     -16.941   2.668  24.063  0.00  0.00    +0.204 A 
ENDROOT
BRANCH  17  22
ATOM      7  N   UNL     1     -16.462   0.787  27.234  0.00  0.00    -0.221 NA
ATOM     22  C   UNL     1     -16.644   2.395  25.439  0.00  0.00    +0.041 A 
ATOM     23  C   UNL     1     -16.263   3.415  26.304  0.00  0.00    +0.018 A 
ATOM     24  C   UNL     1     -16.727   1.109  25.948  0.00  0.00    +0.126 A 
ATOM     25  C   UNL     1     -15.982   3.122  27.634  0.00  0.00    +0.068 A 
ATOM     26  C   UNL     1     -16.095   1.803  28.046  0.00  0.00    +0.215 A 
BRANCH  26   2
ATOM      2  O   UNL     1     -15.823   1.488  29.351  0.00  0.00    -0.474 OA
BRANCH   2  27
ATOM     27  C   UNL     1     -14.945   0.391  29.575  0.00  0.00    +0.258 C 
BRANCH  27  28
ATOM     28  C   UNL     1     -13.840   0.826  30.518  0.00  0.00    +0.200 C 
BRANCH  28   3
ATOM      3  O   UNL     1     -13.742   2.245  30.496  0.00  0.00    -0.380 OA
ATOM     29  C   UNL     1     -13.483   2.769  31.791  0.00  0.00    +0.194 C 
ENDBRANCH  28   3
ENDBRANCH  27  28
ENDBRANCH   2  27
ENDBRANCH  26   2
ENDBRANCH  17  22
BRANCH  13   8
ATOM      4  N   UNL     1     -16.472   5.271  20.612  0.00  0.00    -0.287 NA
ATOM      8  C   UNL     1     -17.689   4.723  21.243  0.00  0.00    +0.146 C 
ATOM      9  C   UNL     1     -18.483   4.099  20.081  0.00  0.00    +0.030 C 
ATOM     10  C   UNL     1     -17.666   4.399  18.833  0.00  0.00    +0.017 C 
ATOM     11  C   UNL     1     -16.832   5.599  19.232  0.00  0.00    +0.085 C 
BRANCH   4  12
ATOM     12  C   UNL     1     -15.923   6.419  21.323  0.00  0.00    +0.120 C 
BRANCH  12  14
ATOM     14  C   UNL     1     -14.482   6.665  20.965  0.00  0.00    -0.030 A 
ATOM     15  C   UNL     1     -13.454   5.990  21.624  0.00  0.00    -0.046 A 
ATOM     16  C   UNL     1     -14.181   7.581  19.958  0.00  0.00    +0.005 A 
ATOM     18  C   UNL     1     -12.124   6.232  21.276  0.00  0.00    +0.003 A 
ATOM     19  C   UNL     1     -13.750   5.004  22.705  0.00  0.00    +0.044 C 
ATOM     20  C   UNL     1     -12.853   7.823  19.609  0.00  0.00    +0.000 A 
ATOM     21  C   UNL     1     -11.825   7.149  20.268  0.00  0.00    +0.000 A 
ENDBRANCH  12  14
ENDBRANCH   4  12
ENDBRANCH  13   8
TORSDOF 8
ENDMDL
MODEL 2
REMARK VINA RESULT:      -6.9     28.992     32.165
REMARK  Name = 45783565
REMARK  10 active torsions:
REMARK  status: ('A' for Active; 'I' for Inactive)
REMARK    1  A    between atoms: O_2  and  C_26
REMARK    2  A    between atoms: O_2  and  C_27
REMARK    3  A    between atoms: O_3  and  C_28
REMARK    4  A    between atoms: O_3  and  C_29
REMARK    5  A    between atoms: N_4  and  C_12
REMARK    6  A    between atoms: C_8  and  C_13
REMARK    7  A    between atoms: C_12  and  C_14
REMARK    8  A    between atoms: C_15  and  C_19
REMARK    9  A    between atoms: C_17  and  C_22
REMARK   10  A    between atoms: C_27  and  C_28
REMARK                            x       y       z     vdW  Elec       q    Type
REMARK                         _______ _______ _______ _____ _____    ______ ____
ROOT
ATOM      1  O   UNL     1      14.020   6.786  20.348  0.00  0.00    -0.336 OA
ATOM      5  N   UNL     1      15.772   7.397  19.095  0.00  0.00    -0.190 NA
ATOM      6  N   UNL     1      15.154   6.594  21.146  0.00  0.00    -0.056 NA
ATOM     13  C   UNL     1      14.471   7.259  19.158  0.00  0.00    +0.245 A 
ATOM     17  C   UNL     1      16.148   6.977  20.337  0.00  0.00    +0.204 A 
ENDROOT
BRANCH  17  22
ATOM      7  N   UNL     1      19.299   7.875  22.094  0.00  0.00    -0.221 NA
ATOM     22  C   UNL     1      17.524   6.949  20.740  0.00  0.00    +0.041 A 
ATOM     23  C   UNL     1      18.407   6.018  20.205  0.00  0.00    +0.018 A 
ATOM     24  C   UNL     1      18.015   7.848  21.674  0.00  0.00    +0.126 A 
ATOM     25  C   UNL     1      19.737   6.016  20.613  0.00  0.00    +0.068 A 
ATOM     26  C   UNL     1      20.129   6.956  21.552  0.00  0.00    +0.215 A 
BRANCH  26   2
ATOM      2  O   UNL     1      21.433   6.974  21.971  0.00  0.00    -0.474 OA
BRANCH   2  27
ATOM     27  C   UNL     1      21.689   6.501  23.289  0.00  0.00    +0.258 C 
BRANCH  27  28
ATOM     28  C   UNL     1      22.565   5.266  23.210  0.00  0.00    +0.200 C 
BRANCH  28   3
ATOM      3  O   UNL     1      21.749   4.133  22.942  0.00  0.00    -0.380 OA
ATOM     29  C   UNL     1      22.239   3.388  21.835  0.00  0.00    +0.194 C 
ENDBRANCH  28   3
ENDBRANCH  27  28
ENDBRANCH   2  27
ENDBRANCH  26   2
ENDBRANCH  17  22
BRANCH  13   8
ATOM      4  N   UNL     1      12.603   8.735  18.436  0.00  0.00    -0.287 NA
ATOM      8  C   UNL     1      13.423   7.552  18.106  0.00  0.00    +0.146 C 
ATOM      9  C   UNL     1      14.033   7.871  16.730  0.00  0.00    +0.030 C 
ATOM     10  C   UNL     1      13.453   9.223  16.340  0.00  0.00    +0.017 C 
ATOM     11  C   UNL     1      12.182   9.315  17.160  0.00  0.00    +0.085 C 
BRANCH   4  12
ATOM     12  C   UNL     1      11.470   8.427  19.298  0.00  0.00    +0.120 C 
BRANCH  12  14
ATOM     14  C   UNL     1      11.486   9.246  20.561  0.00  0.00    -0.030 A 
ATOM     15  C   UNL     1      11.015   8.719  21.764  0.00  0.00    -0.046 A 
ATOM     16  C   UNL     1      11.982  10.548  20.517  0.00  0.00    +0.005 A 
ATOM     18  C   UNL     1      11.040   9.496  22.923  0.00  0.00    +0.003 A 
ATOM     19  C   UNL     1      10.479   7.328  21.837  0.00  0.00    +0.044 C 
ATOM     20  C   UNL     1      12.008  11.325  21.675  0.00  0.00    +0.000 A 
ATOM     21  C   UNL     1      11.537  10.799  22.878  0.00  0.00    +0.000 A 
ENDBRANCH  12  14
ENDBRANCH   4  12
ENDBRANCH  13   8
TORSDOF 8
ENDMDL
MODEL 3
REMARK VINA RESULT:      -6.7      1.660      2.266
REMARK  Name = 45783565
REMARK  10 active torsions:
REMARK  status: ('A' for Active; 'I' for Inactive)
REMARK    1  A    between atoms: O_2  and  C_26
REMARK    2  A    between atoms: O_2  and  C_27
REMARK    3  A    between atoms: O_3  and  C_28
REMARK    4  A    between atoms: O_3  and  C_29
REMARK    5  A    between atoms: N_4  and  C_12
REMARK    6  A    between atoms: C_8  and  C_13
REMARK    7  A    between atoms: C_12  and  C_14
REMARK    8  A    between atoms: C_15  and  C_19
REMARK    9  A    between atoms: C_17  and  C_22
REMARK   10  A    between atoms: C_27  and  C_28
REMARK                            x       y       z     vdW  Elec       q    Type
REMARK                         _______ _______ _______ _____ _____    ______ ____
ROOT
ATOM      1  O   UNL     1     -16.319   3.793  22.184  0.00  0.00    -0.336 OA
ATOM      5  N   UNL     1     -16.048   4.707  24.211  0.00  0.00    -0.190 NA
ATOM      6  N   UNL     1     -16.477   2.750  23.106  0.00  0.00    -0.056 NA
ATOM     13  C   UNL     1     -16.068   4.909  22.917  0.00  0.00    +0.245 A 
ATOM     17  C   UNL     1     -16.303   3.369  24.278  0.00  0.00    +0.204 A 
ENDROOT
BRANCH  17  22
ATOM      7  N   UNL     1     -16.841   0.638  26.744  0.00  0.00    -0.221 NA
ATOM     22  C   UNL     1     -16.378   2.678  25.533  0.00  0.00    +0.041 A 
ATOM     23  C   UNL     1     -16.079   3.327  26.726  0.00  0.00    +0.018 A 
ATOM     24  C   UNL     1     -16.751   1.345  25.596  0.00  0.00    +0.126 A 
ATOM     25  C   UNL     1     -16.161   2.633  27.928  0.00  0.00    +0.068 A 
ATOM     26  C   UNL     1     -16.543   1.301  27.884  0.00  0.00    +0.215 A 
BRANCH  26   2
ATOM      2  O   UNL     1     -16.631   0.596  29.054  0.00  0.00    -0.474 OA
BRANCH   2  27
ATOM     27  C   UNL     1     -15.691   0.924  30.071  0.00  0.00    +0.258 C 
BRANCH  27  28
ATOM     28  C   UNL     1     -15.327  -0.335  30.833  0.00  0.00    +0.200 C 
BRANCH  28   3
ATOM      3  O   UNL     1     -14.682  -1.244  29.949  0.00  0.00    -0.380 OA
ATOM     29  C   UNL     1     -13.422  -0.748  29.520  0.00  0.00    +0.194 C 
ENDBRANCH  28   3
ENDBRANCH  27  28
ENDBRANCH   2  27
ENDBRANCH  26   2
ENDBRANCH  17  22
BRANCH  13   8
ATOM      4  N   UNL     1     -14.702   6.117  21.224  0.00  0.00    -0.287 NA
ATOM      8  C   UNL     1     -15.857   6.192  22.142  0.00  0.00    +0.146 C 
ATOM      9  C   UNL     1     -17.052   6.544  21.237  0.00  0.00    +0.030 C 
ATOM     10  C   UNL     1     -16.463   6.707  19.844  0.00  0.00    +0.017 C 
ATOM     11  C   UNL     1     -15.002   7.014  20.108  0.00  0.00    +0.085 C 
BRANCH   4  12
ATOM     12  C   UNL     1     -13.436   6.446  21.866  0.00  0.00    +0.120 C 
BRANCH  12  14
ATOM     14  C   UNL     1     -12.663   7.478  21.089  0.00  0.00    -0.030 A 
ATOM     15  C   UNL     1     -12.769   8.835  21.396  0.00  0.00    -0.046 A 
ATOM     16  C   UNL     1     -11.832   7.061  20.051  0.00  0.00    +0.005 A 
ATOM     18  C   UNL     1     -12.043   9.775  20.662  0.00  0.00    +0.003 A 
ATOM     19  C   UNL     1     -13.653   9.307  22.502  0.00  0.00    +0.044 C 
ATOM     20  C   UNL     1     -11.106   7.999  19.318  0.00  0.00    +0.000 A 
ATOM     21  C   UNL     1     -11.211   9.356  19.624  0.00  0.00    +0.000 A 
ENDBRANCH  12  14
ENDBRANCH   4  12
ENDBRANCH  13   8
TORSDOF 8
ENDMDL
MODEL 4
REMARK VINA RESULT:      -6.5     30.108     33.243
REMARK  Name = 45783565
REMARK  10 active torsions:
REMARK  status: ('A' for Active; 'I' for Inactive)
REMARK    1  A    between atoms: O_2  and  C_26
REMARK    2  A    between atoms: O_2  and  C_27
REMARK    3  A    between atoms: O_3  and  C_28
REMARK    4  A    between atoms: O_3  and  C_29
REMARK    5  A    between atoms: N_4  and  C_12
REMARK    6  A    between atoms: C_8  and  C_13
REMARK    7  A    between atoms: C_12  and  C_14
REMARK    8  A    between atoms: C_15  and  C_19
REMARK    9  A    between atoms: C_17  and  C_22
REMARK   10  A    between atoms: C_27  and  C_28
REMARK                            x       y       z     vdW  Elec       q    Type
REMARK                         _______ _______ _______ _____ _____    ______ ____
ROOT
ATOM      1  O   UNL     1      14.879   6.672  19.409  0.00  0.00    -0.336 OA
ATOM      5  N   UNL     1      16.041   7.363  21.195  0.00  0.00    -0.190 NA
ATOM      6  N   UNL     1      16.166   6.139  19.266  0.00  0.00    -0.056 NA
ATOM     13  C   UNL     1      14.890   7.379  20.570  0.00  0.00    +0.245 A 
ATOM     17  C   UNL     1      16.792   6.591  20.358  0.00  0.00    +0.204 A 
ENDROOT
BRANCH  17  22
ATOM      7  N   UNL     1      20.138   4.982  20.144  0.00  0.00    -0.221 NA
ATOM     22  C   UNL     1      18.165   6.288  20.640  0.00  0.00    +0.041 A 
ATOM     23  C   UNL     1      18.856   6.966  21.640  0.00  0.00    +0.018 A 
ATOM     24  C   UNL     1      18.846   5.314  19.927  0.00  0.00    +0.126 A 
ATOM     25  C   UNL     1      20.187   6.651  21.892  0.00  0.00    +0.068 A 
ATOM     26  C   UNL     1      20.777   5.661  21.123  0.00  0.00    +0.215 A 
BRANCH  26   2
ATOM      2  O   UNL     1      22.087   5.333  21.351  0.00  0.00    -0.474 OA
BRANCH   2  27
ATOM     27  C   UNL     1      22.501   4.032  20.952  0.00  0.00    +0.258 C 
BRANCH  27  28
ATOM     28  C   UNL     1      23.946   4.091  20.496  0.00  0.00    +0.200 C 
BRANCH  28   3
ATOM      3  O   UNL     1      24.349   2.799  20.059  0.00  0.00    -0.380 OA
ATOM     29  C   UNL     1      23.959   1.791  20.982  0.00  0.00    +0.194 C 
ENDBRANCH  28   3
ENDBRANCH  27  28
ENDBRANCH   2  27
ENDBRANCH  26   2
ENDBRANCH  17  22
BRANCH  13   8
ATOM      4  N   UNL     1      12.907   8.669  19.800  0.00  0.00    -0.287 NA
ATOM      8  C   UNL     1      13.596   8.062  20.957  0.00  0.00    +0.146 C 
ATOM      9  C   UNL     1      12.567   7.089  21.558  0.00  0.00    +0.030 C 
ATOM     10  C   UNL     1      11.313   7.263  20.713  0.00  0.00    +0.017 C 
ATOM     11  C   UNL     1      11.477   8.643  20.110  0.00  0.00    +0.085 C 
BRANCH   4  12
ATOM     12  C   UNL     1      13.377  10.013  19.492  0.00  0.00    +0.120 C 
BRANCH  12  14
ATOM     14  C   UNL     1      13.741  10.162  18.039  0.00  0.00    -0.030 A 
ATOM     15  C   UNL     1      14.042  11.413  17.499  0.00  0.00    -0.046 A 
ATOM     16  C   UNL     1      13.776   9.027  17.230  0.00  0.00    +0.005 A 
ATOM     18  C   UNL     1      14.377  11.527  16.149  0.00  0.00    +0.003 A 
ATOM     19  C   UNL     1      14.011  12.643  18.344  0.00  0.00    +0.044 C 
ATOM     20  C   UNL     1      14.111   9.141  15.881  0.00  0.00    +0.000 A 
ATOM     21  C   UNL     1      14.412  10.391  15.341  0.00  0.00    +0.000 A 
ENDBRANCH  12  14
ENDBRANCH   4  12
ENDBRANCH  13   8
TORSDOF 8
ENDMDL
MODEL 5
REMARK VINA RESULT:      -6.4     19.087     20.176
REMARK  Name = 45783565
REMARK  10 active torsions:
REMARK  status: ('A' for Active; 'I' for Inactive)
REMARK    1  A    between atoms: O_2  and  C_26
REMARK    2  A    between atoms: O_2  and  C_27
REMARK    3  A    between atoms: O_3  and  C_28
REMARK    4  A    between atoms: O_3  and  C_29
REMARK    5  A    between atoms: N_4  and  C_12
REMARK    6  A    between atoms: C_8  and  C_13
REMARK    7  A    between atoms: C_12  and  C_14
REMARK    8  A    between atoms: C_15  and  C_19
REMARK    9  A    between atoms: C_17  and  C_22
REMARK   10  A    between atoms: C_27  and  C_28
REMARK                            x       y       z     vdW  Elec       q    Type
REMARK                         _______ _______ _______ _____ _____    ______ ____
ROOT
ATOM      1  O   UNL     1      -4.293 -13.269  15.512  0.00  0.00    -0.336 OA
ATOM      5  N   UNL     1      -4.544 -11.274  16.497  0.00  0.00    -0.190 NA
ATOM      6  N   UNL     1      -5.463 -13.357  16.275  0.00  0.00    -0.056 NA
ATOM     13  C   UNL     1      -3.814 -12.012  15.698  0.00  0.00    +0.245 A 
ATOM     17  C   UNL     1      -5.544 -12.141  16.826  0.00  0.00    +0.204 A 
ENDROOT
BRANCH  17  22
ATOM      7  N   UNL     1      -7.561 -11.790  19.930  0.00  0.00    -0.221 NA
ATOM     22  C   UNL     1      -6.610 -11.764  17.708  0.00  0.00    +0.041 A 
ATOM     23  C   UNL     1      -7.700 -11.036  17.241  0.00  0.00    +0.018 A 
ATOM     24  C   UNL     1      -6.589 -12.113  19.048  0.00  0.00    +0.126 A 
ATOM     25  C   UNL     1      -8.720 -10.684  18.119  0.00  0.00    +0.068 A 
ATOM     26  C   UNL     1      -8.604 -11.082  19.442  0.00  0.00    +0.215 A 
BRANCH  26   2
ATOM      2  O   UNL     1      -9.595 -10.747  20.326  0.00  0.00    -0.474 OA
BRANCH   2  27
ATOM     27  C   UNL     1     -10.932 -10.813  19.843  0.00  0.00    +0.258 C 
BRANCH  27  28
ATOM     28  C   UNL     1     -11.390 -12.259  19.847  0.00  0.00    +0.200 C 
BRANCH  28   3
ATOM      3  O   UNL     1     -11.282 -12.777  21.167  0.00  0.00    -0.380 OA
ATOM     29  C   UNL     1     -10.522 -13.978  21.194  0.00  0.00    +0.194 C 
ENDBRANCH  28   3
ENDBRANCH  27  28
ENDBRANCH   2  27
ENDBRANCH  26   2
ENDBRANCH  17  22
BRANCH  13   8
ATOM      4  N   UNL     1      -2.750 -10.671  13.893  0.00  0.00    -0.287 NA
ATOM      8  C   UNL     1      -2.536 -11.661  14.968  0.00  0.00    +0.146 C 
ATOM      9  C   UNL     1      -1.482 -11.017  15.887  0.00  0.00    +0.030 C 
ATOM     10  C   UNL     1      -1.121  -9.699  15.217  0.00  0.00    +0.017 C 
ATOM     11  C   UNL     1      -1.500  -9.920  13.767  0.00  0.00    +0.085 C 
BRANCH   4  12
ATOM     12  C   UNL     1      -3.157 -11.273  12.630  0.00  0.00    +0.120 C 
BRANCH  12  14
ATOM     14  C   UNL     1      -3.776 -10.264  11.700  0.00  0.00    -0.030 A 
ATOM     15  C   UNL     1      -5.030  -9.715  11.971  0.00  0.00    -0.046 A 
ATOM     16  C   UNL     1      -3.079  -9.879  10.556  0.00  0.00    +0.005 A 
ATOM     18  C   UNL     1      -5.586  -8.780  11.096  0.00  0.00    +0.003 A 
ATOM     19  C   UNL     1      -5.797 -10.111  13.189  0.00  0.00    +0.044 C 
ATOM     20  C   UNL     1      -3.633  -8.945   9.682  0.00  0.00    +0.000 A 
ATOM     21  C   UNL     1      -4.886  -8.395   9.952  0.00  0.00    +0.000 A 
ENDBRANCH  12  14
ENDBRANCH   4  12
ENDBRANCH  13   8
TORSDOF 8
ENDMDL
MODEL 6
REMARK VINA RESULT:      -6.3     17.903     19.542
REMARK  Name = 45783565
REMARK  10 active torsions:
REMARK  status: ('A' for Active; 'I' for Inactive)
REMARK    1  A    between atoms: O_2  and  C_26
REMARK    2  A    between atoms: O_2  and  C_27
REMARK    3  A    between atoms: O_3  and  C_28
REMARK    4  A    between atoms: O_3  and  C_29
REMARK    5  A    between atoms: N_4  and  C_12
REMARK    6  A    between atoms: C_8  and  C_13
REMARK    7  A    between atoms: C_12  and  C_14
REMARK    8  A    between atoms: C_15  and  C_19
REMARK    9  A    between atoms: C_17  and  C_22
REMARK   10  A    between atoms: C_27  and  C_28
REMARK                            x       y       z     vdW  Elec       q    Type
REMARK                         _______ _______ _______ _____ _____    ______ ____
ROOT
ATOM      1  O   UNL     1      -4.945 -11.462  17.158  0.00  0.00    -0.336 OA
ATOM      5  N   UNL     1      -5.601 -10.112  15.496  0.00  0.00    -0.190 NA
ATOM      6  N   UNL     1      -6.234 -11.030  17.494  0.00  0.00    -0.056 NA
ATOM     13  C   UNL     1      -4.648 -10.875  15.969  0.00  0.00    +0.245 A 
ATOM     17  C   UNL     1      -6.553 -10.237  16.465  0.00  0.00    +0.204 A 
ENDROOT
BRANCH  17  22
ATOM      7  N   UNL     1      -9.520  -8.223  17.448  0.00  0.00    -0.221 NA
ATOM     22  C   UNL     1      -7.813  -9.558  16.378  0.00  0.00    +0.041 A 
ATOM     23  C   UNL     1      -8.545  -9.559  15.195  0.00  0.00    +0.018 A 
ATOM     24  C   UNL     1      -8.339  -8.881  17.466  0.00  0.00    +0.126 A 
ATOM     25  C   UNL     1      -9.764  -8.893  15.138  0.00  0.00    +0.068 A 
ATOM     26  C   UNL     1     -10.203  -8.245  16.282  0.00  0.00    +0.215 A 
BRANCH  26   2
ATOM      2  O   UNL     1     -11.401  -7.581  16.252  0.00  0.00    -0.474 OA
BRANCH   2  27
ATOM     27  C   UNL     1     -11.346  -6.169  16.088  0.00  0.00    +0.258 C 
BRANCH  27  28
ATOM     28  C   UNL     1     -11.649  -5.826  14.643  0.00  0.00    +0.200 C 
BRANCH  28   3
ATOM      3  O   UNL     1     -13.019  -5.462  14.528  0.00  0.00    -0.380 OA
ATOM     29  C   UNL     1     -13.218  -4.498  13.504  0.00  0.00    +0.194 C 
ENDBRANCH  28   3
ENDBRANCH  27  28
ENDBRANCH   2  27
ENDBRANCH  26   2
ENDBRANCH  17  22
BRANCH  13   8
ATOM      4  N   UNL     1      -3.028 -10.456  14.128  0.00  0.00    -0.287 NA
ATOM      8  C   UNL     1      -3.288 -11.189  15.383  0.00  0.00    +0.146 C 
ATOM      9  C   UNL     1      -2.131 -10.789  16.315  0.00  0.00    +0.030 C 
ATOM     10  C   UNL     1      -1.241  -9.880  15.480  0.00  0.00    +0.017 C 
ATOM     11  C   UNL     1      -1.580 -10.263  14.053  0.00  0.00    +0.085 C 
BRANCH   4  12
ATOM     12  C   UNL     1      -3.553 -11.132  12.948  0.00  0.00    +0.120 C 
BRANCH  12  14
ATOM     14  C   UNL     1      -4.391 -10.213  12.100  0.00  0.00    -0.030 A 
ATOM     15  C   UNL     1      -3.829  -9.508  11.036  0.00  0.00    -0.046 A 
ATOM     16  C   UNL     1      -5.748 -10.073  12.390  0.00  0.00    +0.005 A 
ATOM     18  C   UNL     1      -4.624  -8.661  10.262  0.00  0.00    +0.003 A 
ATOM     19  C   UNL     1      -2.379  -9.640  10.705  0.00  0.00    +0.044 C 
ATOM     20  C   UNL     1      -6.543  -9.228  11.617  0.00  0.00    +0.000 A 
ATOM     21  C   UNL     1      -5.982  -8.523  10.553  0.00  0.00    +0.000 A 
ENDBRANCH  12  14
ENDBRANCH   4  12
ENDBRANCH  13   8
TORSDOF 8
ENDMDL
MODEL 7
REMARK VINA RESULT:      -6.3     33.340     36.667
REMARK  Name = 45783565
REMARK  10 active torsions:
REMARK  status: ('A' for Active; 'I' for Inactive)
REMARK    1  A    between atoms: O_2  and  C_26
REMARK    2  A    between atoms: O_2  and  C_27
REMARK    3  A    between atoms: O_3  and  C_28
REMARK    4  A    between atoms: O_3  and  C_29
REMARK    5  A    between atoms: N_4  and  C_12
REMARK    6  A    between atoms: C_8  and  C_13
REMARK    7  A    between atoms: C_12  and  C_14
REMARK    8  A    between atoms: C_15  and  C_19
REMARK    9  A    between atoms: C_17  and  C_22
REMARK   10  A    between atoms: C_27  and  C_28
REMARK                            x       y       z     vdW  Elec       q    Type
REMARK                         _______ _______ _______ _____ _____    ______ ____
ROOT
ATOM      1  O   UNL     1      21.770   7.088  21.900  0.00  0.00    -0.336 OA
ATOM      5  N   UNL     1      19.886   6.178  22.702  0.00  0.00    -0.190 NA
ATOM      6  N   UNL     1      20.806   7.238  20.895  0.00  0.00    -0.056 NA
ATOM     13  C   UNL     1      21.147   6.454  22.928  0.00  0.00    +0.245 A 
ATOM     17  C   UNL     1      19.723   6.678  21.443  0.00  0.00    +0.204 A 
ENDROOT
BRANCH  17  22
ATOM      7  N   UNL     1      16.146   7.264  20.616  0.00  0.00    -0.221 NA
ATOM     22  C   UNL     1      18.465   6.601  20.758  0.00  0.00    +0.041 A 
ATOM     23  C   UNL     1      18.321   5.824  19.613  0.00  0.00    +0.018 A 
ATOM     24  C   UNL     1      17.357   7.296  21.214  0.00  0.00    +0.126 A 
ATOM     25  C   UNL     1      17.090   5.767  18.970  0.00  0.00    +0.068 A 
ATOM     26  C   UNL     1      16.042   6.499  19.506  0.00  0.00    +0.215 A 
BRANCH  26   2
ATOM      2  O   UNL     1      14.820   6.460  18.891  0.00  0.00    -0.474 OA
BRANCH   2  27
ATOM     27  C   UNL     1      13.745   7.111  19.558  0.00  0.00    +0.258 C 
BRANCH  27  28
ATOM     28  C   UNL     1      12.687   7.490  18.541  0.00  0.00    +0.200 C 
BRANCH  28   3
ATOM      3  O   UNL     1      13.246   7.409  17.236  0.00  0.00    -0.380 OA
ATOM     29  C   UNL     1      13.491   8.699  16.693  0.00  0.00    +0.194 C 
ENDBRANCH  28   3
ENDBRANCH  27  28
ENDBRANCH   2  27
ENDBRANCH  26   2
ENDBRANCH  17  22
BRANCH  13   8
ATOM      4  N   UNL     1      23.085   5.222  23.885  0.00  0.00    -0.287 NA
ATOM      8  C   UNL     1      21.986   6.171  24.155  0.00  0.00    +0.146 C 
ATOM      9  C   UNL     1      22.683   7.430  24.702  0.00  0.00    +0.030 C 
ATOM     10  C   UNL     1      24.162   7.074  24.761  0.00  0.00    +0.017 C 
ATOM     11  C   UNL     1      24.162   5.559  24.816  0.00  0.00    +0.085 C 
BRANCH   4  12
ATOM     12  C   UNL     1      22.680   3.827  23.996  0.00  0.00    +0.120 C 
BRANCH  12  14
ATOM     14  C   UNL     1      23.434   2.945  23.037  0.00  0.00    -0.030 A 
ATOM     15  C   UNL     1      22.984   2.758  21.729  0.00  0.00    -0.046 A 
ATOM     16  C   UNL     1      24.598   2.313  23.470  0.00  0.00    +0.005 A 
ATOM     18  C   UNL     1      23.699   1.936  20.857  0.00  0.00    +0.003 A 
ATOM     19  C   UNL     1      21.740   3.423  21.241  0.00  0.00    +0.044 C 
ATOM     20  C   UNL     1      25.313   1.492  22.599  0.00  0.00    +0.000 A 
ATOM     21  C   UNL     1      24.864   1.304  21.292  0.00  0.00    +0.000 A 
ENDBRANCH  12  14
ENDBRANCH   4  12
ENDBRANCH  13   8
TORSDOF 8
ENDMDL
MODEL 8
REMARK VINA RESULT:      -6.2     31.181     35.149
REMARK  Name = 45783565
REMARK  10 active torsions:
REMARK  status: ('A' for Active; 'I' for Inactive)
REMARK    1  A    between atoms: O_2  and  C_26
REMARK    2  A    between atoms: O_2  and  C_27
REMARK    3  A    between atoms: O_3  and  C_28
REMARK    4  A    between atoms: O_3  and  C_29
REMARK    5  A    between atoms: N_4  and  C_12
REMARK    6  A    between atoms: C_8  and  C_13
REMARK    7  A    between atoms: C_12  and  C_14
REMARK    8  A    between atoms: C_15  and  C_19
REMARK    9  A    between atoms: C_17  and  C_22
REMARK   10  A    between atoms: C_27  and  C_28
REMARK                            x       y       z     vdW  Elec       q    Type
REMARK                         _______ _______ _______ _____ _____    ______ ____
ROOT
ATOM      1  O   UNL     1      11.611   6.919  -0.525  0.00  0.00    -0.336 OA
ATOM      5  N   UNL     1      10.417   5.205   0.281  0.00  0.00    -0.190 NA
ATOM      6  N   UNL     1      11.430   7.179   0.839  0.00  0.00    -0.056 NA
ATOM     13  C   UNL     1      10.984   5.740  -0.771  0.00  0.00    +0.245 A 
ATOM     17  C   UNL     1      10.717   6.123   1.244  0.00  0.00    +0.204 A 
ENDROOT
BRANCH  17  22
ATOM      7  N   UNL     1       9.021   6.788   4.486  0.00  0.00    -0.221 NA
ATOM     22  C   UNL     1      10.289   5.958   2.603  0.00  0.00    +0.041 A 
ATOM     23  C   UNL     1      10.697   4.860   3.353  0.00  0.00    +0.018 A 
ATOM     24  C   UNL     1       9.458   6.885   3.211  0.00  0.00    +0.126 A 
ATOM     25  C   UNL     1      10.268   4.725   4.668  0.00  0.00    +0.068 A 
ATOM     26  C   UNL     1       9.437   5.708   5.184  0.00  0.00    +0.215 A 
BRANCH  26   2
ATOM      2  O   UNL     1       9.000   5.598   6.477  0.00  0.00    -0.474 OA
BRANCH   2  27
ATOM     27  C   UNL     1       9.586   6.480   7.428  0.00  0.00    +0.258 C 
BRANCH  27  28
ATOM     28  C   UNL     1      10.660   5.736   8.197  0.00  0.00    +0.200 C 
BRANCH  28   3
ATOM      3  O   UNL     1      10.138   4.489   8.638  0.00  0.00    -0.380 OA
ATOM     29  C   UNL     1       9.389   4.632   9.836  0.00  0.00    +0.194 C 
ENDBRANCH  28   3
ENDBRANCH  27  28
ENDBRANCH   2  27
ENDBRANCH  26   2
ENDBRANCH  17  22
BRANCH  13   8
ATOM      4  N   UNL     1      11.471   3.823  -2.281  0.00  0.00    -0.287 NA
ATOM      8  C   UNL     1      11.037   5.232  -2.196  0.00  0.00    +0.146 C 
ATOM      9  C   UNL     1       9.663   5.259  -2.889  0.00  0.00    +0.030 C 
ATOM     10  C   UNL     1       9.437   3.837  -3.383  0.00  0.00    +0.017 C 
ATOM     11  C   UNL     1      10.837   3.265  -3.476  0.00  0.00    +0.085 C 
BRANCH   4  12
ATOM     12  C   UNL     1      12.920   3.668  -2.306  0.00  0.00    +0.120 C 
BRANCH  12  14
ATOM     14  C   UNL     1      13.523   3.804  -0.933  0.00  0.00    -0.030 A 
ATOM     15  C   UNL     1      14.618   4.639  -0.711  0.00  0.00    -0.046 A 
ATOM     16  C   UNL     1      12.971   3.082   0.124  0.00  0.00    +0.005 A 
ATOM     18  C   UNL     1      15.161   4.751   0.570  0.00  0.00    +0.003 A 
ATOM     19  C   UNL     1      15.227   5.423  -1.826  0.00  0.00    +0.044 C 
ATOM     20  C   UNL     1      13.513   3.194   1.404  0.00  0.00    +0.000 A 
ATOM     21  C   UNL     1      14.608   4.028   1.627  0.00  0.00    +0.000 A 
ENDBRANCH  12  14
ENDBRANCH   4  12
ENDBRANCH  13   8
TORSDOF 8
ENDMDL
MODEL 9
REMARK VINA RESULT:      -6.2     30.479     33.574
REMARK  Name = 45783565
REMARK  10 active torsions:
REMARK  status: ('A' for Active; 'I' for Inactive)
REMARK    1  A    between atoms: O_2  and  C_26
REMARK    2  A    between atoms: O_2  and  C_27
REMARK    3  A    between atoms: O_3  and  C_28
REMARK    4  A    between atoms: O_3  and  C_29
REMARK    5  A    between atoms: N_4  and  C_12
REMARK    6  A    between atoms: C_8  and  C_13
REMARK    7  A    between atoms: C_12  and  C_14
REMARK    8  A    between atoms: C_15  and  C_19
REMARK    9  A    between atoms: C_17  and  C_22
REMARK   10  A    between atoms: C_27  and  C_28
REMARK                            x       y       z     vdW  Elec       q    Type
REMARK                         _______ _______ _______ _____ _____    ______ ____
ROOT
ATOM      1  O   UNL     1      16.706   8.314  20.414  0.00  0.00    -0.336 OA
ATOM      5  N   UNL     1      17.107   6.130  20.124  0.00  0.00    -0.190 NA
ATOM      6  N   UNL     1      18.006   8.091  20.886  0.00  0.00    -0.056 NA
ATOM     13  C   UNL     1      16.249   7.109  19.985  0.00  0.00    +0.245 A 
ATOM     17  C   UNL     1      18.170   6.780  20.680  0.00  0.00    +0.204 A 
ENDROOT
BRANCH  17  22
ATOM      7  N   UNL     1      21.002   4.378  20.496  0.00  0.00    -0.221 NA
ATOM     22  C   UNL     1      19.381   6.092  21.021  0.00  0.00    +0.041 A 
ATOM     23  C   UNL     1      20.103   6.437  22.159  0.00  0.00    +0.018 A 
ATOM     24  C   UNL     1      19.869   5.065  20.230  0.00  0.00    +0.126 A 
ATOM     25  C   UNL     1      21.274   5.753  22.465  0.00  0.00    +0.068 A 
ATOM     26  C   UNL     1      21.678   4.740  21.609  0.00  0.00    +0.215 A 
BRANCH  26   2
ATOM      2  O   UNL     1      22.828   4.052  21.889  0.00  0.00    -0.474 OA
BRANCH   2  27
ATOM     27  C   UNL     1      23.776   3.932  20.834  0.00  0.00    +0.258 C 
BRANCH  27  28
ATOM     28  C   UNL     1      24.036   2.463  20.566  0.00  0.00    +0.200 C 
BRANCH  28   3
ATOM      3  O   UNL     1      24.236   1.793  21.805  0.00  0.00    -0.380 OA
ATOM     29  C   UNL     1      25.618   1.645  22.100  0.00  0.00    +0.194 C 
ENDBRANCH  28   3
ENDBRANCH  27  28
ENDBRANCH   2  27
ENDBRANCH  26   2
ENDBRANCH  17  22
BRANCH  13   8
ATOM      4  N   UNL     1      13.973   8.114  20.016  0.00  0.00    -0.287 NA
ATOM      8  C   UNL     1      14.845   7.082  19.420  0.00  0.00    +0.146 C 
ATOM      9  C   UNL     1      14.806   7.363  17.907  0.00  0.00    +0.030 C 
ATOM     10  C   UNL     1      13.843   8.530  17.743  0.00  0.00    +0.017 C 
ATOM     11  C   UNL     1      12.987   8.464  18.992  0.00  0.00    +0.085 C 
BRANCH   4  12
ATOM     12  C   UNL     1      13.345   7.689  21.259  0.00  0.00    +0.120 C 
BRANCH  12  14
ATOM     14  C   UNL     1      12.610   8.817  21.932  0.00  0.00    -0.030 A 
ATOM     15  C   UNL     1      11.253   8.708  22.237  0.00  0.00    -0.046 A 
ATOM     16  C   UNL     1      13.305   9.982  22.252  0.00  0.00    +0.005 A 
ATOM     18  C   UNL     1      10.591   9.766  22.861  0.00  0.00    +0.003 A 
ATOM     19  C   UNL     1      10.487   7.471  21.904  0.00  0.00    +0.044 C 
ATOM     20  C   UNL     1      12.644  11.040  22.877  0.00  0.00    +0.000 A 
ATOM     21  C   UNL     1      11.288  10.932  23.182  0.00  0.00    +0.000 A 
ENDBRANCH  12  14
ENDBRANCH   4  12
ENDBRANCH  13   8
TORSDOF 8
ENDMDL
MODEL 10
REMARK VINA RESULT:      -6.0     33.363     36.676
REMARK  Name = 45783565
REMARK  10 active torsions:
REMARK  status: ('A' for Active; 'I' for Inactive)
REMARK    1  A    between atoms: O_2  and  C_26
REMARK    2  A    between atoms: O_2  and  C_27
REMARK    3  A    between atoms: O_3  and  C_28
REMARK    4  A    between atoms: O_3  and  C_29
REMARK    5  A    between atoms: N_4  and  C_12
REMARK    6  A    between atoms: C_8  and  C_13
REMARK    7  A    between atoms: C_12  and  C_14
REMARK    8  A    between atoms: C_15  and  C_19
REMARK    9  A    between atoms: C_17  and  C_22
REMARK   10  A    between atoms: C_27  and  C_28
REMARK                            x       y       z     vdW  Elec       q    Type
REMARK                         _______ _______ _______ _____ _____    ______ ____
ROOT
ATOM      1  O   UNL     1      20.842   6.093  23.285  0.00  0.00    -0.336 OA
ATOM      5  N   UNL     1      20.644   5.583  21.113  0.00  0.00    -0.190 NA
ATOM      6  N   UNL     1      19.557   6.500  22.905  0.00  0.00    -0.056 NA
ATOM     13  C   UNL     1      21.414   5.565  22.172  0.00  0.00    +0.245 A 
ATOM     17  C   UNL     1      19.515   6.166  21.611  0.00  0.00    +0.204 A 
ENDROOT
BRANCH  17  22
ATOM      7  N   UNL     1      16.345   7.666  20.377  0.00  0.00    -0.221 NA
ATOM     22  C   UNL     1      18.363   6.402  20.791  0.00  0.00    +0.041 A 
ATOM     23  C   UNL     1      18.127   5.638  19.652  0.00  0.00    +0.018 A 
ATOM     24  C   UNL     1      17.449   7.395  21.107  0.00  0.00    +0.126 A 
ATOM     25  C   UNL     1      17.001   5.888  18.876  0.00  0.00    +0.068 A 
ATOM     26  C   UNL     1      16.148   6.904  19.278  0.00  0.00    +0.215 A 
BRANCH  26   2
ATOM      2  O   UNL     1      15.033   7.170  18.529  0.00  0.00    -0.474 OA
BRANCH   2  27
ATOM     27  C   UNL     1      13.961   7.833  19.190  0.00  0.00    +0.258 C 
BRANCH  27  28
ATOM     28  C   UNL     1      12.707   6.991  19.067  0.00  0.00    +0.200 C 
BRANCH  28   3
ATOM      3  O   UNL     1      12.153   7.167  17.769  0.00  0.00    -0.380 OA
ATOM     29  C   UNL     1      11.908   8.539  17.489  0.00  0.00    +0.194 C 
ENDBRANCH  28   3
ENDBRANCH  27  28
ENDBRANCH   2  27
ENDBRANCH  26   2
ENDBRANCH  17  22
BRANCH  13   8
ATOM      4  N   UNL     1      23.260   4.234  21.165  0.00  0.00    -0.287 NA
ATOM      8  C   UNL     1      22.827   5.043  22.322  0.00  0.00    +0.146 C 
ATOM      9  C   UNL     1      23.870   6.171  22.421  0.00  0.00    +0.030 C 
ATOM     10  C   UNL     1      24.880   5.878  21.320  0.00  0.00    +0.017 C 
ATOM     11  C   UNL     1      24.711   4.393  21.067  0.00  0.00    +0.085 C 
BRANCH   4  12
ATOM     12  C   UNL     1      22.868   2.834  21.265  0.00  0.00    +0.120 C 
BRANCH  12  14
ATOM     14  C   UNL     1      23.247   2.238  22.595  0.00  0.00    -0.030 A 
ATOM     15  C   UNL     1      24.271   1.295  22.692  0.00  0.00    -0.046 A 
ATOM     16  C   UNL     1      22.560   2.642  23.739  0.00  0.00    +0.005 A 
ATOM     18  C   UNL     1      24.607   0.756  23.935  0.00  0.00    +0.003 A 
ATOM     19  C   UNL     1      25.021   0.846  21.482  0.00  0.00    +0.044 C 
ATOM     20  C   UNL     1      22.896   2.104  24.981  0.00  0.00    +0.000 A 
ATOM     21  C   UNL     1      23.919   1.161  25.079  0.00  0.00    +0.000 A 
ENDBRANCH  12  14
ENDBRANCH   4  12
ENDBRANCH  13   8
TORSDOF 8
ENDMDL
