MODEL 1
REMARK VINA RESULT:      -6.1      0.000      0.000
REMARK  Name = 11912424
REMARK  9 active torsions:
REMARK  status: ('A' for Active; 'I' for Inactive)
REMARK    1  A    between atoms: S_1  and  N_7
REMARK    2  A    between atoms: S_1  and  C_17
REMARK    3  A    between atoms: O_4  and  C_18
REMARK    4  A    between atoms: C_9  and  C_14
REMARK    5  A    between atoms: C_10  and  C_15
REMARK    6  A    between atoms: C_14  and  C_16
REMARK    7  A    between atoms: C_15  and  C_18
REMARK    8  A    between atoms: C_19  and  C_21
REMARK    9  A    between atoms: C_20  and  C_22
REMARK                            x       y       z     vdW  Elec       q    Type
REMARK                         _______ _______ _______ _____ _____    ______ ____
ROOT
ATOM      7  N   UNL     1      13.541  10.144  20.334  0.00  0.00    -0.176 NA
ATOM      9  C   UNL     1      12.320   9.742  22.462  0.00  0.00    +0.008 C 
ATOM     10  C   UNL     1      12.366  11.263  22.749  0.00  0.00    +0.005 C 
ATOM     11  C   UNL     1      13.522   9.338  21.592  0.00  0.00    +0.113 C 
ATOM     12  C   UNL     1      12.490  12.076  21.452  0.00  0.00    +0.021 C 
ATOM     13  C   UNL     1      13.669  11.604  20.607  0.00  0.00    +0.110 C 
ENDROOT
BRANCH   7   1
ATOM      1  S   UNL     1      14.557   9.538  19.094  0.00  0.00    +0.066 S 
ATOM      2  O   UNL     1      15.370   8.469  19.630  0.00  0.00    -0.153 OA
ATOM      3  O   UNL     1      15.156  10.653  18.393  0.00  0.00    -0.153 OA
BRANCH   1  17
ATOM      5  O   UNL     1      12.039   8.442  16.345  0.00  0.00    -0.358 OA
ATOM      8  N   UNL     1      11.785   7.440  17.274  0.00  0.00    -0.081 NA
ATOM     17  C   UNL     1      13.345   8.816  18.031  0.00  0.00    +0.170 A 
ATOM     19  C   UNL     1      12.998   9.270  16.832  0.00  0.00    +0.161 A 
ATOM     20  C   UNL     1      12.604   7.700  18.297  0.00  0.00    +0.107 A 
ATOM     21  C   UNL     1      13.387  10.392  15.967  0.00  0.00    +0.091 C 
ATOM     22  C   UNL     1      12.596   6.819  19.477  0.00  0.00    +0.071 C 
ENDBRANCH   1  17
ENDBRANCH   7   1
BRANCH   9  14
ATOM     14  C   UNL     1      11.010   9.265  21.824  0.00  0.00    +0.002 C 
ATOM     16  C   UNL     1      10.579   7.930  22.393  0.00  0.00    +0.004 C 
ENDBRANCH   9  14
BRANCH  10  15
ATOM     15  C   UNL     1      11.182  11.754  23.582  0.00  0.00    +0.124 C 
BRANCH  15  18
ATOM      6  O   UNL     1      12.629  11.642  25.541  0.00  0.00    -0.251 OA
ATOM     18  C   UNL     1      11.544  11.886  25.036  0.00  0.00    +0.305 C 
BRANCH  18   4
ATOM      4  O   UNL     1      10.467  12.327  25.737  0.00  0.00    -0.481 OA
ATOM     23  H   UNL     1      10.728  12.921  26.472  0.00  0.00    +0.295 HD
ENDBRANCH  18   4
ENDBRANCH  15  18
ENDBRANCH  10  15
TORSDOF 6
ENDMDL
MODEL 2
REMARK VINA RESULT:      -6.0     12.821     15.177
REMARK  Name = 11912424
REMARK  9 active torsions:
REMARK  status: ('A' for Active; 'I' for Inactive)
REMARK    1  A    between atoms: S_1  and  N_7
REMARK    2  A    between atoms: S_1  and  C_17
REMARK    3  A    between atoms: O_4  and  C_18
REMARK    4  A    between atoms: C_9  and  C_14
REMARK    5  A    between atoms: C_10  and  C_15
REMARK    6  A    between atoms: C_14  and  C_16
REMARK    7  A    between atoms: C_15  and  C_18
REMARK    8  A    between atoms: C_19  and  C_21
REMARK    9  A    between atoms: C_20  and  C_22
REMARK                            x       y       z     vdW  Elec       q    Type
REMARK                         _______ _______ _______ _____ _____    ______ ____
ROOT
ATOM      7  N   UNL     1      10.195   8.012   6.408  0.00  0.00    -0.176 NA
ATOM      9  C   UNL     1      10.697   5.611   6.815  0.00  0.00    +0.008 C 
ATOM     10  C   UNL     1      10.072   5.743   8.225  0.00  0.00    +0.005 C 
ATOM     11  C   UNL     1      11.263   6.969   6.366  0.00  0.00    +0.113 C 
ATOM     12  C   UNL     1       9.049   6.888   8.282  0.00  0.00    +0.021 C 
ATOM     13  C   UNL     1       9.649   8.198   7.783  0.00  0.00    +0.110 C 
ENDROOT
BRANCH   7   1
ATOM      1  S   UNL     1      10.550   9.457   5.559  0.00  0.00    +0.066 S 
ATOM      2  O   UNL     1      11.343   9.136   4.393  0.00  0.00    -0.153 OA
ATOM      3  O   UNL     1      10.986  10.461   6.505  0.00  0.00    -0.153 OA
BRANCH   1  17
ATOM      5  O   UNL     1       6.989   9.831   4.051  0.00  0.00    -0.358 OA
ATOM      8  N   UNL     1       7.071  11.056   4.702  0.00  0.00    -0.081 NA
ATOM     17  C   UNL     1       8.930   9.895   5.008  0.00  0.00    +0.170 A 
ATOM     19  C   UNL     1       8.139   9.140   4.253  0.00  0.00    +0.161 A 
ATOM     20  C   UNL     1       8.275  11.062   5.280  0.00  0.00    +0.107 A 
ATOM     21  C   UNL     1       8.219   7.813   3.627  0.00  0.00    +0.091 C 
ATOM     22  C   UNL     1       8.698  12.232   6.067  0.00  0.00    +0.071 C 
ENDBRANCH   1  17
ENDBRANCH   7   1
BRANCH   9  14
ATOM     14  C   UNL     1       9.739   5.051   5.756  0.00  0.00    +0.002 C 
ATOM     16  C   UNL     1      10.427   4.918   4.413  0.00  0.00    +0.004 C 
ENDBRANCH   9  14
BRANCH  10  15
ATOM     15  C   UNL     1       9.452   4.440   8.732  0.00  0.00    +0.124 C 
BRANCH  15  18
ATOM      6  O   UNL     1       8.116   4.680  10.757  0.00  0.00    -0.251 OA
ATOM     18  C   UNL     1       9.193   4.489  10.212  0.00  0.00    +0.305 C 
BRANCH  18   4
ATOM      4  O   UNL     1      10.355   4.287  10.887  0.00  0.00    -0.481 OA
ATOM     23  H   UNL     1      10.463   4.922  11.626  0.00  0.00    +0.295 HD
ENDBRANCH  18   4
ENDBRANCH  15  18
ENDBRANCH  10  15
TORSDOF 6
ENDMDL
MODEL 3
REMARK VINA RESULT:      -5.8      2.361      3.466
REMARK  Name = 11912424
REMARK  9 active torsions:
REMARK  status: ('A' for Active; 'I' for Inactive)
REMARK    1  A    between atoms: S_1  and  N_7
REMARK    2  A    between atoms: S_1  and  C_17
REMARK    3  A    between atoms: O_4  and  C_18
REMARK    4  A    between atoms: C_9  and  C_14
REMARK    5  A    between atoms: C_10  and  C_15
REMARK    6  A    between atoms: C_14  and  C_16
REMARK    7  A    between atoms: C_15  and  C_18
REMARK    8  A    between atoms: C_19  and  C_21
REMARK    9  A    between atoms: C_20  and  C_22
REMARK                            x       y       z     vdW  Elec       q    Type
REMARK                         _______ _______ _______ _____ _____    ______ ____
ROOT
ATOM      7  N   UNL     1      12.815   8.815  20.535  0.00  0.00    -0.176 NA
ATOM      9  C   UNL     1      13.300  11.061  21.483  0.00  0.00    +0.008 C 
ATOM     10  C   UNL     1      14.062  10.381  22.646  0.00  0.00    +0.005 C 
ATOM     11  C   UNL     1      12.210  10.117  20.949  0.00  0.00    +0.113 C 
ATOM     12  C   UNL     1      14.590   8.997  22.238  0.00  0.00    +0.021 C 
ATOM     13  C   UNL     1      13.478   8.119  21.674  0.00  0.00    +0.110 C 
ENDROOT
BRANCH   7   1
ATOM      1  S   UNL     1      11.818   7.827  19.552  0.00  0.00    +0.066 S 
ATOM      2  O   UNL     1      10.513   8.440  19.436  0.00  0.00    -0.153 OA
ATOM      3  O   UNL     1      11.962   6.450  19.973  0.00  0.00    -0.153 OA
BRANCH   1  17
ATOM      5  O   UNL     1      14.164   8.014  16.460  0.00  0.00    -0.358 OA
ATOM      8  N   UNL     1      12.992   8.463  15.862  0.00  0.00    -0.081 NA
ATOM     17  C   UNL     1      12.642   8.009  18.000  0.00  0.00    +0.170 A 
ATOM     19  C   UNL     1      13.923   7.742  17.768  0.00  0.00    +0.161 A 
ATOM     20  C   UNL     1      12.078   8.447  16.836  0.00  0.00    +0.107 A 
ATOM     21  C   UNL     1      15.065   7.254  18.552  0.00  0.00    +0.091 C 
ATOM     22  C   UNL     1      10.699   8.872  16.545  0.00  0.00    +0.071 C 
ENDBRANCH   1  17
ENDBRANCH   7   1
BRANCH   9  14
ATOM     14  C   UNL     1      14.203  11.541  20.340  0.00  0.00    +0.002 C 
ATOM     16  C   UNL     1      13.386  11.932  19.126  0.00  0.00    +0.004 C 
ENDBRANCH   9  14
BRANCH  10  15
ATOM     15  C   UNL     1      15.191  11.243  23.212  0.00  0.00    +0.124 C 
BRANCH  15  18
ATOM      6  O   UNL     1      14.610  13.038  24.756  0.00  0.00    -0.251 OA
ATOM     18  C   UNL     1      14.813  11.854  24.533  0.00  0.00    +0.305 C 
BRANCH  18   4
ATOM      4  O   UNL     1      14.722  10.881  25.477  0.00  0.00    -0.481 OA
ATOM     23  H   UNL     1      14.838   9.987  25.092  0.00  0.00    +0.295 HD
ENDBRANCH  18   4
ENDBRANCH  15  18
ENDBRANCH  10  15
TORSDOF 6
ENDMDL
MODEL 4
REMARK VINA RESULT:      -5.5     26.103     28.007
REMARK  Name = 11912424
REMARK  9 active torsions:
REMARK  status: ('A' for Active; 'I' for Inactive)
REMARK    1  A    between atoms: S_1  and  N_7
REMARK    2  A    between atoms: S_1  and  C_17
REMARK    3  A    between atoms: O_4  and  C_18
REMARK    4  A    between atoms: C_9  and  C_14
REMARK    5  A    between atoms: C_10  and  C_15
REMARK    6  A    between atoms: C_14  and  C_16
REMARK    7  A    between atoms: C_15  and  C_18
REMARK    8  A    between atoms: C_19  and  C_21
REMARK    9  A    between atoms: C_20  and  C_22
REMARK                            x       y       z     vdW  Elec       q    Type
REMARK                         _______ _______ _______ _____ _____    ______ ____
ROOT
ATOM      7  N   UNL     1      -5.237 -11.745  14.561  0.00  0.00    -0.176 NA
ATOM      9  C   UNL     1      -4.415 -10.411  16.491  0.00  0.00    +0.008 C 
ATOM     10  C   UNL     1      -5.515 -11.051  17.373  0.00  0.00    +0.005 C 
ATOM     11  C   UNL     1      -4.878 -10.371  15.025  0.00  0.00    +0.113 C 
ATOM     12  C   UNL     1      -5.948 -12.419  16.826  0.00  0.00    +0.021 C 
ATOM     13  C   UNL     1      -6.353 -12.331  15.358  0.00  0.00    +0.110 C 
ENDROOT
BRANCH   7   1
ATOM      1  S   UNL     1      -5.371 -11.931  12.863  0.00  0.00    +0.066 S 
ATOM      2  O   UNL     1      -6.369 -11.008  12.366  0.00  0.00    -0.153 OA
ATOM      3  O   UNL     1      -5.437 -13.342  12.550  0.00  0.00    -0.153 OA
BRANCH   1  17
ATOM      5  O   UNL     1      -1.646 -11.139  12.096  0.00  0.00    -0.358 OA
ATOM      8  N   UNL     1      -2.230 -10.072  11.424  0.00  0.00    -0.081 NA
ATOM     17  C   UNL     1      -3.786 -11.336  12.363  0.00  0.00    +0.170 A 
ATOM     19  C   UNL     1      -2.619 -11.897  12.662  0.00  0.00    +0.161 A 
ATOM     20  C   UNL     1      -3.544 -10.224  11.608  0.00  0.00    +0.107 A 
ATOM     21  C   UNL     1      -2.169 -13.075  13.417  0.00  0.00    +0.091 C 
ATOM     22  C   UNL     1      -4.478  -9.249  11.020  0.00  0.00    +0.071 C 
ENDBRANCH   1  17
ENDBRANCH   7   1
BRANCH   9  14
ATOM     14  C   UNL     1      -3.046 -11.093  16.605  0.00  0.00    +0.002 C 
ATOM     16  C   UNL     1      -1.974 -10.288  15.901  0.00  0.00    +0.004 C 
ENDBRANCH   9  14
BRANCH  10  15
ATOM     15  C   UNL     1      -5.117 -11.161  18.846  0.00  0.00    +0.124 C 
BRANCH  15  18
ATOM      6  O   UNL     1      -6.999 -11.997  20.151  0.00  0.00    -0.251 OA
ATOM     18  C   UNL     1      -6.314 -11.067  19.751  0.00  0.00    +0.305 C 
BRANCH  18   4
ATOM      4  O   UNL     1      -6.541  -9.768  20.076  0.00  0.00    -0.481 OA
ATOM     23  H   UNL     1      -6.854  -9.248  19.306  0.00  0.00    +0.295 HD
ENDBRANCH  18   4
ENDBRANCH  15  18
ENDBRANCH  10  15
TORSDOF 6
ENDMDL
MODEL 5
REMARK VINA RESULT:      -5.4      3.981      6.325
REMARK  Name = 11912424
REMARK  9 active torsions:
REMARK  status: ('A' for Active; 'I' for Inactive)
REMARK    1  A    between atoms: S_1  and  N_7
REMARK    2  A    between atoms: S_1  and  C_17
REMARK    3  A    between atoms: O_4  and  C_18
REMARK    4  A    between atoms: C_9  and  C_14
REMARK    5  A    between atoms: C_10  and  C_15
REMARK    6  A    between atoms: C_14  and  C_16
REMARK    7  A    between atoms: C_15  and  C_18
REMARK    8  A    between atoms: C_19  and  C_21
REMARK    9  A    between atoms: C_20  and  C_22
REMARK                            x       y       z     vdW  Elec       q    Type
REMARK                         _______ _______ _______ _____ _____    ______ ____
ROOT
ATOM      7  N   UNL     1      15.192   7.645  20.292  0.00  0.00    -0.176 NA
ATOM      9  C   UNL     1      17.271   8.051  21.593  0.00  0.00    +0.008 C 
ATOM     10  C   UNL     1      17.885   6.776  20.965  0.00  0.00    +0.005 C 
ATOM     11  C   UNL     1      15.740   7.917  21.655  0.00  0.00    +0.113 C 
ATOM     12  C   UNL     1      17.239   6.450  19.609  0.00  0.00    +0.021 C 
ATOM     13  C   UNL     1      15.720   6.375  19.719  0.00  0.00    +0.110 C 
ENDROOT
BRANCH   7   1
ATOM      1  S   UNL     1      13.502   7.878  20.124  0.00  0.00    +0.066 S 
ATOM      2  O   UNL     1      12.956   8.299  21.396  0.00  0.00    -0.153 OA
ATOM      3  O   UNL     1      12.943   6.753  19.407  0.00  0.00    -0.153 OA
BRANCH   1  17
ATOM      5  O   UNL     1      13.621  10.511  17.269  0.00  0.00    -0.358 OA
ATOM      8  N   UNL     1      13.325  11.362  18.327  0.00  0.00    -0.081 NA
ATOM     17  C   UNL     1      13.491   9.273  19.041  0.00  0.00    +0.170 A 
ATOM     19  C   UNL     1      13.717   9.238  17.732  0.00  0.00    +0.161 A 
ATOM     20  C   UNL     1      13.253  10.569  19.400  0.00  0.00    +0.107 A 
ATOM     21  C   UNL     1      14.028   8.206  16.735  0.00  0.00    +0.091 C 
ATOM     22  C   UNL     1      12.950  11.154  20.717  0.00  0.00    +0.071 C 
ENDBRANCH   1  17
ENDBRANCH   7   1
BRANCH   9  14
ATOM     14  C   UNL     1      17.669   9.352  20.885  0.00  0.00    +0.002 C 
ATOM     16  C   UNL     1      18.371  10.298  21.836  0.00  0.00    +0.004 C 
ENDBRANCH   9  14
BRANCH  10  15
ATOM     15  C   UNL     1      19.407   6.845  20.834  0.00  0.00    +0.124 C 
BRANCH  15  18
ATOM      6  O   UNL     1      19.893   6.333  23.167  0.00  0.00    -0.251 OA
ATOM     18  C   UNL     1      20.093   6.148  21.976  0.00  0.00    +0.305 C 
BRANCH  18   4
ATOM      4  O   UNL     1      20.996   5.255  21.492  0.00  0.00    -0.481 OA
ATOM     23  H   UNL     1      20.647   4.339  21.507  0.00  0.00    +0.295 HD
ENDBRANCH  18   4
ENDBRANCH  15  18
ENDBRANCH  10  15
TORSDOF 6
ENDMDL
MODEL 6
REMARK VINA RESULT:      -5.4     25.149     27.165
REMARK  Name = 11912424
REMARK  9 active torsions:
REMARK  status: ('A' for Active; 'I' for Inactive)
REMARK    1  A    between atoms: S_1  and  N_7
REMARK    2  A    between atoms: S_1  and  C_17
REMARK    3  A    between atoms: O_4  and  C_18
REMARK    4  A    between atoms: C_9  and  C_14
REMARK    5  A    between atoms: C_10  and  C_15
REMARK    6  A    between atoms: C_14  and  C_16
REMARK    7  A    between atoms: C_15  and  C_18
REMARK    8  A    between atoms: C_19  and  C_21
REMARK    9  A    between atoms: C_20  and  C_22
REMARK                            x       y       z     vdW  Elec       q    Type
REMARK                         _______ _______ _______ _____ _____    ______ ____
ROOT
ATOM      7  N   UNL     1     -13.713   7.869  20.445  0.00  0.00    -0.176 NA
ATOM      9  C   UNL     1     -12.766   8.877  18.379  0.00  0.00    +0.008 C 
ATOM     10  C   UNL     1     -11.404   8.221  18.710  0.00  0.00    +0.005 C 
ATOM     11  C   UNL     1     -13.548   9.140  19.677  0.00  0.00    +0.113 C 
ATOM     12  C   UNL     1     -11.580   6.972  19.588  0.00  0.00    +0.021 C 
ATOM     13  C   UNL     1     -12.401   7.279  20.836  0.00  0.00    +0.110 C 
ENDROOT
BRANCH   7   1
ATOM      1  S   UNL     1     -14.896   7.912  21.683  0.00  0.00    +0.066 S 
ATOM      2  O   UNL     1     -15.869   8.937  21.371  0.00  0.00    -0.153 OA
ATOM      3  O   UNL     1     -14.232   7.880  22.968  0.00  0.00    -0.153 OA
BRANCH   1  17
ATOM      5  O   UNL     1     -16.354   4.311  21.721  0.00  0.00    -0.358 OA
ATOM      8  N   UNL     1     -16.797   4.703  20.464  0.00  0.00    -0.081 NA
ATOM     17  C   UNL     1     -15.664   6.342  21.428  0.00  0.00    +0.170 A 
ATOM     19  C   UNL     1     -15.664   5.331  22.291  0.00  0.00    +0.161 A 
ATOM     20  C   UNL     1     -16.356   5.956  20.317  0.00  0.00    +0.107 A 
ATOM     21  C   UNL     1     -15.121   5.080  23.633  0.00  0.00    +0.091 C 
ATOM     22  C   UNL     1     -16.652   6.689  19.074  0.00  0.00    +0.071 C 
ENDBRANCH   1  17
ENDBRANCH   7   1
BRANCH   9  14
ATOM     14  C   UNL     1     -13.621   8.078  17.388  0.00  0.00    +0.002 C 
ATOM     16  C   UNL     1     -13.952   8.904  16.162  0.00  0.00    +0.004 C 
ENDBRANCH   9  14
BRANCH  10  15
ATOM     15  C   UNL     1     -10.576   7.893  17.467  0.00  0.00    +0.124 C 
BRANCH  15  18
ATOM      6  O   UNL     1     -10.461   9.468  15.610  0.00  0.00    -0.251 OA
ATOM     18  C   UNL     1     -10.146   9.139  16.744  0.00  0.00    +0.305 C 
BRANCH  18   4
ATOM      4  O   UNL     1      -9.332   9.875  17.545  0.00  0.00    -0.481 OA
ATOM     23  H   UNL     1      -9.717  10.754  17.746  0.00  0.00    +0.295 HD
ENDBRANCH  18   4
ENDBRANCH  15  18
ENDBRANCH  10  15
TORSDOF 6
ENDMDL
MODEL 7
REMARK VINA RESULT:      -5.3     13.208     16.037
REMARK  Name = 11912424
REMARK  9 active torsions:
REMARK  status: ('A' for Active; 'I' for Inactive)
REMARK    1  A    between atoms: S_1  and  N_7
REMARK    2  A    between atoms: S_1  and  C_17
REMARK    3  A    between atoms: O_4  and  C_18
REMARK    4  A    between atoms: C_9  and  C_14
REMARK    5  A    between atoms: C_10  and  C_15
REMARK    6  A    between atoms: C_14  and  C_16
REMARK    7  A    between atoms: C_15  and  C_18
REMARK    8  A    between atoms: C_19  and  C_21
REMARK    9  A    between atoms: C_20  and  C_22
REMARK                            x       y       z     vdW  Elec       q    Type
REMARK                         _______ _______ _______ _____ _____    ______ ____
ROOT
ATOM      7  N   UNL     1      11.211   6.604   5.194  0.00  0.00    -0.176 NA
ATOM      9  C   UNL     1       9.139   5.764   6.279  0.00  0.00    +0.008 C 
ATOM     10  C   UNL     1       9.901   5.687   7.625  0.00  0.00    +0.005 C 
ATOM     11  C   UNL     1      10.122   5.586   5.111  0.00  0.00    +0.113 C 
ATOM     12  C   UNL     1      11.084   6.668   7.657  0.00  0.00    +0.021 C 
ATOM     13  C   UNL     1      12.000   6.478   6.453  0.00  0.00    +0.110 C 
ENDROOT
BRANCH   7   1
ATOM      1  S   UNL     1      12.137   6.802   3.766  0.00  0.00    +0.066 S 
ATOM      2  O   UNL     1      12.061   5.589   2.982  0.00  0.00    -0.153 OA
ATOM      3  O   UNL     1      13.414   7.388   4.113  0.00  0.00    -0.153 OA
BRANCH   1  17
ATOM      5  O   UNL     1       9.910   9.052   1.514  0.00  0.00    -0.358 OA
ATOM      8  N   UNL     1      10.207   9.978   2.507  0.00  0.00    -0.081 NA
ATOM     17  C   UNL     1      11.177   8.037   2.947  0.00  0.00    +0.170 A 
ATOM     19  C   UNL     1      10.515   7.873   1.807  0.00  0.00    +0.161 A 
ATOM     20  C   UNL     1      10.987   9.321   3.370  0.00  0.00    +0.107 A 
ATOM     21  C   UNL     1      10.301   6.778   0.851  0.00  0.00    +0.091 C 
ATOM     22  C   UNL     1      11.494  10.017   4.565  0.00  0.00    +0.071 C 
ENDBRANCH   1  17
ENDBRANCH   7   1
BRANCH   9  14
ATOM     14  C   UNL     1       8.316   7.046   6.099  0.00  0.00    +0.002 C 
ATOM     16  C   UNL     1       8.032   7.312   4.636  0.00  0.00    +0.004 C 
ENDBRANCH   9  14
BRANCH  10  15
ATOM     15  C   UNL     1       8.998   5.892   8.841  0.00  0.00    +0.124 C 
BRANCH  15  18
ATOM      6  O   UNL     1      10.156   4.047   9.936  0.00  0.00    -0.251 OA
ATOM     18  C   UNL     1       9.216   4.826   9.879  0.00  0.00    +0.305 C 
BRANCH  18   4
ATOM      4  O   UNL     1       8.195   4.844  10.775  0.00  0.00    -0.481 OA
ATOM     23  H   UNL     1       8.408   4.328  11.581  0.00  0.00    +0.295 HD
ENDBRANCH  18   4
ENDBRANCH  15  18
ENDBRANCH  10  15
TORSDOF 6
ENDMDL
MODEL 8
REMARK VINA RESULT:      -5.2     28.198     29.840
REMARK  Name = 11912424
REMARK  9 active torsions:
REMARK  status: ('A' for Active; 'I' for Inactive)
REMARK    1  A    between atoms: S_1  and  N_7
REMARK    2  A    between atoms: S_1  and  C_17
REMARK    3  A    between atoms: O_4  and  C_18
REMARK    4  A    between atoms: C_9  and  C_14
REMARK    5  A    between atoms: C_10  and  C_15
REMARK    6  A    between atoms: C_14  and  C_16
REMARK    7  A    between atoms: C_15  and  C_18
REMARK    8  A    between atoms: C_19  and  C_21
REMARK    9  A    between atoms: C_20  and  C_22
REMARK                            x       y       z     vdW  Elec       q    Type
REMARK                         _______ _______ _______ _____ _____    ______ ____
ROOT
ATOM      7  N   UNL     1      -8.487 -10.479  18.295  0.00  0.00    -0.176 NA
ATOM      9  C   UNL     1     -10.638  -9.432  17.620  0.00  0.00    +0.008 C 
ATOM     10  C   UNL     1      -9.846  -8.397  16.785  0.00  0.00    +0.005 C 
ATOM     11  C   UNL     1      -9.778  -9.921  18.798  0.00  0.00    +0.113 C 
ATOM     12  C   UNL     1      -8.475  -8.947  16.361  0.00  0.00    +0.021 C 
ATOM     13  C   UNL     1      -7.685  -9.459  17.561  0.00  0.00    +0.110 C 
ENDROOT
BRANCH   7   1
ATOM      1  S   UNL     1      -7.611 -11.426  19.424  0.00  0.00    +0.066 S 
ATOM      2  O   UNL     1      -8.532 -12.295  20.124  0.00  0.00    -0.153 OA
ATOM      3  O   UNL     1      -6.698 -10.568  20.147  0.00  0.00    -0.153 OA
BRANCH   1  17
ATOM      5  O   UNL     1      -5.002 -13.401  17.330  0.00  0.00    -0.358 OA
ATOM      8  N   UNL     1      -6.153 -13.801  16.662  0.00  0.00    -0.081 NA
ATOM     17  C   UNL     1      -6.662 -12.422  18.317  0.00  0.00    +0.170 A 
ATOM     19  C   UNL     1      -5.340 -12.558  18.338  0.00  0.00    +0.161 A 
ATOM     20  C   UNL     1      -7.154 -13.182  17.295  0.00  0.00    +0.107 A 
ATOM     21  C   UNL     1      -4.232 -12.037  19.149  0.00  0.00    +0.091 C 
ATOM     22  C   UNL     1      -8.539 -13.386  16.838  0.00  0.00    +0.071 C 
ENDBRANCH   1  17
ENDBRANCH   7   1
BRANCH   9  14
ATOM     14  C   UNL     1     -11.163 -10.622  16.807  0.00  0.00    +0.002 C 
ATOM     16  C   UNL     1     -11.936 -11.584  17.684  0.00  0.00    +0.004 C 
ENDBRANCH   9  14
BRANCH  10  15
ATOM     15  C   UNL     1     -10.620  -7.886  15.569  0.00  0.00    +0.124 C 
BRANCH  15  18
ATOM      6  O   UNL     1     -11.954  -5.877  15.931  0.00  0.00    -0.251 OA
ATOM     18  C   UNL     1     -10.887  -6.409  15.663  0.00  0.00    +0.305 C 
BRANCH  18   4
ATOM      4  O   UNL     1      -9.745  -5.720  15.401  0.00  0.00    -0.481 OA
ATOM     23  H   UNL     1      -9.919  -4.915  14.869  0.00  0.00    +0.295 HD
ENDBRANCH  18   4
ENDBRANCH  15  18
ENDBRANCH  10  15
TORSDOF 6
ENDMDL
MODEL 9
REMARK VINA RESULT:      -5.2      4.092      6.443
REMARK  Name = 11912424
REMARK  9 active torsions:
REMARK  status: ('A' for Active; 'I' for Inactive)
REMARK    1  A    between atoms: S_1  and  N_7
REMARK    2  A    between atoms: S_1  and  C_17
REMARK    3  A    between atoms: O_4  and  C_18
REMARK    4  A    between atoms: C_9  and  C_14
REMARK    5  A    between atoms: C_10  and  C_15
REMARK    6  A    between atoms: C_14  and  C_16
REMARK    7  A    between atoms: C_15  and  C_18
REMARK    8  A    between atoms: C_19  and  C_21
REMARK    9  A    between atoms: C_20  and  C_22
REMARK                            x       y       z     vdW  Elec       q    Type
REMARK                         _______ _______ _______ _____ _____    ______ ____
ROOT
ATOM      7  N   UNL     1      15.574   8.557  20.663  0.00  0.00    -0.176 NA
ATOM      9  C   UNL     1      17.845   8.450  21.667  0.00  0.00    +0.008 C 
ATOM     10  C   UNL     1      17.997   7.012  21.113  0.00  0.00    +0.005 C 
ATOM     11  C   UNL     1      16.360   8.759  21.917  0.00  0.00    +0.113 C 
ATOM     12  C   UNL     1      17.104   6.786  19.883  0.00  0.00    +0.021 C 
ATOM     13  C   UNL     1      15.652   7.151  20.173  0.00  0.00    +0.110 C 
ENDROOT
BRANCH   7   1
ATOM      1  S   UNL     1      14.005   9.246  20.665  0.00  0.00    +0.066 S 
ATOM      2  O   UNL     1      14.084  10.600  20.163  0.00  0.00    -0.153 OA
ATOM      3  O   UNL     1      13.367   8.955  21.931  0.00  0.00    -0.153 OA
BRANCH   1  17
ATOM      5  O   UNL     1      12.020   6.751  18.445  0.00  0.00    -0.358 OA
ATOM      8  N   UNL     1      12.669   7.456  17.439  0.00  0.00    -0.081 NA
ATOM     17  C   UNL     1      13.232   8.253  19.426  0.00  0.00    +0.170 A 
ATOM     19  C   UNL     1      12.381   7.258  19.651  0.00  0.00    +0.161 A 
ATOM     20  C   UNL     1      13.405   8.371  18.077  0.00  0.00    +0.107 A 
ATOM     21  C   UNL     1      11.780   6.620  20.830  0.00  0.00    +0.091 C 
ATOM     22  C   UNL     1      14.235   9.306  17.299  0.00  0.00    +0.071 C 
ENDBRANCH   1  17
ENDBRANCH   7   1
BRANCH   9  14
ATOM     14  C   UNL     1      18.478   9.531  20.782  0.00  0.00    +0.002 C 
ATOM     16  C   UNL     1      19.624  10.218  21.495  0.00  0.00    +0.004 C 
ENDBRANCH   9  14
BRANCH  10  15
ATOM     15  C   UNL     1      19.447   6.637  20.802  0.00  0.00    +0.124 C 
BRANCH  15  18
ATOM      6  O   UNL     1      19.936   6.385  23.177  0.00  0.00    -0.251 OA
ATOM     18  C   UNL     1      20.147   6.084  22.012  0.00  0.00    +0.305 C 
BRANCH  18   4
ATOM      4  O   UNL     1      21.078   5.173  21.625  0.00  0.00    -0.481 OA
ATOM     23  H   UNL     1      20.770   4.253  21.769  0.00  0.00    +0.295 HD
ENDBRANCH  18   4
ENDBRANCH  15  18
ENDBRANCH  10  15
TORSDOF 6
ENDMDL
MODEL 10
REMARK VINA RESULT:      -5.2     14.147     17.153
REMARK  Name = 11912424
REMARK  9 active torsions:
REMARK  status: ('A' for Active; 'I' for Inactive)
REMARK    1  A    between atoms: S_1  and  N_7
REMARK    2  A    between atoms: S_1  and  C_17
REMARK    3  A    between atoms: O_4  and  C_18
REMARK    4  A    between atoms: C_9  and  C_14
REMARK    5  A    between atoms: C_10  and  C_15
REMARK    6  A    between atoms: C_14  and  C_16
REMARK    7  A    between atoms: C_15  and  C_18
REMARK    8  A    between atoms: C_19  and  C_21
REMARK    9  A    between atoms: C_20  and  C_22
REMARK                            x       y       z     vdW  Elec       q    Type
REMARK                         _______ _______ _______ _____ _____    ______ ____
ROOT
ATOM      7  N   UNL     1      10.837   7.036   3.904  0.00  0.00    -0.176 NA
ATOM      9  C   UNL     1       8.961   6.317   5.368  0.00  0.00    +0.008 C 
ATOM     10  C   UNL     1       9.994   5.812   6.405  0.00  0.00    +0.005 C 
ATOM     11  C   UNL     1       9.565   6.254   3.956  0.00  0.00    +0.113 C 
ATOM     12  C   UNL     1      11.332   6.555   6.273  0.00  0.00    +0.021 C 
ATOM     13  C   UNL     1      11.862   6.500   4.844  0.00  0.00    +0.110 C 
ENDROOT
BRANCH   7   1
ATOM      1  S   UNL     1      11.405   7.404   2.330  0.00  0.00    +0.066 S 
ATOM      2  O   UNL     1      12.389   8.461   2.419  0.00  0.00    -0.153 OA
ATOM      3  O   UNL     1      10.273   7.512   1.436  0.00  0.00    -0.153 OA
BRANCH   1  17
ATOM      5  O   UNL     1      12.678   3.867   1.350  0.00  0.00    -0.358 OA
ATOM      8  N   UNL     1      13.896   4.440   1.693  0.00  0.00    -0.081 NA
ATOM     17  C   UNL     1      12.255   5.903   1.953  0.00  0.00    +0.170 A 
ATOM     19  C   UNL     1      11.690   4.782   1.517  0.00  0.00    +0.161 A 
ATOM     20  C   UNL     1      13.600   5.691   2.059  0.00  0.00    +0.107 A 
ATOM     21  C   UNL     1      10.328   4.334   1.196  0.00  0.00    +0.091 C 
ATOM     22  C   UNL     1      14.678   6.596   2.491  0.00  0.00    +0.071 C 
ENDBRANCH   1  17
ENDBRANCH   7   1
BRANCH   9  14
ATOM     14  C   UNL     1       8.418   7.721   5.659  0.00  0.00    +0.002 C 
ATOM     16  C   UNL     1       7.805   8.337   4.420  0.00  0.00    +0.004 C 
ENDBRANCH   9  14
BRANCH  10  15
ATOM     15  C   UNL     1       9.482   5.876   7.845  0.00  0.00    +0.124 C 
BRANCH  15  18
ATOM      6  O   UNL     1       9.861   4.503   9.823  0.00  0.00    -0.251 OA
ATOM     18  C   UNL     1       9.819   4.625   8.608  0.00  0.00    +0.305 C 
BRANCH  18   4
ATOM      4  O   UNL     1      10.081   3.615   7.739  0.00  0.00    -0.481 OA
ATOM     23  H   UNL     1       9.473   2.856   7.868  0.00  0.00    +0.295 HD
ENDBRANCH  18   4
ENDBRANCH  15  18
ENDBRANCH  10  15
TORSDOF 6
ENDMDL
