MODEL 1
REMARK VINA RESULT:      -6.6      0.000      0.000
REMARK  Name = 75536561
REMARK  9 active torsions:
REMARK  status: ('A' for Active; 'I' for Inactive)
REMARK    1  A    between atoms: O_2  and  C_8
REMARK    2  A    between atoms: O_4  and  C_24
REMARK    3  A    between atoms: O_4  and  C_25
REMARK    4  A    between atoms: N_5  and  C_16
REMARK    5  A    between atoms: N_6  and  C_10
REMARK    6  A    between atoms: N_6  and  C_18
REMARK    7  A    between atoms: C_7  and  C_16
REMARK    8  A    between atoms: C_9  and  C_17
REMARK    9  A    between atoms: C_18  and  C_19
REMARK                            x       y       z     vdW  Elec       q    Type
REMARK                         _______ _______ _______ _____ _____    ______ ____
ROOT
ATOM      1  O   UNL     1      10.602   8.488  19.949  0.00  0.00    -0.371 OA
ATOM      7  C   UNL     1      10.994   7.600  21.009  0.00  0.00    +0.165 C 
ATOM      8  C   UNL     1      12.450   7.241  20.742  0.00  0.00    +0.164 C 
ATOM     10  C   UNL     1      12.469   7.210  19.225  0.00  0.00    +0.111 C 
ATOM     15  C   UNL     1      11.568   8.387  18.888  0.00  0.00    +0.181 C 
ENDROOT
BRANCH   8   2
ATOM      2  O   UNL     1      12.801   5.998  21.319  0.00  0.00    -0.388 OA
ATOM     28  H   UNL     1      11.989   5.477  21.439  0.00  0.00    +0.210 HD
ENDBRANCH   8   2
BRANCH  10   6
ATOM      6  N   UNL     1      13.802   7.334  18.656  0.00  0.00    -0.305 NA
ATOM     27  H   UNL     1      13.722   7.636  17.684  0.00  0.00    +0.123 HD
BRANCH   6  18
ATOM     18  C   UNL     1      14.597   8.312  19.390  0.00  0.00    +0.116 C 
BRANCH  18  19
ATOM     19  C   UNL     1      15.929   7.751  19.807  0.00  0.00    -0.033 A 
ATOM     20  C   UNL     1      16.748   8.469  20.678  0.00  0.00    +0.008 A 
ATOM     21  C   UNL     1      16.345   6.510  19.324  0.00  0.00    +0.008 A 
ATOM     22  C   UNL     1      17.983   7.949  21.064  0.00  0.00    +0.046 A 
ATOM     23  C   UNL     1      17.580   5.989  19.710  0.00  0.00    +0.046 A 
ATOM     24  C   UNL     1      18.398   6.708  20.581  0.00  0.00    +0.120 A 
BRANCH  24   4
ATOM      4  O   UNL     1      19.603   6.200  20.958  0.00  0.00    -0.495 OA
ATOM     25  C   UNL     1      20.039   6.481  22.288  0.00  0.00    +0.277 C 
ENDBRANCH  24   4
ENDBRANCH  18  19
ENDBRANCH   6  18
ENDBRANCH  10   6
BRANCH   7  16
ATOM     16  C   UNL     1      10.778   8.275  22.351  0.00  0.00    +0.138 C 
BRANCH  16   5
ATOM      3  O   UNL     1      10.768  11.160  22.671  0.00  0.00    -0.276 OA
ATOM      5  N   UNL     1      11.886   9.117  22.697  0.00  0.00    -0.313 N 
ATOM     17  C   UNL     1      11.790  10.497  22.829  0.00  0.00    +0.216 C 
ATOM     26  H   UNL     1      12.784   8.668  22.853  0.00  0.00    +0.149 HD
BRANCH  17   9
ATOM      9  C   UNL     1      13.090  11.131  23.221  0.00  0.00    +0.075 C 
ATOM     11  C   UNL     1      14.255  10.477  22.476  0.00  0.00    +0.013 C 
ATOM     12  C   UNL     1      13.102  12.611  22.822  0.00  0.00    +0.013 C 
ATOM     13  C   UNL     1      14.554  11.424  21.323  0.00  0.00    +0.001 C 
ATOM     14  C   UNL     1      14.332  12.794  21.940  0.00  0.00    +0.001 C 
ENDBRANCH  17   9
ENDBRANCH  16   5
ENDBRANCH   7  16
TORSDOF 8
ENDMDL
MODEL 2
REMARK VINA RESULT:      -6.3      3.000      4.537
REMARK  Name = 75536561
REMARK  9 active torsions:
REMARK  status: ('A' for Active; 'I' for Inactive)
REMARK    1  A    between atoms: O_2  and  C_8
REMARK    2  A    between atoms: O_4  and  C_24
REMARK    3  A    between atoms: O_4  and  C_25
REMARK    4  A    between atoms: N_5  and  C_16
REMARK    5  A    between atoms: N_6  and  C_10
REMARK    6  A    between atoms: N_6  and  C_18
REMARK    7  A    between atoms: C_7  and  C_16
REMARK    8  A    between atoms: C_9  and  C_17
REMARK    9  A    between atoms: C_18  and  C_19
REMARK                            x       y       z     vdW  Elec       q    Type
REMARK                         _______ _______ _______ _____ _____    ______ ____
ROOT
ATOM      1  O   UNL     1      11.389   7.443  19.576  0.00  0.00    -0.371 OA
ATOM      7  C   UNL     1      12.210   8.460  18.978  0.00  0.00    +0.165 C 
ATOM      8  C   UNL     1      13.652   8.020  19.196  0.00  0.00    +0.164 C 
ATOM     10  C   UNL     1      13.551   7.354  20.556  0.00  0.00    +0.111 C 
ATOM     15  C   UNL     1      12.211   6.645  20.446  0.00  0.00    +0.181 C 
ENDROOT
BRANCH   8   2
ATOM      2  O   UNL     1      14.545   9.117  19.189  0.00  0.00    -0.388 OA
ATOM     28  H   UNL     1      14.072   9.893  18.843  0.00  0.00    +0.210 HD
ENDBRANCH   8   2
BRANCH  10   6
ATOM      6  N   UNL     1      14.650   6.447  20.844  0.00  0.00    -0.305 NA
ATOM     27  H   UNL     1      14.279   5.506  20.980  0.00  0.00    +0.123 HD
BRANCH   6  18
ATOM     18  C   UNL     1      15.611   6.421  19.748  0.00  0.00    +0.116 C 
BRANCH  18  19
ATOM     19  C   UNL     1      17.011   6.706  20.222  0.00  0.00    -0.033 A 
ATOM     20  C   UNL     1      18.057   5.856  19.863  0.00  0.00    +0.008 A 
ATOM     21  C   UNL     1      17.263   7.821  21.021  0.00  0.00    +0.008 A 
ATOM     22  C   UNL     1      19.354   6.120  20.303  0.00  0.00    +0.046 A 
ATOM     23  C   UNL     1      18.559   8.086  21.461  0.00  0.00    +0.046 A 
ATOM     24  C   UNL     1      19.605   7.236  21.102  0.00  0.00    +0.120 A 
BRANCH  24   4
ATOM      4  O   UNL     1      20.870   7.494  21.531  0.00  0.00    -0.495 OA
ATOM     25  C   UNL     1      21.889   7.582  20.535  0.00  0.00    +0.277 C 
ENDBRANCH  24   4
ENDBRANCH  18  19
ENDBRANCH   6  18
ENDBRANCH  10   6
BRANCH   7  16
ATOM     16  C   UNL     1      11.846   8.619  17.513  0.00  0.00    +0.138 C 
BRANCH  16   5
ATOM      3  O   UNL     1      13.607   8.625  15.206  0.00  0.00    -0.276 OA
ATOM      5  N   UNL     1      12.511   9.747  16.929  0.00  0.00    -0.313 N 
ATOM     17  C   UNL     1      13.342   9.657  15.818  0.00  0.00    +0.216 C 
ATOM     26  H   UNL     1      12.358  10.655  17.357  0.00  0.00    +0.149 HD
BRANCH  17   9
ATOM      9  C   UNL     1      13.889  10.988  15.398  0.00  0.00    +0.075 C 
ATOM     11  C   UNL     1      14.133  11.879  16.617  0.00  0.00    +0.013 C 
ATOM     12  C   UNL     1      15.249  10.812  14.715  0.00  0.00    +0.013 C 
ATOM     13  C   UNL     1      15.625  11.755  16.890  0.00  0.00    +0.001 C 
ATOM     14  C   UNL     1      16.223  11.687  15.497  0.00  0.00    +0.001 C 
ENDBRANCH  17   9
ENDBRANCH  16   5
ENDBRANCH   7  16
TORSDOF 8
ENDMDL
MODEL 3
REMARK VINA RESULT:      -6.0     25.934     28.490
REMARK  Name = 75536561
REMARK  9 active torsions:
REMARK  status: ('A' for Active; 'I' for Inactive)
REMARK    1  A    between atoms: O_2  and  C_8
REMARK    2  A    between atoms: O_4  and  C_24
REMARK    3  A    between atoms: O_4  and  C_25
REMARK    4  A    between atoms: N_5  and  C_16
REMARK    5  A    between atoms: N_6  and  C_10
REMARK    6  A    between atoms: N_6  and  C_18
REMARK    7  A    between atoms: C_7  and  C_16
REMARK    8  A    between atoms: C_9  and  C_17
REMARK    9  A    between atoms: C_18  and  C_19
REMARK                            x       y       z     vdW  Elec       q    Type
REMARK                         _______ _______ _______ _____ _____    ______ ____
ROOT
ATOM      1  O   UNL     1      -1.598 -10.667  13.138  0.00  0.00    -0.371 OA
ATOM      7  C   UNL     1      -1.977 -12.052  13.082  0.00  0.00    +0.165 C 
ATOM      8  C   UNL     1      -2.690 -12.347  14.395  0.00  0.00    +0.164 C 
ATOM     10  C   UNL     1      -1.915 -11.462  15.354  0.00  0.00    +0.111 C 
ATOM     15  C   UNL     1      -1.688 -10.223  14.504  0.00  0.00    +0.181 C 
ENDROOT
BRANCH   8   2
ATOM      2  O   UNL     1      -2.620 -13.718  14.737  0.00  0.00    -0.388 OA
ATOM     28  H   UNL     1      -3.522 -14.033  14.918  0.00  0.00    +0.210 HD
ENDBRANCH   8   2
BRANCH  10   6
ATOM      6  N   UNL     1      -2.625 -11.179  16.591  0.00  0.00    -0.305 NA
ATOM     27  H   UNL     1      -1.991 -10.713  17.240  0.00  0.00    +0.123 HD
BRANCH   6  18
ATOM     18  C   UNL     1      -3.774 -10.314  16.350  0.00  0.00    +0.116 C 
BRANCH  18  19
ATOM     19  C   UNL     1      -4.890 -10.581  17.323  0.00  0.00    -0.033 A 
ATOM     20  C   UNL     1      -4.634 -11.272  18.508  0.00  0.00    +0.008 A 
ATOM     21  C   UNL     1      -6.182 -10.138  17.042  0.00  0.00    +0.008 A 
ATOM     22  C   UNL     1      -5.668 -11.520  19.409  0.00  0.00    +0.046 A 
ATOM     23  C   UNL     1      -7.217 -10.385  17.943  0.00  0.00    +0.046 A 
ATOM     24  C   UNL     1      -6.960 -11.076  19.127  0.00  0.00    +0.120 A 
BRANCH  24   4
ATOM      4  O   UNL     1      -7.970 -11.317  20.007  0.00  0.00    -0.495 OA
ATOM     25  C   UNL     1      -9.289 -10.957  19.597  0.00  0.00    +0.277 C 
ENDBRANCH  24   4
ENDBRANCH  18  19
ENDBRANCH   6  18
ENDBRANCH  10   6
BRANCH   7  16
ATOM     16  C   UNL     1      -2.843 -12.299  11.860  0.00  0.00    +0.138 C 
BRANCH  16   5
ATOM      3  O   UNL     1      -5.216 -10.739  12.460  0.00  0.00    -0.276 OA
ATOM      5  N   UNL     1      -3.252 -11.066  11.252  0.00  0.00    -0.313 N 
ATOM     17  C   UNL     1      -4.411 -10.384  11.603  0.00  0.00    +0.216 C 
ATOM     26  H   UNL     1      -2.652 -10.679  10.528  0.00  0.00    +0.149 HD
BRANCH  17   9
ATOM      9  C   UNL     1      -4.588  -9.112  10.831  0.00  0.00    +0.075 C 
ATOM     11  C   UNL     1      -3.814  -9.169   9.513  0.00  0.00    +0.013 C 
ATOM     12  C   UNL     1      -6.061  -8.917  10.457  0.00  0.00    +0.013 C 
ATOM     13  C   UNL     1      -4.862  -9.526   8.468  0.00  0.00    +0.001 C 
ATOM     14  C   UNL     1      -6.088  -8.765   8.940  0.00  0.00    +0.001 C 
ENDBRANCH  17   9
ENDBRANCH  16   5
ENDBRANCH   7  16
TORSDOF 8
ENDMDL
MODEL 4
REMARK VINA RESULT:      -6.0      3.940      9.802
REMARK  Name = 75536561
REMARK  9 active torsions:
REMARK  status: ('A' for Active; 'I' for Inactive)
REMARK    1  A    between atoms: O_2  and  C_8
REMARK    2  A    between atoms: O_4  and  C_24
REMARK    3  A    between atoms: O_4  and  C_25
REMARK    4  A    between atoms: N_5  and  C_16
REMARK    5  A    between atoms: N_6  and  C_10
REMARK    6  A    between atoms: N_6  and  C_18
REMARK    7  A    between atoms: C_7  and  C_16
REMARK    8  A    between atoms: C_9  and  C_17
REMARK    9  A    between atoms: C_18  and  C_19
REMARK                            x       y       z     vdW  Elec       q    Type
REMARK                         _______ _______ _______ _____ _____    ______ ____
ROOT
ATOM      1  O   UNL     1      20.308   7.283  22.096  0.00  0.00    -0.371 OA
ATOM      7  C   UNL     1      20.493   6.150  21.232  0.00  0.00    +0.165 C 
ATOM      8  C   UNL     1      19.322   6.166  20.259  0.00  0.00    +0.164 C 
ATOM     10  C   UNL     1      18.211   6.695  21.147  0.00  0.00    +0.111 C 
ATOM     15  C   UNL     1      18.951   7.743  21.963  0.00  0.00    +0.181 C 
ENDROOT
BRANCH   8   2
ATOM      2  O   UNL     1      19.045   4.878  19.745  0.00  0.00    -0.388 OA
ATOM     28  H   UNL     1      19.786   4.611  19.175  0.00  0.00    +0.210 HD
ENDBRANCH   8   2
BRANCH  10   6
ATOM      6  N   UNL     1      17.085   7.244  20.409  0.00  0.00    -0.305 NA
ATOM     27  H   UNL     1      17.209   7.045  19.416  0.00  0.00    +0.123 HD
BRANCH   6  18
ATOM     18  C   UNL     1      15.828   6.656  20.855  0.00  0.00    +0.116 C 
BRANCH  18  19
ATOM     19  C   UNL     1      14.709   6.921  19.884  0.00  0.00    -0.033 A 
ATOM     20  C   UNL     1      14.998   7.310  18.576  0.00  0.00    +0.008 A 
ATOM     21  C   UNL     1      13.383   6.776  20.291  0.00  0.00    +0.008 A 
ATOM     22  C   UNL     1      13.961   7.555  17.675  0.00  0.00    +0.046 A 
ATOM     23  C   UNL     1      12.346   7.021  19.391  0.00  0.00    +0.046 A 
ATOM     24  C   UNL     1      12.635   7.410  18.083  0.00  0.00    +0.120 A 
BRANCH  24   4
ATOM      4  O   UNL     1      11.623   7.649  17.205  0.00  0.00    -0.495 OA
ATOM     25  C   UNL     1      11.527   8.968  16.669  0.00  0.00    +0.277 C 
ENDBRANCH  24   4
ENDBRANCH  18  19
ENDBRANCH   6  18
ENDBRANCH  10   6
BRANCH   7  16
ATOM     16  C   UNL     1      21.845   6.241  20.548  0.00  0.00    +0.138 C 
BRANCH  16   5
ATOM      3  O   UNL     1      23.476   4.582  22.284  0.00  0.00    -0.276 OA
ATOM      5  N   UNL     1      22.375   4.939  20.263  0.00  0.00    -0.313 N 
ATOM     17  C   UNL     1      23.151   4.213  21.158  0.00  0.00    +0.216 C 
ATOM     26  H   UNL     1      22.163   4.536  19.355  0.00  0.00    +0.149 HD
BRANCH  17   9
ATOM      9  C   UNL     1      23.553   2.874  20.619  0.00  0.00    +0.075 C 
ATOM     11  C   UNL     1      24.857   2.981  19.826  0.00  0.00    +0.013 C 
ATOM     12  C   UNL     1      23.829   1.898  21.769  0.00  0.00    +0.013 C 
ATOM     13  C   UNL     1      25.935   2.514  20.794  0.00  0.00    +0.001 C 
ATOM     14  C   UNL     1      25.250   1.390  21.551  0.00  0.00    +0.001 C 
ENDBRANCH  17   9
ENDBRANCH  16   5
ENDBRANCH   7  16
TORSDOF 8
ENDMDL
MODEL 5
REMARK VINA RESULT:      -5.9     26.496     29.973
REMARK  Name = 75536561
REMARK  9 active torsions:
REMARK  status: ('A' for Active; 'I' for Inactive)
REMARK    1  A    between atoms: O_2  and  C_8
REMARK    2  A    between atoms: O_4  and  C_24
REMARK    3  A    between atoms: O_4  and  C_25
REMARK    4  A    between atoms: N_5  and  C_16
REMARK    5  A    between atoms: N_6  and  C_10
REMARK    6  A    between atoms: N_6  and  C_18
REMARK    7  A    between atoms: C_7  and  C_16
REMARK    8  A    between atoms: C_9  and  C_17
REMARK    9  A    between atoms: C_18  and  C_19
REMARK                            x       y       z     vdW  Elec       q    Type
REMARK                         _______ _______ _______ _____ _____    ______ ____
ROOT
ATOM      1  O   UNL     1     -17.593   5.452  23.798  0.00  0.00    -0.371 OA
ATOM      7  C   UNL     1     -17.144   4.417  24.688  0.00  0.00    +0.165 C 
ATOM      8  C   UNL     1     -15.721   4.081  24.261  0.00  0.00    +0.164 C 
ATOM     10  C   UNL     1     -15.816   4.267  22.758  0.00  0.00    +0.111 C 
ATOM     15  C   UNL     1     -16.711   5.491  22.661  0.00  0.00    +0.181 C 
ENDROOT
BRANCH   8   2
ATOM      2  O   UNL     1     -15.358   2.764  24.628  0.00  0.00    -0.388 OA
ATOM     28  H   UNL     1     -14.857   2.370  23.894  0.00  0.00    +0.210 HD
ENDBRANCH   8   2
BRANCH  10   6
ATOM      6  N   UNL     1     -14.527   4.454  22.112  0.00  0.00    -0.305 NA
ATOM     27  H   UNL     1     -14.654   4.418  21.100  0.00  0.00    +0.123 HD
BRANCH   6  18
ATOM     18  C   UNL     1     -13.943   5.742  22.468  0.00  0.00    +0.116 C 
BRANCH  18  19
ATOM     19  C   UNL     1     -13.416   6.471  21.262  0.00  0.00    -0.033 A 
ATOM     20  C   UNL     1     -14.297   7.123  20.399  0.00  0.00    +0.008 A 
ATOM     21  C   UNL     1     -12.045   6.496  21.006  0.00  0.00    +0.008 A 
ATOM     22  C   UNL     1     -13.808   7.799  19.281  0.00  0.00    +0.046 A 
ATOM     23  C   UNL     1     -11.555   7.172  19.889  0.00  0.00    +0.046 A 
ATOM     24  C   UNL     1     -12.437   7.824  19.027  0.00  0.00    +0.120 A 
BRANCH  24   4
ATOM      4  O   UNL     1     -11.959   8.483  17.936  0.00  0.00    -0.495 OA
ATOM     25  C   UNL     1     -10.558   8.755  17.904  0.00  0.00    +0.277 C 
ENDBRANCH  24   4
ENDBRANCH  18  19
ENDBRANCH   6  18
ENDBRANCH  10   6
BRANCH   7  16
ATOM     16  C   UNL     1     -17.244   4.896  26.125  0.00  0.00    +0.138 C 
BRANCH  16   5
ATOM      3  O   UNL     1     -17.742   2.864  28.137  0.00  0.00    -0.276 OA
ATOM      5  N   UNL     1     -16.279   4.244  26.961  0.00  0.00    -0.313 N 
ATOM     17  C   UNL     1     -16.608   3.277  27.904  0.00  0.00    +0.216 C 
ATOM     26  H   UNL     1     -15.305   4.510  26.848  0.00  0.00    +0.149 HD
BRANCH  17   9
ATOM      9  C   UNL     1     -15.408   2.740  28.623  0.00  0.00    +0.075 C 
ATOM     11  C   UNL     1     -14.997   3.678  29.760  0.00  0.00    +0.013 C 
ATOM     12  C   UNL     1     -15.738   1.393  29.276  0.00  0.00    +0.013 C 
ATOM     13  C   UNL     1     -15.585   3.044  31.012  0.00  0.00    +0.001 C 
ATOM     14  C   UNL     1     -15.411   1.557  30.756  0.00  0.00    +0.001 C 
ENDBRANCH  17   9
ENDBRANCH  16   5
ENDBRANCH   7  16
TORSDOF 8
ENDMDL
MODEL 6
REMARK VINA RESULT:      -5.8     26.134     28.603
REMARK  Name = 75536561
REMARK  9 active torsions:
REMARK  status: ('A' for Active; 'I' for Inactive)
REMARK    1  A    between atoms: O_2  and  C_8
REMARK    2  A    between atoms: O_4  and  C_24
REMARK    3  A    between atoms: O_4  and  C_25
REMARK    4  A    between atoms: N_5  and  C_16
REMARK    5  A    between atoms: N_6  and  C_10
REMARK    6  A    between atoms: N_6  and  C_18
REMARK    7  A    between atoms: C_7  and  C_16
REMARK    8  A    between atoms: C_9  and  C_17
REMARK    9  A    between atoms: C_18  and  C_19
REMARK                            x       y       z     vdW  Elec       q    Type
REMARK                         _______ _______ _______ _____ _____    ______ ____
ROOT
ATOM      1  O   UNL     1      -7.516 -13.064  18.204  0.00  0.00    -0.371 OA
ATOM      7  C   UNL     1      -7.504 -12.340  19.445  0.00  0.00    +0.165 C 
ATOM      8  C   UNL     1      -6.194 -11.563  19.468  0.00  0.00    +0.164 C 
ATOM     10  C   UNL     1      -5.268 -12.533  18.757  0.00  0.00    +0.111 C 
ATOM     15  C   UNL     1      -6.180 -13.080  17.671  0.00  0.00    +0.181 C 
ENDROOT
BRANCH   8   2
ATOM      2  O   UNL     1      -5.776 -11.273  20.787  0.00  0.00    -0.388 OA
ATOM     28  H   UNL     1      -5.648 -12.114  21.258  0.00  0.00    +0.210 HD
ENDBRANCH   8   2
BRANCH  10   6
ATOM      6  N   UNL     1      -4.067 -11.909  18.226  0.00  0.00    -0.305 NA
ATOM     27  H   UNL     1      -3.596 -12.567  17.605  0.00  0.00    +0.123 HD
BRANCH   6  18
ATOM     18  C   UNL     1      -4.389 -10.700  17.477  0.00  0.00    +0.116 C 
BRANCH  18  19
ATOM     19  C   UNL     1      -3.682 -10.659  16.149  0.00  0.00    -0.033 A 
ATOM     20  C   UNL     1      -2.292 -10.548  16.101  0.00  0.00    +0.008 A 
ATOM     21  C   UNL     1      -4.416 -10.733  14.965  0.00  0.00    +0.008 A 
ATOM     22  C   UNL     1      -1.637 -10.509  14.871  0.00  0.00    +0.046 A 
ATOM     23  C   UNL     1      -3.761 -10.695  13.734  0.00  0.00    +0.046 A 
ATOM     24  C   UNL     1      -2.372 -10.584  13.687  0.00  0.00    +0.120 A 
BRANCH  24   4
ATOM      4  O   UNL     1      -1.732 -10.547  12.486  0.00  0.00    -0.495 OA
ATOM     25  C   UNL     1      -2.503 -10.149  11.353  0.00  0.00    +0.277 C 
ENDBRANCH  24   4
ENDBRANCH  18  19
ENDBRANCH   6  18
ENDBRANCH  10   6
BRANCH   7  16
ATOM     16  C   UNL     1      -8.732 -11.451  19.533  0.00  0.00    +0.138 C 
BRANCH  16   5
ATOM      3  O   UNL     1     -10.896  -9.850  18.449  0.00  0.00    -0.276 OA
ATOM      5  N   UNL     1      -8.625 -10.324  18.654  0.00  0.00    -0.313 N 
ATOM     17  C   UNL     1      -9.721  -9.612  18.181  0.00  0.00    +0.216 C 
ATOM     26  H   UNL     1      -7.692 -10.038  18.370  0.00  0.00    +0.149 HD
BRANCH  17   9
ATOM      9  C   UNL     1      -9.328  -8.466  17.299  0.00  0.00    +0.075 C 
ATOM     11  C   UNL     1      -8.864  -8.973  15.932  0.00  0.00    +0.013 C 
ATOM     12  C   UNL     1     -10.536  -7.561  17.034  0.00  0.00    +0.013 C 
ATOM     13  C   UNL     1     -10.072  -8.789  15.024  0.00  0.00    +0.001 C 
ATOM     14  C   UNL     1     -10.675  -7.485  15.518  0.00  0.00    +0.001 C 
ENDBRANCH  17   9
ENDBRANCH  16   5
ENDBRANCH   7  16
TORSDOF 8
ENDMDL
MODEL 7
REMARK VINA RESULT:      -5.8     26.927     29.686
REMARK  Name = 75536561
REMARK  9 active torsions:
REMARK  status: ('A' for Active; 'I' for Inactive)
REMARK    1  A    between atoms: O_2  and  C_8
REMARK    2  A    between atoms: O_4  and  C_24
REMARK    3  A    between atoms: O_4  and  C_25
REMARK    4  A    between atoms: N_5  and  C_16
REMARK    5  A    between atoms: N_6  and  C_10
REMARK    6  A    between atoms: N_6  and  C_18
REMARK    7  A    between atoms: C_7  and  C_16
REMARK    8  A    between atoms: C_9  and  C_17
REMARK    9  A    between atoms: C_18  and  C_19
REMARK                            x       y       z     vdW  Elec       q    Type
REMARK                         _______ _______ _______ _____ _____    ______ ____
ROOT
ATOM      1  O   UNL     1     -12.096  -7.671  14.111  0.00  0.00    -0.371 OA
ATOM      7  C   UNL     1     -12.166  -6.605  15.071  0.00  0.00    +0.165 C 
ATOM      8  C   UNL     1     -10.802  -6.554  15.746  0.00  0.00    +0.164 C 
ATOM     10  C   UNL     1     -10.433  -8.026  15.770  0.00  0.00    +0.111 C 
ATOM     15  C   UNL     1     -10.953  -8.489  14.419  0.00  0.00    +0.181 C 
ENDROOT
BRANCH   8   2
ATOM      2  O   UNL     1     -10.874  -5.987  17.039  0.00  0.00    -0.388 OA
ATOM     28  H   UNL     1     -10.398  -6.570  17.655  0.00  0.00    +0.210 HD
ENDBRANCH   8   2
BRANCH  10   6
ATOM      6  N   UNL     1      -9.010  -8.268  15.943  0.00  0.00    -0.305 NA
ATOM     27  H   UNL     1      -8.515  -7.376  15.916  0.00  0.00    +0.123 HD
BRANCH   6  18
ATOM     18  C   UNL     1      -8.740  -8.920  17.219  0.00  0.00    +0.116 C 
BRANCH  18  19
ATOM     19  C   UNL     1      -7.362  -9.523  17.259  0.00  0.00    -0.033 A 
ATOM     20  C   UNL     1      -6.903 -10.140  18.423  0.00  0.00    +0.008 A 
ATOM     21  C   UNL     1      -6.542  -9.466  16.132  0.00  0.00    +0.008 A 
ATOM     22  C   UNL     1      -5.625 -10.699  18.460  0.00  0.00    +0.046 A 
ATOM     23  C   UNL     1      -5.265 -10.025  16.168  0.00  0.00    +0.046 A 
ATOM     24  C   UNL     1      -4.807 -10.642  17.332  0.00  0.00    +0.120 A 
BRANCH  24   4
ATOM      4  O   UNL     1      -3.560 -11.187  17.368  0.00  0.00    -0.495 OA
ATOM     25  C   UNL     1      -2.750 -11.031  16.203  0.00  0.00    +0.277 C 
ENDBRANCH  24   4
ENDBRANCH  18  19
ENDBRANCH   6  18
ENDBRANCH  10   6
BRANCH   7  16
ATOM     16  C   UNL     1     -12.541  -5.309  14.374  0.00  0.00    +0.138 C 
BRANCH  16   5
ATOM      3  O   UNL     1     -12.300  -3.126  12.476  0.00  0.00    -0.276 OA
ATOM      5  N   UNL     1     -12.350  -5.405  12.956  0.00  0.00    -0.313 N 
ATOM     17  C   UNL     1     -12.245  -4.300  12.119  0.00  0.00    +0.216 C 
ATOM     26  H   UNL     1     -12.287  -6.336  12.554  0.00  0.00    +0.149 HD
BRANCH  17   9
ATOM      9  C   UNL     1     -12.024  -4.681  10.686  0.00  0.00    +0.075 C 
ATOM     11  C   UNL     1     -13.360  -4.911   9.978  0.00  0.00    +0.013 C 
ATOM     12  C   UNL     1     -11.329  -3.541   9.934  0.00  0.00    +0.013 C 
ATOM     13  C   UNL     1     -13.620  -3.617   9.219  0.00  0.00    +0.001 C 
ATOM     14  C   UNL     1     -12.234  -3.211   8.752  0.00  0.00    +0.001 C 
ENDBRANCH  17   9
ENDBRANCH  16   5
ENDBRANCH   7  16
TORSDOF 8
ENDMDL
MODEL 8
REMARK VINA RESULT:      -5.8     27.676     30.027
REMARK  Name = 75536561
REMARK  9 active torsions:
REMARK  status: ('A' for Active; 'I' for Inactive)
REMARK    1  A    between atoms: O_2  and  C_8
REMARK    2  A    between atoms: O_4  and  C_24
REMARK    3  A    between atoms: O_4  and  C_25
REMARK    4  A    between atoms: N_5  and  C_16
REMARK    5  A    between atoms: N_6  and  C_10
REMARK    6  A    between atoms: N_6  and  C_18
REMARK    7  A    between atoms: C_7  and  C_16
REMARK    8  A    between atoms: C_9  and  C_17
REMARK    9  A    between atoms: C_18  and  C_19
REMARK                            x       y       z     vdW  Elec       q    Type
REMARK                         _______ _______ _______ _____ _____    ______ ____
ROOT
ATOM      1  O   UNL     1     -12.538  -8.739  15.960  0.00  0.00    -0.371 OA
ATOM      7  C   UNL     1     -12.207  -7.421  15.493  0.00  0.00    +0.165 C 
ATOM      8  C   UNL     1     -10.753  -7.188  15.883  0.00  0.00    +0.164 C 
ATOM     10  C   UNL     1     -10.682  -7.932  17.204  0.00  0.00    +0.111 C 
ATOM     15  C   UNL     1     -11.539  -9.152  16.909  0.00  0.00    +0.181 C 
ENDROOT
BRANCH   8   2
ATOM      2  O   UNL     1     -10.456  -5.811  16.013  0.00  0.00    -0.388 OA
ATOM     28  H   UNL     1     -10.217  -5.637  16.939  0.00  0.00    +0.210 HD
ENDBRANCH   8   2
BRANCH  10   6
ATOM      6  N   UNL     1      -9.328  -8.273  17.609  0.00  0.00    -0.305 NA
ATOM     27  H   UNL     1      -9.369  -8.968  18.355  0.00  0.00    +0.123 HD
BRANCH   6  18
ATOM     18  C   UNL     1      -8.569  -8.825  16.492  0.00  0.00    +0.116 C 
BRANCH  18  19
ATOM     19  C   UNL     1      -7.307  -9.502  16.953  0.00  0.00    -0.033 A 
ATOM     20  C   UNL     1      -7.220 -10.011  18.249  0.00  0.00    +0.008 A 
ATOM     21  C   UNL     1      -6.223  -9.623  16.083  0.00  0.00    +0.008 A 
ATOM     22  C   UNL     1      -6.050 -10.639  18.675  0.00  0.00    +0.046 A 
ATOM     23  C   UNL     1      -5.053 -10.251  16.509  0.00  0.00    +0.046 A 
ATOM     24  C   UNL     1      -4.967 -10.759  17.805  0.00  0.00    +0.120 A 
BRANCH  24   4
ATOM      4  O   UNL     1      -3.825 -11.372  18.221  0.00  0.00    -0.495 OA
ATOM     25  C   UNL     1      -3.919 -12.203  19.378  0.00  0.00    +0.277 C 
ENDBRANCH  24   4
ENDBRANCH  18  19
ENDBRANCH   6  18
ENDBRANCH  10   6
BRANCH   7  16
ATOM     16  C   UNL     1     -12.451  -7.329  13.998  0.00  0.00    +0.138 C 
BRANCH  16   5
ATOM      3  O   UNL     1     -14.872  -5.729  13.949  0.00  0.00    -0.276 OA
ATOM      5  N   UNL     1     -12.586  -5.966  13.574  0.00  0.00    -0.313 N 
ATOM     17  C   UNL     1     -13.791  -5.274  13.583  0.00  0.00    +0.216 C 
ATOM     26  H   UNL     1     -11.747  -5.490  13.253  0.00  0.00    +0.149 HD
BRANCH  17   9
ATOM      9  C   UNL     1     -13.648  -3.858  13.114  0.00  0.00    +0.075 C 
ATOM     11  C   UNL     1     -12.417  -3.709  12.218  0.00  0.00    +0.013 C 
ATOM     12  C   UNL     1     -14.854  -3.457  12.257  0.00  0.00    +0.013 C 
ATOM     13  C   UNL     1     -12.968  -3.745  10.800  0.00  0.00    +0.001 C 
ATOM     14  C   UNL     1     -14.280  -2.991  10.924  0.00  0.00    +0.001 C 
ENDBRANCH  17   9
ENDBRANCH  16   5
ENDBRANCH   7  16
TORSDOF 8
ENDMDL
MODEL 9
REMARK VINA RESULT:      -5.7     25.494     28.952
REMARK  Name = 75536561
REMARK  9 active torsions:
REMARK  status: ('A' for Active; 'I' for Inactive)
REMARK    1  A    between atoms: O_2  and  C_8
REMARK    2  A    between atoms: O_4  and  C_24
REMARK    3  A    between atoms: O_4  and  C_25
REMARK    4  A    between atoms: N_5  and  C_16
REMARK    5  A    between atoms: N_6  and  C_10
REMARK    6  A    between atoms: N_6  and  C_18
REMARK    7  A    between atoms: C_7  and  C_16
REMARK    8  A    between atoms: C_9  and  C_17
REMARK    9  A    between atoms: C_18  and  C_19
REMARK                            x       y       z     vdW  Elec       q    Type
REMARK                         _______ _______ _______ _____ _____    ______ ____
ROOT
ATOM      1  O   UNL     1     -16.516   6.528  20.227  0.00  0.00    -0.371 OA
ATOM      7  C   UNL     1     -16.123   5.291  20.845  0.00  0.00    +0.165 C 
ATOM      8  C   UNL     1     -14.845   5.592  21.617  0.00  0.00    +0.164 C 
ATOM     10  C   UNL     1     -14.192   6.619  20.711  0.00  0.00    +0.111 C 
ATOM     15  C   UNL     1     -15.395   7.429  20.256  0.00  0.00    +0.181 C 
ENDROOT
BRANCH   8   2
ATOM      2  O   UNL     1     -14.051   4.435  21.795  0.00  0.00    -0.388 OA
ATOM     28  H   UNL     1     -13.262   4.682  22.306  0.00  0.00    +0.210 HD
ENDBRANCH   8   2
BRANCH  10   6
ATOM      6  N   UNL     1     -13.183   7.427  21.377  0.00  0.00    -0.305 NA
ATOM     27  H   UNL     1     -13.282   7.317  22.386  0.00  0.00    +0.123 HD
BRANCH   6  18
ATOM     18  C   UNL     1     -11.839   7.017  20.986  0.00  0.00    +0.116 C 
BRANCH  18  19
ATOM     19  C   UNL     1     -11.323   7.822  19.824  0.00  0.00    -0.033 A 
ATOM     20  C   UNL     1     -11.351   7.287  18.537  0.00  0.00    +0.008 A 
ATOM     21  C   UNL     1     -10.818   9.105  20.035  0.00  0.00    +0.008 A 
ATOM     22  C   UNL     1     -10.872   8.033  17.460  0.00  0.00    +0.046 A 
ATOM     23  C   UNL     1     -10.340   9.852  18.959  0.00  0.00    +0.046 A 
ATOM     24  C   UNL     1     -10.368   9.317  17.671  0.00  0.00    +0.120 A 
BRANCH  24   4
ATOM      4  O   UNL     1      -9.901  10.045  16.621  0.00  0.00    -0.495 OA
ATOM     25  C   UNL     1      -9.748  11.450  16.822  0.00  0.00    +0.277 C 
ENDBRANCH  24   4
ENDBRANCH  18  19
ENDBRANCH   6  18
ENDBRANCH  10   6
BRANCH   7  16
ATOM     16  C   UNL     1     -17.249   4.775  21.723  0.00  0.00    +0.138 C 
BRANCH  16   5
ATOM      3  O   UNL     1     -16.911   2.046  22.652  0.00  0.00    -0.276 OA
ATOM      5  N   UNL     1     -16.759   4.344  23.000  0.00  0.00    -0.313 N 
ATOM     17  C   UNL     1     -16.630   3.008  23.362  0.00  0.00    +0.216 C 
ATOM     26  H   UNL     1     -16.493   5.063  23.667  0.00  0.00    +0.149 HD
BRANCH  17   9
ATOM      9  C   UNL     1     -16.071   2.836  24.742  0.00  0.00    +0.075 C 
ATOM     11  C   UNL     1     -16.150   4.149  25.523  0.00  0.00    +0.013 C 
ATOM     12  C   UNL     1     -16.903   1.817  25.529  0.00  0.00    +0.013 C 
ATOM     13  C   UNL     1     -17.389   4.003  26.395  0.00  0.00    +0.001 C 
ATOM     14  C   UNL     1     -17.355   2.539  26.794  0.00  0.00    +0.001 C 
ENDBRANCH  17   9
ENDBRANCH  16   5
ENDBRANCH   7  16
TORSDOF 8
ENDMDL
MODEL 10
REMARK VINA RESULT:      -5.7      1.804      2.729
REMARK  Name = 75536561
REMARK  9 active torsions:
REMARK  status: ('A' for Active; 'I' for Inactive)
REMARK    1  A    between atoms: O_2  and  C_8
REMARK    2  A    between atoms: O_4  and  C_24
REMARK    3  A    between atoms: O_4  and  C_25
REMARK    4  A    between atoms: N_5  and  C_16
REMARK    5  A    between atoms: N_6  and  C_10
REMARK    6  A    between atoms: N_6  and  C_18
REMARK    7  A    between atoms: C_7  and  C_16
REMARK    8  A    between atoms: C_9  and  C_17
REMARK    9  A    between atoms: C_18  and  C_19
REMARK                            x       y       z     vdW  Elec       q    Type
REMARK                         _______ _______ _______ _____ _____    ______ ____
ROOT
ATOM      1  O   UNL     1      13.274   7.839  18.148  0.00  0.00    -0.371 OA
ATOM      7  C   UNL     1      12.411   7.395  19.208  0.00  0.00    +0.165 C 
ATOM      8  C   UNL     1      13.317   7.109  20.398  0.00  0.00    +0.164 C 
ATOM     10  C   UNL     1      14.556   6.578  19.701  0.00  0.00    +0.111 C 
ATOM     15  C   UNL     1      14.628   7.485  18.483  0.00  0.00    +0.181 C 
ENDROOT
BRANCH   8   2
ATOM      2  O   UNL     1      12.743   6.168  21.284  0.00  0.00    -0.388 OA
ATOM     28  H   UNL     1      12.169   5.575  20.770  0.00  0.00    +0.210 HD
ENDBRANCH   8   2
BRANCH  10   6
ATOM      6  N   UNL     1      15.756   6.634  20.520  0.00  0.00    -0.305 NA
ATOM     27  H   UNL     1      15.708   5.904  21.231  0.00  0.00    +0.123 HD
BRANCH   6  18
ATOM     18  C   UNL     1      16.953   6.429  19.713  0.00  0.00    +0.116 C 
BRANCH  18  19
ATOM     19  C   UNL     1      18.210   6.591  20.525  0.00  0.00    -0.033 A 
ATOM     20  C   UNL     1      18.330   7.650  21.424  0.00  0.00    +0.008 A 
ATOM     21  C   UNL     1      19.257   5.680  20.379  0.00  0.00    +0.008 A 
ATOM     22  C   UNL     1      19.495   7.800  22.176  0.00  0.00    +0.046 A 
ATOM     23  C   UNL     1      20.422   5.829  21.130  0.00  0.00    +0.046 A 
ATOM     24  C   UNL     1      20.540   6.888  22.030  0.00  0.00    +0.120 A 
BRANCH  24   4
ATOM      4  O   UNL     1      21.678   7.034  22.763  0.00  0.00    -0.495 OA
ATOM     25  C   UNL     1      21.807   6.220  23.929  0.00  0.00    +0.277 C 
ENDBRANCH  24   4
ENDBRANCH  18  19
ENDBRANCH   6  18
ENDBRANCH  10   6
BRANCH   7  16
ATOM     16  C   UNL     1      11.361   8.453  19.493  0.00  0.00    +0.138 C 
BRANCH  16   5
ATOM      3  O   UNL     1      12.794  10.977  19.487  0.00  0.00    -0.276 OA
ATOM      5  N   UNL     1      11.720   9.253  20.628  0.00  0.00    -0.313 N 
ATOM     17  C   UNL     1      12.411  10.455  20.532  0.00  0.00    +0.216 C 
ATOM     26  H   UNL     1      11.447   8.914  21.546  0.00  0.00    +0.149 HD
BRANCH  17   9
ATOM      9  C   UNL     1      12.635  11.100  21.866  0.00  0.00    +0.075 C 
ATOM     11  C   UNL     1      12.320  12.595  21.802  0.00  0.00    +0.013 C 
ATOM     12  C   UNL     1      11.685  10.504  22.911  0.00  0.00    +0.013 C 
ATOM     13  C   UNL     1      10.918  12.717  22.381  0.00  0.00    +0.001 C 
ATOM     14  C   UNL     1      10.918  11.686  23.495  0.00  0.00    +0.001 C 
ENDBRANCH  17   9
ENDBRANCH  16   5
ENDBRANCH   7  16
TORSDOF 8
ENDMDL
