MODEL 1
REMARK VINA RESULT:      -6.7      0.000      0.000
REMARK  Name = 71694355
REMARK  6 active torsions:
REMARK  status: ('A' for Active; 'I' for Inactive)
REMARK    1  A    between atoms: O_2  and  C_22
REMARK    2  A    between atoms: O_2  and  C_29
REMARK    3  A    between atoms: N_8  and  C_31
REMARK    4  A    between atoms: C_10  and  C_13
REMARK    5  A    between atoms: C_13  and  C_19
REMARK    6  A    between atoms: C_16  and  C_22
REMARK                            x       y       z     vdW  Elec       q    Type
REMARK                         _______ _______ _______ _____ _____    ______ ____
ROOT
ATOM      3  O   UNL     1      18.595  13.760  21.755  0.00  0.00    -0.274 OA
ATOM      4  O   UNL     1      18.720   8.485  21.199  0.00  0.00    -0.488 OA
ATOM      6  N   UNL     1      20.492  12.440  21.639  0.00  0.00    -0.300 N 
ATOM      7  N   UNL     1      18.182  10.720  22.983  0.00  0.00    -0.304 NA
ATOM     10  C   UNL     1      21.695  10.944  19.447  0.00  0.00    +0.008 C 
ATOM     11  C   UNL     1      21.106  10.270  20.721  0.00  0.00    +0.032 C 
ATOM     12  C   UNL     1      21.017  12.319  19.239  0.00  0.00    +0.023 C 
ATOM     14  C   UNL     1      21.227  11.206  21.939  0.00  0.00    +0.115 C 
ATOM     15  C   UNL     1      21.039  13.184  20.501  0.00  0.00    +0.108 C 
ATOM     21  C   UNL     1      21.677   8.909  21.019  0.00  0.00    -0.023 C 
ATOM     23  C   UNL     1      19.258  12.806  22.177  0.00  0.00    +0.229 C 
ATOM     24  C   UNL     1      21.038   7.730  21.111  0.00  0.00    +0.010 C 
ATOM     25  C   UNL     1      18.718  12.024  23.360  0.00  0.00    +0.178 C 
ATOM     26  C   UNL     1      19.579   7.366  21.009  0.00  0.00    +0.256 C 
ATOM     27  C   UNL     1      17.179  10.746  21.918  0.00  0.00    +0.120 C 
ATOM     28  C   UNL     1      16.579   9.372  21.674  0.00  0.00    +0.010 A 
ATOM     30  C   UNL     1      17.370   8.259  21.302  0.00  0.00    +0.125 A 
ATOM     31  C   UNL     1      14.593   7.972  21.561  0.00  0.00    +0.030 A 
ATOM     34  C   UNL     1      15.190   9.210  21.798  0.00  0.00    +0.031 A 
ATOM     37  C   UNL     1      16.758   7.024  21.062  0.00  0.00    +0.048 A 
ATOM     38  C   UNL     1      15.376   6.883  21.193  0.00  0.00    +0.027 A 
ATOM     39  H   UNL     1      17.782  10.282  23.814  0.00  0.00    +0.123 HD
ENDROOT
BRANCH  31   8
ATOM      8  N   UNL     1      13.207   7.827  21.690  0.00  0.00    -0.327 N 
ATOM      9  N   UNL     1      10.357   7.671  21.747  0.00  0.00    -0.313 NA
ATOM     32  C   UNL     1      12.410   9.026  21.981  0.00  0.00    +0.120 C 
ATOM     33  C   UNL     1      12.514   6.768  20.949  0.00  0.00    +0.120 C 
ATOM     35  C   UNL     1      11.061   8.638  22.587  0.00  0.00    +0.100 C 
ATOM     36  C   UNL     1      11.161   6.461  21.590  0.00  0.00    +0.100 C 
ATOM     40  H   UNL     1       9.468   7.430  22.183  0.00  0.00    +0.122 HD
ENDBRANCH  31   8
BRANCH  10  13
ATOM     13  C   UNL     1      23.222  11.092  19.449  0.00  0.00    +0.100 C 
BRANCH  13  19
ATOM      1  O   UNL     1      23.835   9.280  18.032  0.00  0.00    -0.276 OA
ATOM      5  N   UNL     1      24.255  11.419  17.254  0.00  0.00    -0.296 N 
ATOM     16  C   UNL     1      24.930  11.017  16.017  0.00  0.00    +0.102 C 
ATOM     17  C   UNL     1      25.625  12.297  15.549  0.00  0.00    +0.026 C 
ATOM     18  C   UNL     1      24.230  12.872  17.394  0.00  0.00    +0.108 C 
ATOM     19  C   UNL     1      23.797  10.503  18.186  0.00  0.00    +0.216 C 
ATOM     20  C   UNL     1      24.701  13.402  16.049  0.00  0.00    +0.021 C 
BRANCH  16  22
ATOM     22  C   UNL     1      23.935  10.489  14.985  0.00  0.00    +0.181 C 
BRANCH  22   2
ATOM      2  O   UNL     1      24.061   9.081  14.919  0.00  0.00    -0.381 OA
ATOM     29  C   UNL     1      25.417   8.679  14.757  0.00  0.00    +0.194 C 
ENDBRANCH  22   2
ENDBRANCH  16  22
ENDBRANCH  13  19
ENDBRANCH  10  13
TORSDOF 5
ENDMDL
MODEL 2
REMARK VINA RESULT:      -6.6     31.977     36.399
REMARK  Name = 71694355
REMARK  6 active torsions:
REMARK  status: ('A' for Active; 'I' for Inactive)
REMARK    1  A    between atoms: O_2  and  C_22
REMARK    2  A    between atoms: O_2  and  C_29
REMARK    3  A    between atoms: N_8  and  C_31
REMARK    4  A    between atoms: C_10  and  C_13
REMARK    5  A    between atoms: C_13  and  C_19
REMARK    6  A    between atoms: C_16  and  C_22
REMARK                            x       y       z     vdW  Elec       q    Type
REMARK                         _______ _______ _______ _____ _____    ______ ____
ROOT
ATOM      3  O   UNL     1     -17.205   9.502  30.588  0.00  0.00    -0.274 OA
ATOM      4  O   UNL     1     -15.016   4.788  31.653  0.00  0.00    -0.488 OA
ATOM      6  N   UNL     1     -16.281   8.846  32.605  0.00  0.00    -0.300 N 
ATOM      7  N   UNL     1     -17.480   6.264  31.191  0.00  0.00    -0.304 NA
ATOM     10  C   UNL     1     -13.527   8.344  33.417  0.00  0.00    +0.008 C 
ATOM     11  C   UNL     1     -14.622   7.237  33.372  0.00  0.00    +0.032 C 
ATOM     12  C   UNL     1     -13.909   9.476  32.434  0.00  0.00    +0.023 C 
ATOM     14  C   UNL     1     -16.016   7.837  33.637  0.00  0.00    +0.115 C 
ATOM     15  C   UNL     1     -15.343   9.972  32.635  0.00  0.00    +0.108 C 
ATOM     21  C   UNL     1     -14.351   6.064  34.276  0.00  0.00    -0.023 C 
ATOM     23  C   UNL     1     -17.156   8.702  31.529  0.00  0.00    +0.229 C 
ATOM     24  C   UNL     1     -14.203   4.768  33.953  0.00  0.00    +0.010 C 
ATOM     25  C   UNL     1     -18.122   7.531  31.526  0.00  0.00    +0.178 C 
ATOM     26  C   UNL     1     -14.306   4.042  32.636  0.00  0.00    +0.256 C 
ATOM     27  C   UNL     1     -16.716   6.267  29.944  0.00  0.00    +0.120 C 
ATOM     28  C   UNL     1     -16.189   4.884  29.601  0.00  0.00    +0.010 A 
ATOM     30  C   UNL     1     -15.328   4.170  30.468  0.00  0.00    +0.125 A 
ATOM     31  C   UNL     1     -16.070   3.052  28.006  0.00  0.00    +0.030 A 
ATOM     34  C   UNL     1     -16.549   4.309  28.372  0.00  0.00    +0.031 A 
ATOM     37  C   UNL     1     -14.850   2.912  30.086  0.00  0.00    +0.048 A 
ATOM     38  C   UNL     1     -15.222   2.357  28.861  0.00  0.00    +0.027 A 
ATOM     39  H   UNL     1     -18.197   5.540  31.147  0.00  0.00    +0.123 HD
ENDROOT
BRANCH  31   8
ATOM      8  N   UNL     1     -16.439   2.493  26.777  0.00  0.00    -0.327 N 
ATOM      9  N   UNL     1     -16.951   1.302  24.233  0.00  0.00    -0.313 NA
ATOM     32  C   UNL     1     -15.974   3.152  25.549  0.00  0.00    +0.120 C 
ATOM     33  C   UNL     1     -16.670   1.048  26.675  0.00  0.00    +0.120 C 
ATOM     35  C   UNL     1     -16.853   2.754  24.363  0.00  0.00    +0.100 C 
ATOM     36  C   UNL     1     -17.523   0.725  25.449  0.00  0.00    +0.100 C 
ATOM     40  H   UNL     1     -17.549   1.074  23.440  0.00  0.00    +0.122 HD
ENDBRANCH  31   8
BRANCH  10  13
ATOM     13  C   UNL     1     -13.251   8.914  34.814  0.00  0.00    +0.100 C 
BRANCH  13  19
ATOM      1  O   UNL     1     -11.383  10.208  34.104  0.00  0.00    -0.276 OA
ATOM      5  N   UNL     1     -11.071   8.814  35.926  0.00  0.00    -0.296 N 
ATOM     16  C   UNL     1      -9.641   9.080  36.095  0.00  0.00    +0.102 C 
ATOM     17  C   UNL     1      -9.168   7.953  37.015  0.00  0.00    +0.026 C 
ATOM     18  C   UNL     1     -11.545   7.830  36.894  0.00  0.00    +0.108 C 
ATOM     19  C   UNL     1     -11.819   9.378  34.904  0.00  0.00    +0.216 C 
ATOM     20  C   UNL     1     -10.394   7.660  37.873  0.00  0.00    +0.021 C 
BRANCH  16  22
ATOM     22  C   UNL     1      -9.398  10.461  36.703  0.00  0.00    +0.181 C 
BRANCH  22   2
ATOM      2  O   UNL     1      -8.765  11.273  35.732  0.00  0.00    -0.381 OA
ATOM     29  C   UNL     1      -7.717  10.579  35.064  0.00  0.00    +0.194 C 
ENDBRANCH  22   2
ENDBRANCH  16  22
ENDBRANCH  13  19
ENDBRANCH  10  13
TORSDOF 5
ENDMDL
MODEL 3
REMARK VINA RESULT:      -6.6      1.954      2.554
REMARK  Name = 71694355
REMARK  6 active torsions:
REMARK  status: ('A' for Active; 'I' for Inactive)
REMARK    1  A    between atoms: O_2  and  C_22
REMARK    2  A    between atoms: O_2  and  C_29
REMARK    3  A    between atoms: N_8  and  C_31
REMARK    4  A    between atoms: C_10  and  C_13
REMARK    5  A    between atoms: C_13  and  C_19
REMARK    6  A    between atoms: C_16  and  C_22
REMARK                            x       y       z     vdW  Elec       q    Type
REMARK                         _______ _______ _______ _____ _____    ______ ____
ROOT
ATOM      3  O   UNL     1      19.575  12.913  21.681  0.00  0.00    -0.274 OA
ATOM      4  O   UNL     1      18.962   7.709  20.846  0.00  0.00    -0.488 OA
ATOM      6  N   UNL     1      21.249  11.316  21.704  0.00  0.00    -0.300 N 
ATOM      7  N   UNL     1      18.561   9.930  22.682  0.00  0.00    -0.304 NA
ATOM     10  C   UNL     1      22.464   9.734  19.578  0.00  0.00    +0.008 C 
ATOM     11  C   UNL     1      21.632   9.113  20.738  0.00  0.00    +0.032 C 
ATOM     12  C   UNL     1      22.031  11.206  19.374  0.00  0.00    +0.023 C 
ATOM     14  C   UNL     1      21.747   9.971  22.014  0.00  0.00    +0.115 C 
ATOM     15  C   UNL     1      22.035  12.008  20.678  0.00  0.00    +0.108 C 
ATOM     21  C   UNL     1      21.949   7.669  21.021  0.00  0.00    -0.023 C 
ATOM     23  C   UNL     1      20.030  11.850  22.120  0.00  0.00    +0.229 C 
ATOM     24  C   UNL     1      21.133   6.603  20.974  0.00  0.00    +0.010 C 
ATOM     25  C   UNL     1      19.240  11.118  23.190  0.00  0.00    +0.178 C 
ATOM     26  C   UNL     1      19.658   6.477  20.690  0.00  0.00    +0.256 C 
ATOM     27  C   UNL     1      17.708  10.154  21.515  0.00  0.00    +0.120 C 
ATOM     28  C   UNL     1      16.940   8.902  21.129  0.00  0.00    +0.010 A 
ATOM     30  C   UNL     1      17.591   7.695  20.785  0.00  0.00    +0.125 A 
ATOM     31  C   UNL     1      14.792   7.838  20.716  0.00  0.00    +0.030 A 
ATOM     34  C   UNL     1      15.537   8.956  21.087  0.00  0.00    +0.031 A 
ATOM     37  C   UNL     1      16.832   6.581  20.408  0.00  0.00    +0.048 A 
ATOM     38  C   UNL     1      15.438   6.655  20.376  0.00  0.00    +0.027 A 
ATOM     39  H   UNL     1      18.004   9.529  23.437  0.00  0.00    +0.123 HD
ENDROOT
BRANCH  31   8
ATOM      8  N   UNL     1      13.395   7.908  20.680  0.00  0.00    -0.327 N 
ATOM      9  N   UNL     1      10.547   7.827  20.498  0.00  0.00    -0.313 NA
ATOM     32  C   UNL     1      12.739   7.990  19.368  0.00  0.00    +0.120 C 
ATOM     33  C   UNL     1      12.607   7.280  21.747  0.00  0.00    +0.120 C 
ATOM     35  C   UNL     1      11.330   8.567  19.510  0.00  0.00    +0.100 C 
ATOM     36  C   UNL     1      11.203   7.881  21.803  0.00  0.00    +0.100 C 
ATOM     40  H   UNL     1       9.619   8.243  20.571  0.00  0.00    +0.122 HD
ENDBRANCH  31   8
BRANCH  10  13
ATOM     13  C   UNL     1      23.984   9.640  19.760  0.00  0.00    +0.100 C 
BRANCH  13  19
ATOM      1  O   UNL     1      24.182   9.547  17.389  0.00  0.00    -0.276 OA
ATOM      5  N   UNL     1      25.715   8.331  18.626  0.00  0.00    -0.296 N 
ATOM     16  C   UNL     1      26.394   7.711  17.486  0.00  0.00    +0.102 C 
ATOM     17  C   UNL     1      27.194   6.570  18.116  0.00  0.00    +0.026 C 
ATOM     18  C   UNL     1      26.274   7.866  19.892  0.00  0.00    +0.108 C 
ATOM     19  C   UNL     1      24.626   9.175  18.477  0.00  0.00    +0.216 C 
ATOM     20  C   UNL     1      27.530   7.100  19.505  0.00  0.00    +0.021 C 
BRANCH  16  22
ATOM     22  C   UNL     1      27.290   8.711  16.757  0.00  0.00    +0.181 C 
BRANCH  22   2
ATOM      2  O   UNL     1      26.751   8.941  15.469  0.00  0.00    -0.381 OA
ATOM     29  C   UNL     1      26.057   7.800  14.976  0.00  0.00    +0.194 C 
ENDBRANCH  22   2
ENDBRANCH  16  22
ENDBRANCH  13  19
ENDBRANCH  10  13
TORSDOF 5
ENDMDL
MODEL 4
REMARK VINA RESULT:      -6.6     16.389     18.540
REMARK  Name = 71694355
REMARK  6 active torsions:
REMARK  status: ('A' for Active; 'I' for Inactive)
REMARK    1  A    between atoms: O_2  and  C_22
REMARK    2  A    between atoms: O_2  and  C_29
REMARK    3  A    between atoms: N_8  and  C_31
REMARK    4  A    between atoms: C_10  and  C_13
REMARK    5  A    between atoms: C_13  and  C_19
REMARK    6  A    between atoms: C_16  and  C_22
REMARK                            x       y       z     vdW  Elec       q    Type
REMARK                         _______ _______ _______ _____ _____    ______ ____
ROOT
ATOM      3  O   UNL     1      11.042   5.882   7.857  0.00  0.00    -0.274 OA
ATOM      4  O   UNL     1       8.727  10.166   5.750  0.00  0.00    -0.488 OA
ATOM      6  N   UNL     1       9.810   5.949   5.899  0.00  0.00    -0.300 N 
ATOM      7  N   UNL     1       8.653   8.166   7.862  0.00  0.00    -0.304 NA
ATOM     10  C   UNL     1      10.358   7.124   3.289  0.00  0.00    +0.008 C 
ATOM     11  C   UNL     1       9.209   7.609   4.222  0.00  0.00    +0.032 C 
ATOM     12  C   UNL     1      11.459   6.455   4.146  0.00  0.00    +0.023 C 
ATOM     14  C   UNL     1       8.689   6.450   5.096  0.00  0.00    +0.115 C 
ATOM     15  C   UNL     1      10.902   5.392   5.097  0.00  0.00    +0.108 C 
ATOM     21  C   UNL     1       8.081   8.299   3.503  0.00  0.00    -0.023 C 
ATOM     23  C   UNL     1       9.994   6.164   7.265  0.00  0.00    +0.229 C 
ATOM     24  C   UNL     1       7.620   9.551   3.665  0.00  0.00    +0.010 C 
ATOM     25  C   UNL     1       8.844   6.735   8.075  0.00  0.00    +0.178 C 
ATOM     26  C   UNL     1       8.010  10.650   4.620  0.00  0.00    +0.256 C 
ATOM     27  C   UNL     1       9.846   8.988   8.065  0.00  0.00    +0.120 C 
ATOM     28  C   UNL     1       9.536  10.470   7.952  0.00  0.00    +0.010 A 
ATOM     30  C   UNL     1       8.989  11.038   6.778  0.00  0.00    +0.125 A 
ATOM     31  C   UNL     1       9.582  12.678   8.973  0.00  0.00    +0.030 A 
ATOM     34  C   UNL     1       9.828  11.307   9.041  0.00  0.00    +0.031 A 
ATOM     37  C   UNL     1       8.752  12.416   6.720  0.00  0.00    +0.048 A 
ATOM     38  C   UNL     1       9.046  13.230   7.815  0.00  0.00    +0.027 A 
ATOM     39  H   UNL     1       7.910   8.489   8.483  0.00  0.00    +0.123 HD
ENDROOT
BRANCH  31   8
ATOM      8  N   UNL     1       9.877  13.497  10.068  0.00  0.00    -0.327 N 
ATOM      9  N   UNL     1      10.258  15.277  12.268  0.00  0.00    -0.313 NA
ATOM     32  C   UNL     1      10.051  14.936   9.829  0.00  0.00    +0.120 C 
ATOM     33  C   UNL     1       9.396  13.128  11.404  0.00  0.00    +0.120 C 
ATOM     35  C   UNL     1      10.850  15.574  10.965  0.00  0.00    +0.100 C 
ATOM     36  C   UNL     1      10.218  13.832  12.484  0.00  0.00    +0.100 C 
ATOM     40  H   UNL     1      10.820  15.711  12.999  0.00  0.00    +0.122 HD
ENDBRANCH  31   8
BRANCH  10  13
ATOM     13  C   UNL     1       9.912   6.189   2.158  0.00  0.00    +0.100 C 
BRANCH  13  19
ATOM      1  O   UNL     1      10.900   7.277   0.285  0.00  0.00    -0.276 OA
ATOM      5  N   UNL     1      11.717   5.185   0.843  0.00  0.00    -0.296 N 
ATOM     16  C   UNL     1      12.649   5.065  -0.281  0.00  0.00    +0.102 C 
ATOM     17  C   UNL     1      13.007   3.578  -0.300  0.00  0.00    +0.026 C 
ATOM     18  C   UNL     1      11.730   3.983   1.671  0.00  0.00    +0.108 C 
ATOM     19  C   UNL     1      10.882   6.278   1.007  0.00  0.00    +0.216 C 
ATOM     20  C   UNL     1      12.916   3.175   1.167  0.00  0.00    +0.021 C 
BRANCH  16  22
ATOM     22  C   UNL     1      13.878   5.952  -0.084  0.00  0.00    +0.181 C 
BRANCH  22   2
ATOM      2  O   UNL     1      14.994   5.309  -0.670  0.00  0.00    -0.381 OA
ATOM     29  C   UNL     1      16.211   5.676  -0.028  0.00  0.00    +0.194 C 
ENDBRANCH  22   2
ENDBRANCH  16  22
ENDBRANCH  13  19
ENDBRANCH  10  13
TORSDOF 5
ENDMDL
MODEL 5
REMARK VINA RESULT:      -6.5     17.072     19.636
REMARK  Name = 71694355
REMARK  6 active torsions:
REMARK  status: ('A' for Active; 'I' for Inactive)
REMARK    1  A    between atoms: O_2  and  C_22
REMARK    2  A    between atoms: O_2  and  C_29
REMARK    3  A    between atoms: N_8  and  C_31
REMARK    4  A    between atoms: C_10  and  C_13
REMARK    5  A    between atoms: C_13  and  C_19
REMARK    6  A    between atoms: C_16  and  C_22
REMARK                            x       y       z     vdW  Elec       q    Type
REMARK                         _______ _______ _______ _____ _____    ______ ____
ROOT
ATOM      3  O   UNL     1       7.913   6.208   5.814  0.00  0.00    -0.274 OA
ATOM      4  O   UNL     1      12.782   6.793   3.790  0.00  0.00    -0.488 OA
ATOM      6  N   UNL     1       9.748   7.108   6.899  0.00  0.00    -0.300 N 
ATOM      7  N   UNL     1      10.800   4.935   4.831  0.00  0.00    -0.304 NA
ATOM     10  C   UNL     1      11.198   9.609   6.533  0.00  0.00    +0.008 C 
ATOM     11  C   UNL     1      11.829   8.209   6.278  0.00  0.00    +0.032 C 
ATOM     12  C   UNL     1       9.661   9.510   6.377  0.00  0.00    +0.023 C 
ATOM     14  C   UNL     1      11.186   7.146   7.190  0.00  0.00    +0.115 C 
ATOM     15  C   UNL     1       9.058   8.366   7.196  0.00  0.00    +0.108 C 
ATOM     21  C   UNL     1      13.331   8.182   6.383  0.00  0.00    -0.023 C 
ATOM     23  C   UNL     1       9.085   6.105   6.192  0.00  0.00    +0.229 C 
ATOM     24  C   UNL     1      14.234   7.839   5.448  0.00  0.00    +0.010 C 
ATOM     25  C   UNL     1       9.820   4.808   5.905  0.00  0.00    +0.178 C 
ATOM     26  C   UNL     1      14.077   7.328   4.039  0.00  0.00    +0.256 C 
ATOM     27  C   UNL     1      10.282   5.488   3.581  0.00  0.00    +0.120 C 
ATOM     28  C   UNL     1      11.327   5.468   2.478  0.00  0.00    +0.010 A 
ATOM     30  C   UNL     1      12.565   6.140   2.602  0.00  0.00    +0.125 A 
ATOM     31  C   UNL     1      11.961   4.753   0.241  0.00  0.00    +0.030 A 
ATOM     34  C   UNL     1      11.040   4.779   1.288  0.00  0.00    +0.031 A 
ATOM     37  C   UNL     1      13.477   6.111   1.542  0.00  0.00    +0.048 A 
ATOM     38  C   UNL     1      13.175   5.419   0.368  0.00  0.00    +0.027 A 
ATOM     39  H   UNL     1      11.205   4.015   4.653  0.00  0.00    +0.123 HD
ENDROOT
BRANCH  31   8
ATOM      8  N   UNL     1      11.660   4.062  -0.938  0.00  0.00    -0.327 N 
ATOM      9  N   UNL     1      11.187   2.819  -3.464  0.00  0.00    -0.313 NA
ATOM     32  C   UNL     1      10.854   4.749  -1.956  0.00  0.00    +0.120 C 
ATOM     33  C   UNL     1      12.589   3.044  -1.441  0.00  0.00    +0.120 C 
ATOM     35  C   UNL     1      10.200   3.734  -2.894  0.00  0.00    +0.100 C 
ATOM     36  C   UNL     1      11.873   2.091  -2.398  0.00  0.00    +0.100 C 
ATOM     40  H   UNL     1      10.716   2.154  -4.076  0.00  0.00    +0.122 HD
ENDBRANCH  31   8
BRANCH  10  13
ATOM     13  C   UNL     1      11.561  10.240   7.883  0.00  0.00    +0.100 C 
BRANCH  13  19
ATOM      1  O   UNL     1      11.514  12.480   7.079  0.00  0.00    -0.276 OA
ATOM      5  N   UNL     1      10.217  11.996   8.934  0.00  0.00    -0.296 N 
ATOM     16  C   UNL     1       9.749  13.363   9.172  0.00  0.00    +0.102 C 
ATOM     17  C   UNL     1       9.182  13.312  10.592  0.00  0.00    +0.026 C 
ATOM     18  C   UNL     1       9.706  11.078   9.948  0.00  0.00    +0.108 C 
ATOM     19  C   UNL     1      11.104  11.676   7.919  0.00  0.00    +0.216 C 
ATOM     20  C   UNL     1       8.667  11.883  10.714  0.00  0.00    +0.021 C 
BRANCH  16  22
ATOM     22  C   UNL     1       8.698  13.780   8.145  0.00  0.00    +0.181 C 
BRANCH  22   2
ATOM      2  O   UNL     1       7.725  14.576   8.796  0.00  0.00    -0.381 OA
ATOM     29  C   UNL     1       6.667  14.941   7.916  0.00  0.00    +0.194 C 
ENDBRANCH  22   2
ENDBRANCH  16  22
ENDBRANCH  13  19
ENDBRANCH  10  13
TORSDOF 5
ENDMDL
MODEL 6
REMARK VINA RESULT:      -6.5     16.997     19.549
REMARK  Name = 71694355
REMARK  6 active torsions:
REMARK  status: ('A' for Active; 'I' for Inactive)
REMARK    1  A    between atoms: O_2  and  C_22
REMARK    2  A    between atoms: O_2  and  C_29
REMARK    3  A    between atoms: N_8  and  C_31
REMARK    4  A    between atoms: C_10  and  C_13
REMARK    5  A    between atoms: C_13  and  C_19
REMARK    6  A    between atoms: C_16  and  C_22
REMARK                            x       y       z     vdW  Elec       q    Type
REMARK                         _______ _______ _______ _____ _____    ______ ____
ROOT
ATOM      3  O   UNL     1       8.868  11.152   2.648  0.00  0.00    -0.274 OA
ATOM      4  O   UNL     1       9.874   6.286   4.508  0.00  0.00    -0.488 OA
ATOM      6  N   UNL     1       8.371  10.366   4.767  0.00  0.00    -0.300 N 
ATOM      7  N   UNL     1       8.221   7.912   2.752  0.00  0.00    -0.304 NA
ATOM     10  C   UNL     1      10.063   9.681   7.039  0.00  0.00    +0.008 C 
ATOM     11  C   UNL     1       9.197   8.639   6.272  0.00  0.00    +0.032 C 
ATOM     12  C   UNL     1      10.375  10.871   6.101  0.00  0.00    +0.023 C 
ATOM     14  C   UNL     1       7.938   9.304   5.681  0.00  0.00    +0.115 C 
ATOM     15  C   UNL     1       9.122  11.437   5.429  0.00  0.00    +0.108 C 
ATOM     21  C   UNL     1       8.842   7.418   7.079  0.00  0.00    -0.023 C 
ATOM     23  C   UNL     1       8.323  10.313   3.374  0.00  0.00    +0.229 C 
ATOM     24  C   UNL     1       9.129   6.130   6.826  0.00  0.00    +0.010 C 
ATOM     25  C   UNL     1       7.532   9.198   2.714  0.00  0.00    +0.178 C 
ATOM     26  C   UNL     1       9.830   5.464   5.670  0.00  0.00    +0.256 C 
ATOM     27  C   UNL     1       9.583   7.923   2.220  0.00  0.00    +0.120 C 
ATOM     28  C   UNL     1      10.183   6.528   2.176  0.00  0.00    +0.010 A 
ATOM     30  C   UNL     1      10.330   5.734   3.337  0.00  0.00    +0.125 A 
ATOM     31  C   UNL     1      11.206   4.757   0.859  0.00  0.00    +0.030 A 
ATOM     34  C   UNL     1      10.629   6.023   0.944  0.00  0.00    +0.031 A 
ATOM     37  C   UNL     1      10.917   4.467   3.240  0.00  0.00    +0.048 A 
ATOM     38  C   UNL     1      11.351   3.982   2.005  0.00  0.00    +0.027 A 
ATOM     39  H   UNL     1       7.662   7.231   2.237  0.00  0.00    +0.123 HD
ENDROOT
BRANCH  31   8
ATOM      8  N   UNL     1      11.644   4.268  -0.376  0.00  0.00    -0.327 N 
ATOM      9  N   UNL     1      12.728   3.432  -2.882  0.00  0.00    -0.313 NA
ATOM     32  C   UNL     1      11.631   5.182  -1.526  0.00  0.00    +0.120 C 
ATOM     33  C   UNL     1      12.653   3.204  -0.422  0.00  0.00    +0.120 C 
ATOM     35  C   UNL     1      11.629   4.394  -2.836  0.00  0.00    +0.100 C 
ATOM     36  C   UNL     1      12.616   2.487  -1.772  0.00  0.00    +0.100 C 
ATOM     40  H   UNL     1      12.692   2.921  -3.763  0.00  0.00    +0.122 HD
ENDBRANCH  31   8
BRANCH  10  13
ATOM     13  C   UNL     1       9.449  10.179   8.354  0.00  0.00    +0.100 C 
BRANCH  13  19
ATOM      1  O   UNL     1      11.705  10.704   8.902  0.00  0.00    -0.276 OA
ATOM      5  N   UNL     1      10.062  11.484  10.333  0.00  0.00    -0.296 N 
ATOM     16  C   UNL     1      10.969  12.068  11.325  0.00  0.00    +0.102 C 
ATOM     17  C   UNL     1      10.074  12.297  12.545  0.00  0.00    +0.026 C 
ATOM     18  C   UNL     1       8.668  11.631  10.740  0.00  0.00    +0.108 C 
ATOM     19  C   UNL     1      10.517  10.807   9.213  0.00  0.00    +0.216 C 
ATOM     20  C   UNL     1       8.706  12.574  11.932  0.00  0.00    +0.021 C 
BRANCH  16  22
ATOM     22  C   UNL     1      11.592  13.366  10.815  0.00  0.00    +0.181 C 
BRANCH  22   2
ATOM      2  O   UNL     1      12.748  13.641  11.584  0.00  0.00    -0.381 OA
ATOM     29  C   UNL     1      13.693  12.578  11.516  0.00  0.00    +0.194 C 
ENDBRANCH  22   2
ENDBRANCH  16  22
ENDBRANCH  13  19
ENDBRANCH  10  13
TORSDOF 5
ENDMDL
MODEL 7
REMARK VINA RESULT:      -6.4     31.674     35.289
REMARK  Name = 71694355
REMARK  6 active torsions:
REMARK  status: ('A' for Active; 'I' for Inactive)
REMARK    1  A    between atoms: O_2  and  C_22
REMARK    2  A    between atoms: O_2  and  C_29
REMARK    3  A    between atoms: N_8  and  C_31
REMARK    4  A    between atoms: C_10  and  C_13
REMARK    5  A    between atoms: C_13  and  C_19
REMARK    6  A    between atoms: C_16  and  C_22
REMARK                            x       y       z     vdW  Elec       q    Type
REMARK                         _______ _______ _______ _____ _____    ______ ____
ROOT
ATOM      3  O   UNL     1      -6.489 -10.659  20.264  0.00  0.00    -0.274 OA
ATOM      4  O   UNL     1     -10.389 -11.531  16.774  0.00  0.00    -0.488 OA
ATOM      6  N   UNL     1      -6.246 -11.493  18.119  0.00  0.00    -0.300 N 
ATOM      7  N   UNL     1      -9.082 -12.421  19.215  0.00  0.00    -0.304 NA
ATOM     10  C   UNL     1      -6.553 -10.254  15.499  0.00  0.00    +0.008 C 
ATOM     11  C   UNL     1      -7.471 -11.401  16.016  0.00  0.00    +0.032 C 
ATOM     12  C   UNL     1      -5.953  -9.499  16.709  0.00  0.00    +0.023 C 
ATOM     14  C   UNL     1      -6.705 -12.314  16.993  0.00  0.00    +0.115 C 
ATOM     15  C   UNL     1      -5.306 -10.439  17.728  0.00  0.00    +0.108 C 
ATOM     21  C   UNL     1      -8.133 -12.201  14.926  0.00  0.00    -0.023 C 
ATOM     23  C   UNL     1      -6.785 -11.498  19.405  0.00  0.00    +0.229 C 
ATOM     24  C   UNL     1      -9.443 -12.381  14.691  0.00  0.00    +0.010 C 
ATOM     25  C   UNL     1      -7.751 -12.605  19.786  0.00  0.00    +0.178 C 
ATOM     26  C   UNL     1     -10.671 -11.915  15.432  0.00  0.00    +0.256 C 
ATOM     27  C   UNL     1      -9.699 -11.123  19.486  0.00  0.00    +0.120 C 
ATOM     28  C   UNL     1     -11.126 -11.058  18.971  0.00  0.00    +0.010 A 
ATOM     30  C   UNL     1     -11.444 -11.253  17.606  0.00  0.00    +0.125 A 
ATOM     31  C   UNL     1     -13.481 -10.678  19.445  0.00  0.00    +0.030 A 
ATOM     34  C   UNL     1     -12.159 -10.770  19.877  0.00  0.00    +0.031 A 
ATOM     37  C   UNL     1     -12.774 -11.152  17.184  0.00  0.00    +0.048 A 
ATOM     38  C   UNL     1     -13.787 -10.867  18.101  0.00  0.00    +0.027 A 
ATOM     39  H   UNL     1      -9.688 -13.164  19.564  0.00  0.00    +0.123 HD
ENDROOT
BRANCH  31   8
ATOM      8  N   UNL     1     -14.499 -10.391  20.361  0.00  0.00    -0.327 N 
ATOM      9  N   UNL     1     -16.739  -9.862  22.051  0.00  0.00    -0.313 NA
ATOM     32  C   UNL     1     -15.371  -9.240  20.090  0.00  0.00    +0.120 C 
ATOM     33  C   UNL     1     -15.104 -11.477  21.141  0.00  0.00    +0.120 C 
ATOM     35  C   UNL     1     -16.047  -8.766  21.376  0.00  0.00    +0.100 C 
ATOM     36  C   UNL     1     -15.792 -10.923  22.389  0.00  0.00    +0.100 C 
ATOM     40  H   UNL     1     -17.170  -9.513  22.906  0.00  0.00    +0.122 HD
ENDBRANCH  31   8
BRANCH  10  13
ATOM     13  C   UNL     1      -5.443 -10.705  14.541  0.00  0.00    +0.100 C 
BRANCH  13  19
ATOM      1  O   UNL     1      -6.872  -9.865  12.833  0.00  0.00    -0.276 OA
ATOM      5  N   UNL     1      -4.637 -10.143  12.298  0.00  0.00    -0.296 N 
ATOM     16  C   UNL     1      -4.756  -9.769  10.887  0.00  0.00    +0.102 C 
ATOM     17  C   UNL     1      -3.447 -10.262  10.269  0.00  0.00    +0.026 C 
ATOM     18  C   UNL     1      -3.269 -10.528  12.630  0.00  0.00    +0.108 C 
ATOM     19  C   UNL     1      -5.729 -10.199  13.150  0.00  0.00    +0.216 C 
ATOM     20  C   UNL     1      -2.447 -10.136  11.412  0.00  0.00    +0.021 C 
BRANCH  16  22
ATOM     22  C   UNL     1      -4.940  -8.261  10.723  0.00  0.00    +0.181 C 
BRANCH  22   2
ATOM      2  O   UNL     1      -5.663  -8.024   9.530  0.00  0.00    -0.381 OA
ATOM     29  C   UNL     1      -6.882  -8.759   9.497  0.00  0.00    +0.194 C 
ENDBRANCH  22   2
ENDBRANCH  16  22
ENDBRANCH  13  19
ENDBRANCH  10  13
TORSDOF 5
ENDMDL
MODEL 8
REMARK VINA RESULT:      -6.4     18.496     20.546
REMARK  Name = 71694355
REMARK  6 active torsions:
REMARK  status: ('A' for Active; 'I' for Inactive)
REMARK    1  A    between atoms: O_2  and  C_22
REMARK    2  A    between atoms: O_2  and  C_29
REMARK    3  A    between atoms: N_8  and  C_31
REMARK    4  A    between atoms: C_10  and  C_13
REMARK    5  A    between atoms: C_13  and  C_19
REMARK    6  A    between atoms: C_16  and  C_22
REMARK                            x       y       z     vdW  Elec       q    Type
REMARK                         _______ _______ _______ _____ _____    ______ ____
ROOT
ATOM      3  O   UNL     1      14.992   8.453   2.006  0.00  0.00    -0.274 OA
ATOM      4  O   UNL     1      11.026   6.194   4.712  0.00  0.00    -0.488 OA
ATOM      6  N   UNL     1      14.090   6.358   1.619  0.00  0.00    -0.300 N 
ATOM      7  N   UNL     1      13.828   6.979   4.725  0.00  0.00    -0.304 NA
ATOM     10  C   UNL     1      11.511   5.511   0.557  0.00  0.00    +0.008 C 
ATOM     11  C   UNL     1      11.972   5.223   2.016  0.00  0.00    +0.032 C 
ATOM     12  C   UNL     1      12.260   6.756   0.024  0.00  0.00    +0.023 C 
ATOM     14  C   UNL     1      13.506   5.096   2.089  0.00  0.00    +0.115 C 
ATOM     15  C   UNL     1      13.775   6.662   0.221  0.00  0.00    +0.108 C 
ATOM     21  C   UNL     1      11.295   4.039   2.654  0.00  0.00    -0.023 C 
ATOM     23  C   UNL     1      14.684   7.331   2.422  0.00  0.00    +0.229 C 
ATOM     24  C   UNL     1      10.542   3.998   3.766  0.00  0.00    +0.010 C 
ATOM     25  C   UNL     1      15.007   6.987   3.865  0.00  0.00    +0.178 C 
ATOM     26  C   UNL     1      10.164   5.063   4.764  0.00  0.00    +0.256 C 
ATOM     27  C   UNL     1      13.021   8.199   4.684  0.00  0.00    +0.120 C 
ATOM     28  C   UNL     1      11.891   8.162   5.698  0.00  0.00    +0.010 A 
ATOM     30  C   UNL     1      10.897   7.156   5.682  0.00  0.00    +0.125 A 
ATOM     31  C   UNL     1      10.785   9.197   7.601  0.00  0.00    +0.030 A 
ATOM     34  C   UNL     1      11.818   9.178   6.665  0.00  0.00    +0.031 A 
ATOM     37  C   UNL     1       9.862   7.190   6.623  0.00  0.00    +0.048 A 
ATOM     38  C   UNL     1       9.809   8.207   7.579  0.00  0.00    +0.027 A 
ATOM     39  H   UNL     1      14.129   6.805   5.685  0.00  0.00    +0.123 HD
ENDROOT
BRANCH  31   8
ATOM      8  N   UNL     1      10.727  10.215   8.560  0.00  0.00    -0.327 N 
ATOM      9  N   UNL     1      10.603  12.456  10.325  0.00  0.00    -0.313 NA
ATOM     32  C   UNL     1      11.862  11.145   8.650  0.00  0.00    +0.120 C 
ATOM     33  C   UNL     1       9.427  10.757   8.969  0.00  0.00    +0.120 C 
ATOM     35  C   UNL     1      11.886  11.827  10.018  0.00  0.00    +0.100 C 
ATOM     36  C   UNL     1       9.539  11.454  10.325  0.00  0.00    +0.100 C 
ATOM     40  H   UNL     1      10.653  12.892  11.244  0.00  0.00    +0.122 HD
ENDBRANCH  31   8
BRANCH  10  13
ATOM     13  C   UNL     1      11.673   4.331  -0.410  0.00  0.00    +0.100 C 
BRANCH  13  19
ATOM      1  O   UNL     1       9.418   4.703  -1.075  0.00  0.00    -0.276 OA
ATOM      5  N   UNL     1      10.870   3.884  -2.680  0.00  0.00    -0.296 N 
ATOM     16  C   UNL     1       9.873   3.725  -3.741  0.00  0.00    +0.102 C 
ATOM     17  C   UNL     1      10.572   2.830  -4.766  0.00  0.00    +0.026 C 
ATOM     18  C   UNL     1      12.187   3.429  -3.118  0.00  0.00    +0.108 C 
ATOM     19  C   UNL     1      10.543   4.327  -1.409  0.00  0.00    +0.216 C 
ATOM     20  C   UNL     1      12.042   3.203  -4.615  0.00  0.00    +0.021 C 
BRANCH  16  22
ATOM     22  C   UNL     1       9.468   5.073  -4.333  0.00  0.00    +0.181 C 
BRANCH  22   2
ATOM      2  O   UNL     1       8.058   5.110  -4.443  0.00  0.00    -0.381 OA
ATOM     29  C   UNL     1       7.492   6.139  -3.637  0.00  0.00    +0.194 C 
ENDBRANCH  22   2
ENDBRANCH  16  22
ENDBRANCH  13  19
ENDBRANCH  10  13
TORSDOF 5
ENDMDL
MODEL 9
REMARK VINA RESULT:      -6.4     20.398     22.760
REMARK  Name = 71694355
REMARK  6 active torsions:
REMARK  status: ('A' for Active; 'I' for Inactive)
REMARK    1  A    between atoms: O_2  and  C_22
REMARK    2  A    between atoms: O_2  and  C_29
REMARK    3  A    between atoms: N_8  and  C_31
REMARK    4  A    between atoms: C_10  and  C_13
REMARK    5  A    between atoms: C_13  and  C_19
REMARK    6  A    between atoms: C_16  and  C_22
REMARK                            x       y       z     vdW  Elec       q    Type
REMARK                         _______ _______ _______ _____ _____    ______ ____
ROOT
ATOM      3  O   UNL     1       7.805   8.816  -0.192  0.00  0.00    -0.274 OA
ATOM      4  O   UNL     1       4.251  11.147   2.984  0.00  0.00    -0.488 OA
ATOM      6  N   UNL     1       8.253   9.895   1.805  0.00  0.00    -0.300 N 
ATOM      7  N   UNL     1       5.726  11.296   0.481  0.00  0.00    -0.304 NA
ATOM     10  C   UNL     1       7.663   9.199   4.574  0.00  0.00    +0.008 C 
ATOM     11  C   UNL     1       7.052  10.437   3.853  0.00  0.00    +0.032 C 
ATOM     12  C   UNL     1       8.056   8.139   3.517  0.00  0.00    +0.023 C 
ATOM     14  C   UNL     1       8.013  10.971   2.774  0.00  0.00    +0.115 C 
ATOM     15  C   UNL     1       8.909   8.721   2.387  0.00  0.00    +0.108 C 
ATOM     21  C   UNL     1       6.609  11.535   4.783  0.00  0.00    -0.023 C 
ATOM     23  C   UNL     1       7.726   9.827   0.516  0.00  0.00    +0.229 C 
ATOM     24  C   UNL     1       5.383  12.062   4.941  0.00  0.00    +0.010 C 
ATOM     25  C   UNL     1       7.059  11.060  -0.065  0.00  0.00    +0.178 C 
ATOM     26  C   UNL     1       4.076  11.795   4.239  0.00  0.00    +0.256 C 
ATOM     27  C   UNL     1       4.810  10.159   0.393  0.00  0.00    +0.120 C 
ATOM     28  C   UNL     1       3.411  10.524   0.862  0.00  0.00    +0.010 A 
ATOM     30  C   UNL     1       3.156  11.003   2.168  0.00  0.00    +0.125 A 
ATOM     31  C   UNL     1       1.033  10.654   0.370  0.00  0.00    +0.030 A 
ATOM     34  C   UNL     1       2.336  10.353  -0.025  0.00  0.00    +0.031 A 
ATOM     37  C   UNL     1       1.843  11.295   2.554  0.00  0.00    +0.048 A 
ATOM     38  C   UNL     1       0.788  11.122   1.657  0.00  0.00    +0.027 A 
ATOM     39  H   UNL     1       5.317  12.098  -0.000  0.00  0.00    +0.123 HD
ENDROOT
BRANCH  31   8
ATOM      8  N   UNL     1      -0.028  10.479  -0.526  0.00  0.00    -0.327 N 
ATOM      9  N   UNL     1      -2.067   9.928  -2.446  0.00  0.00    -0.313 NA
ATOM     32  C   UNL     1       0.235  10.681  -1.957  0.00  0.00    +0.120 C 
ATOM     33  C   UNL     1      -1.105   9.537  -0.204  0.00  0.00    +0.120 C 
ATOM     35  C   UNL     1      -1.068  10.963  -2.706  0.00  0.00    +0.100 C 
ATOM     36  C   UNL     1      -2.360   9.858  -1.016  0.00  0.00    +0.100 C 
ATOM     40  H   UNL     1      -2.922  10.151  -2.953  0.00  0.00    +0.122 HD
ENDBRANCH  31   8
BRANCH  10  13
ATOM     13  C   UNL     1       8.854   9.515   5.488  0.00  0.00    +0.100 C 
BRANCH  13  19
ATOM      1  O   UNL     1       8.196   8.055   7.250  0.00  0.00    -0.276 OA
ATOM      5  N   UNL     1      10.308   7.746   6.356  0.00  0.00    -0.296 N 
ATOM     16  C   UNL     1      10.726   6.687   7.278  0.00  0.00    +0.102 C 
ATOM     17  C   UNL     1      12.243   6.618   7.088  0.00  0.00    +0.026 C 
ATOM     18  C   UNL     1      11.380   8.091   5.426  0.00  0.00    +0.108 C 
ATOM     19  C   UNL     1       9.078   8.375   6.450  0.00  0.00    +0.216 C 
ATOM     20  C   UNL     1      12.434   7.015   5.629  0.00  0.00    +0.021 C 
BRANCH  16  22
ATOM     22  C   UNL     1      10.042   5.361   6.951  0.00  0.00    +0.181 C 
BRANCH  22   2
ATOM      2  O   UNL     1      10.118   4.524   8.090  0.00  0.00    -0.381 OA
ATOM     29  C   UNL     1       9.422   5.081   9.200  0.00  0.00    +0.194 C 
ENDBRANCH  22   2
ENDBRANCH  16  22
ENDBRANCH  13  19
ENDBRANCH  10  13
TORSDOF 5
ENDMDL
MODEL 10
REMARK VINA RESULT:      -6.4     22.927     25.352
REMARK  Name = 71694355
REMARK  6 active torsions:
REMARK  status: ('A' for Active; 'I' for Inactive)
REMARK    1  A    between atoms: O_2  and  C_22
REMARK    2  A    between atoms: O_2  and  C_29
REMARK    3  A    between atoms: N_8  and  C_31
REMARK    4  A    between atoms: C_10  and  C_13
REMARK    5  A    between atoms: C_13  and  C_19
REMARK    6  A    between atoms: C_16  and  C_22
REMARK                            x       y       z     vdW  Elec       q    Type
REMARK                         _______ _______ _______ _____ _____    ______ ____
ROOT
ATOM      3  O   UNL     1       6.418  10.893   0.354  0.00  0.00    -0.274 OA
ATOM      4  O   UNL     1       9.324   6.494  -0.240  0.00  0.00    -0.488 OA
ATOM      6  N   UNL     1       6.930   9.851  -1.647  0.00  0.00    -0.300 N 
ATOM      7  N   UNL     1       9.334   9.339   0.368  0.00  0.00    -0.304 NA
ATOM     10  C   UNL     1       6.056   7.325  -2.810  0.00  0.00    +0.008 C 
ATOM     11  C   UNL     1       7.529   7.612  -2.394  0.00  0.00    +0.032 C 
ATOM     12  C   UNL     1       5.110   8.231  -1.986  0.00  0.00    +0.023 C 
ATOM     14  C   UNL     1       7.850   9.114  -2.521  0.00  0.00    +0.115 C 
ATOM     15  C   UNL     1       5.522   9.704  -2.025  0.00  0.00    +0.108 C 
ATOM     21  C   UNL     1       8.549   6.772  -3.117  0.00  0.00    -0.023 C 
ATOM     23  C   UNL     1       7.262  10.447  -0.431  0.00  0.00    +0.229 C 
ATOM     24  C   UNL     1       9.446   5.913  -2.607  0.00  0.00    +0.010 C 
ATOM     25  C   UNL     1       8.728  10.594  -0.067  0.00  0.00    +0.178 C 
ATOM     26  C   UNL     1       9.781   5.534  -1.186  0.00  0.00    +0.256 C 
ATOM     27  C   UNL     1       8.631   8.653   1.451  0.00  0.00    +0.120 C 
ATOM     28  C   UNL     1       9.391   7.429   1.931  0.00  0.00    +0.010 A 
ATOM     30  C   UNL     1       9.714   6.356   1.068  0.00  0.00    +0.125 A 
ATOM     31  C   UNL     1      10.440   6.236   3.774  0.00  0.00    +0.030 A 
ATOM     34  C   UNL     1       9.761   7.351   3.284  0.00  0.00    +0.031 A 
ATOM     37  C   UNL     1      10.390   5.239   1.574  0.00  0.00    +0.048 A 
ATOM     38  C   UNL     1      10.752   5.183   2.921  0.00  0.00    +0.027 A 
ATOM     39  H   UNL     1      10.296   9.527   0.655  0.00  0.00    +0.123 HD
ENDROOT
BRANCH  31   8
ATOM      8  N   UNL     1      10.802   6.175   5.124  0.00  0.00    -0.327 N 
ATOM      9  N   UNL     1      11.643   5.827   7.830  0.00  0.00    -0.313 NA
ATOM     32  C   UNL     1      10.172   5.148   5.964  0.00  0.00    +0.120 C 
ATOM     33  C   UNL     1      12.145   6.598   5.537  0.00  0.00    +0.120 C 
ATOM     35  C   UNL     1      10.265   5.534   7.441  0.00  0.00    +0.100 C 
ATOM     36  C   UNL     1      12.169   6.930   7.028  0.00  0.00    +0.100 C 
ATOM     40  H   UNL     1      11.666   6.087   8.815  0.00  0.00    +0.122 HD
ENDBRANCH  31   8
BRANCH  10  13
ATOM     13  C   UNL     1       5.774   7.477  -4.310  0.00  0.00    +0.100 C 
BRANCH  13  19
ATOM      1  O   UNL     1       5.223   5.232  -4.881  0.00  0.00    -0.276 OA
ATOM      5  N   UNL     1       3.532   6.806  -5.028  0.00  0.00    -0.296 N 
ATOM     16  C   UNL     1       2.513   5.904  -5.571  0.00  0.00    +0.102 C 
ATOM     17  C   UNL     1       1.433   6.852  -6.098  0.00  0.00    +0.026 C 
ATOM     18  C   UNL     1       3.022   8.168  -4.906  0.00  0.00    +0.108 C 
ATOM     19  C   UNL     1       4.828   6.394  -4.766  0.00  0.00    +0.216 C 
ATOM     20  C   UNL     1       1.527   8.049  -5.160  0.00  0.00    +0.021 C 
BRANCH  16  22
ATOM     22  C   UNL     1       1.977   4.957  -4.499  0.00  0.00    +0.181 C 
BRANCH  22   2
ATOM      2  O   UNL     1       1.532   3.771  -5.130  0.00  0.00    -0.381 OA
ATOM     29  C   UNL     1       2.602   2.860  -5.356  0.00  0.00    +0.194 C 
ENDBRANCH  22   2
ENDBRANCH  16  22
ENDBRANCH  13  19
ENDBRANCH  10  13
TORSDOF 5
ENDMDL
