MODEL 1
REMARK VINA RESULT:      -6.8      0.000      0.000
REMARK  Name = 51138033
REMARK  10 active torsions:
REMARK  status: ('A' for Active; 'I' for Inactive)
REMARK    1  A    between atoms: N_3  and  C_19
REMARK    2  A    between atoms: N_4  and  C_24
REMARK    3  A    between atoms: C_6  and  C_10
REMARK    4  A    between atoms: C_9  and  C_17
REMARK    5  A    between atoms: C_10  and  C_14
REMARK    6  A    between atoms: C_14  and  C_21
REMARK    7  A    between atoms: C_14  and  C_22
REMARK    8  A    between atoms: C_19  and  C_23
REMARK    9  A    between atoms: C_24  and  C_25
REMARK   10  A    between atoms: C_25  and  C_28
REMARK                            x       y       z     vdW  Elec       q    Type
REMARK                         _______ _______ _______ _____ _____    ______ ____
ROOT
ATOM      2  N   UNL     1      14.676   8.402  21.754  0.00  0.00    -0.299 NA
ATOM      3  N   UNL     1      19.519   7.353  20.777  0.00  0.00    -0.342 N 
ATOM      6  C   UNL     1      15.378   9.692  21.793  0.00  0.00    +0.085 C 
ATOM      7  C   UNL     1      16.907   9.625  21.707  0.00  0.00    -0.021 A 
ATOM      8  C   UNL     1      17.655   8.495  21.264  0.00  0.00    +0.008 A 
ATOM      9  C   UNL     1      14.830   7.663  20.509  0.00  0.00    +0.145 C 
ATOM     11  C   UNL     1      17.300   7.187  20.786  0.00  0.00    -0.020 A 
ATOM     12  C   UNL     1      15.934   6.613  20.613  0.00  0.00    +0.065 C 
ATOM     13  C   UNL     1      19.051   8.568  21.218  0.00  0.00    +0.050 A 
ATOM     15  C   UNL     1      18.475   6.518  20.507  0.00  0.00    +0.091 A 
ATOM     16  C   UNL     1      17.655  10.789  22.014  0.00  0.00    +0.006 A 
ATOM     18  C   UNL     1      19.774   9.711  21.571  0.00  0.00    +0.026 A 
ATOM     20  C   UNL     1      19.047  10.829  21.958  0.00  0.00    +0.002 A 
ATOM     31  H   UNL     1      14.927   7.827  22.558  0.00  0.00    +0.123 HD
ENDROOT
BRANCH   9  17
ATOM      1  O   UNL     1      13.132   6.644  19.177  0.00  0.00    -0.274 OA
ATOM      4  N   UNL     1      12.818   6.801  21.479  0.00  0.00    -0.314 N 
ATOM     17  C   UNL     1      13.515   6.976  20.296  0.00  0.00    +0.230 C 
ATOM     32  H   UNL     1      13.226   7.110  22.356  0.00  0.00    +0.149 HD
BRANCH   4  24
ATOM     24  C   UNL     1      11.513   6.185  21.543  0.00  0.00    +0.104 C 
BRANCH  24  25
ATOM     25  C   UNL     1      10.409   7.191  21.846  0.00  0.00    +0.015 C 
ATOM     28  C   UNL     1      10.930   8.450  22.524  0.00  0.00    +0.005 C 
ENDBRANCH  24  25
ENDBRANCH   4  24
ENDBRANCH   9  17
BRANCH   6  10
ATOM     10  C   UNL     1      14.890  10.362  23.090  0.00  0.00    +0.026 C 
BRANCH  10  14
ATOM     14  C   UNL     1      14.071  11.631  22.836  0.00  0.00    -0.015 C 
ATOM     21  C   UNL     1      13.749  11.839  21.355  0.00  0.00    +0.007 C 
ATOM     22  C   UNL     1      12.773  11.565  23.643  0.00  0.00    +0.007 C 
ENDBRANCH  10  14
ENDBRANCH   6  10
BRANCH   3  19
ATOM     19  C   UNL     1      20.910   7.001  20.596  0.00  0.00    +0.158 C 
BRANCH  19  23
ATOM      5  N   UNL     1      21.892   4.601  23.359  0.00  0.00    -0.263 NA
ATOM     23  C   UNL     1      21.300   5.726  21.302  0.00  0.00    -0.010 A 
ATOM     26  C   UNL     1      21.433   4.531  20.603  0.00  0.00    +0.008 A 
ATOM     27  C   UNL     1      21.538   5.708  22.667  0.00  0.00    +0.116 A 
ATOM     29  C   UNL     1      21.796   3.372  21.280  0.00  0.00    +0.020 A 
ATOM     30  C   UNL     1      22.012   3.460  22.646  0.00  0.00    +0.111 A 
ENDBRANCH  19  23
ENDBRANCH   3  19
TORSDOF 7
ENDMDL
MODEL 2
REMARK VINA RESULT:      -6.8      2.872      7.614
REMARK  Name = 51138033
REMARK  10 active torsions:
REMARK  status: ('A' for Active; 'I' for Inactive)
REMARK    1  A    between atoms: N_3  and  C_19
REMARK    2  A    between atoms: N_4  and  C_24
REMARK    3  A    between atoms: C_6  and  C_10
REMARK    4  A    between atoms: C_9  and  C_17
REMARK    5  A    between atoms: C_10  and  C_14
REMARK    6  A    between atoms: C_14  and  C_21
REMARK    7  A    between atoms: C_14  and  C_22
REMARK    8  A    between atoms: C_19  and  C_23
REMARK    9  A    between atoms: C_24  and  C_25
REMARK   10  A    between atoms: C_25  and  C_28
REMARK                            x       y       z     vdW  Elec       q    Type
REMARK                         _______ _______ _______ _____ _____    ______ ____
ROOT
ATOM      2  N   UNL     1      18.991   8.606  21.321  0.00  0.00    -0.299 NA
ATOM      3  N   UNL     1      14.422   7.369  19.561  0.00  0.00    -0.342 N 
ATOM      6  C   UNL     1      18.055   9.546  21.951  0.00  0.00    +0.085 C 
ATOM      7  C   UNL     1      16.612   9.498  21.438  0.00  0.00    -0.021 A 
ATOM      8  C   UNL     1      16.045   8.432  20.680  0.00  0.00    +0.008 A 
ATOM      9  C   UNL     1      18.687   7.200  21.546  0.00  0.00    +0.145 C 
ATOM     11  C   UNL     1      16.545   7.173  20.197  0.00  0.00    -0.020 A 
ATOM     12  C   UNL     1      17.911   6.600  20.375  0.00  0.00    +0.065 C 
ATOM     13  C   UNL     1      14.705   8.504  20.283  0.00  0.00    +0.050 A 
ATOM     15  C   UNL     1      15.518   6.560  19.509  0.00  0.00    +0.091 A 
ATOM     16  C   UNL     1      15.730  10.549  21.795  0.00  0.00    +0.006 A 
ATOM     18  C   UNL     1      13.864   9.572  20.606  0.00  0.00    +0.026 A 
ATOM     20  C   UNL     1      14.399  10.591  21.383  0.00  0.00    +0.002 A 
ATOM     31  H   UNL     1      19.094   8.806  20.327  0.00  0.00    +0.123 HD
ENDROOT
BRANCH   9  17
ATOM      1  O   UNL     1      20.759   6.698  22.618  0.00  0.00    -0.274 OA
ATOM      4  N   UNL     1      20.293   5.730  20.552  0.00  0.00    -0.314 N 
ATOM     17  C   UNL     1      20.018   6.522  21.653  0.00  0.00    +0.230 C 
ATOM     32  H   UNL     1      19.609   5.649  19.805  0.00  0.00    +0.149 HD
BRANCH   4  24
ATOM     24  C   UNL     1      21.522   4.987  20.400  0.00  0.00    +0.104 C 
BRANCH  24  25
ATOM     25  C   UNL     1      21.430   3.583  20.987  0.00  0.00    +0.015 C 
ATOM     28  C   UNL     1      22.194   3.442  22.296  0.00  0.00    +0.005 C 
ENDBRANCH  24  25
ENDBRANCH   4  24
ENDBRANCH   9  17
BRANCH   6  10
ATOM     10  C   UNL     1      18.703  10.928  21.761  0.00  0.00    +0.026 C 
BRANCH  10  14
ATOM     14  C   UNL     1      19.113  11.204  20.311  0.00  0.00    -0.015 C 
ATOM     21  C   UNL     1      18.239  12.268  19.644  0.00  0.00    +0.007 C 
ATOM     22  C   UNL     1      20.578  11.641  20.273  0.00  0.00    +0.007 C 
ENDBRANCH  10  14
ENDBRANCH   6  10
BRANCH   3  19
ATOM     19  C   UNL     1      13.147   7.052  18.957  0.00  0.00    +0.158 C 
BRANCH  19  23
ATOM      5  N   UNL     1      13.631   8.790  15.625  0.00  0.00    -0.263 NA
ATOM     23  C   UNL     1      12.854   7.862  17.718  0.00  0.00    -0.010 A 
ATOM     26  C   UNL     1      11.598   8.421  17.508  0.00  0.00    +0.008 A 
ATOM     27  C   UNL     1      13.827   8.073  16.755  0.00  0.00    +0.116 A 
ATOM     29  C   UNL     1      11.358   9.164  16.357  0.00  0.00    +0.020 A 
ATOM     30  C   UNL     1      12.398   9.317  15.455  0.00  0.00    +0.111 A 
ENDBRANCH  19  23
ENDBRANCH   3  19
TORSDOF 7
ENDMDL
MODEL 3
REMARK VINA RESULT:      -6.8      2.615      7.984
REMARK  Name = 51138033
REMARK  10 active torsions:
REMARK  status: ('A' for Active; 'I' for Inactive)
REMARK    1  A    between atoms: N_3  and  C_19
REMARK    2  A    between atoms: N_4  and  C_24
REMARK    3  A    between atoms: C_6  and  C_10
REMARK    4  A    between atoms: C_9  and  C_17
REMARK    5  A    between atoms: C_10  and  C_14
REMARK    6  A    between atoms: C_14  and  C_21
REMARK    7  A    between atoms: C_14  and  C_22
REMARK    8  A    between atoms: C_19  and  C_23
REMARK    9  A    between atoms: C_24  and  C_25
REMARK   10  A    between atoms: C_25  and  C_28
REMARK                            x       y       z     vdW  Elec       q    Type
REMARK                         _______ _______ _______ _____ _____    ______ ____
ROOT
ATOM      2  N   UNL     1      19.235   8.609  22.471  0.00  0.00    -0.299 NA
ATOM      3  N   UNL     1      14.873   8.727  19.928  0.00  0.00    -0.342 N 
ATOM      6  C   UNL     1      19.356   7.584  21.426  0.00  0.00    +0.085 C 
ATOM      7  C   UNL     1      18.083   7.292  20.624  0.00  0.00    -0.021 A 
ATOM      8  C   UNL     1      16.935   8.134  20.572  0.00  0.00    +0.008 A 
ATOM      9  C   UNL     1      18.930   9.945  21.980  0.00  0.00    +0.145 C 
ATOM     11  C   UNL     1      16.598   9.402  21.161  0.00  0.00    -0.020 A 
ATOM     12  C   UNL     1      17.435  10.246  22.063  0.00  0.00    +0.065 C 
ATOM     13  C   UNL     1      15.839   7.758  19.787  0.00  0.00    +0.050 A 
ATOM     15  C   UNL     1      15.321   9.722  20.745  0.00  0.00    +0.091 A 
ATOM     16  C   UNL     1      18.050   6.138  19.801  0.00  0.00    +0.006 A 
ATOM     18  C   UNL     1      15.807   6.592  19.020  0.00  0.00    +0.026 A 
ATOM     20  C   UNL     1      16.942   5.792  19.030  0.00  0.00    +0.002 A 
ATOM     31  H   UNL     1      18.572   8.320  23.189  0.00  0.00    +0.123 HD
ENDROOT
BRANCH   9  17
ATOM      1  O   UNL     1      20.171  11.921  22.482  0.00  0.00    -0.274 OA
ATOM      4  N   UNL     1      19.728  10.402  24.190  0.00  0.00    -0.314 N 
ATOM     17  C   UNL     1      19.670  10.876  22.891  0.00  0.00    +0.230 C 
ATOM     32  H   UNL     1      19.277   9.523  24.427  0.00  0.00    +0.149 HD
BRANCH   4  24
ATOM     24  C   UNL     1      20.405  11.101  25.257  0.00  0.00    +0.104 C 
BRANCH  24  25
ATOM     25  C   UNL     1      19.472  11.442  26.413  0.00  0.00    +0.015 C 
ATOM     28  C   UNL     1      18.367  12.410  26.011  0.00  0.00    +0.005 C 
ENDBRANCH  24  25
ENDBRANCH   4  24
ENDBRANCH   9  17
BRANCH   6  10
ATOM     10  C   UNL     1      19.889   6.340  22.160  0.00  0.00    +0.026 C 
BRANCH  10  14
ATOM     14  C   UNL     1      21.241   5.860  21.623  0.00  0.00    -0.015 C 
ATOM     21  C   UNL     1      21.160   4.475  20.979  0.00  0.00    +0.007 C 
ATOM     22  C   UNL     1      21.769   6.874  20.606  0.00  0.00    +0.007 C 
ENDBRANCH  10  14
ENDBRANCH   6  10
BRANCH   3  19
ATOM     19  C   UNL     1      13.575   8.719  19.291  0.00  0.00    +0.158 C 
BRANCH  19  23
ATOM      5  N   UNL     1      11.276   6.311  21.099  0.00  0.00    -0.263 NA
ATOM     23  C   UNL     1      12.474   8.200  20.183  0.00  0.00    -0.010 A 
ATOM     26  C   UNL     1      11.658   9.072  20.896  0.00  0.00    +0.008 A 
ATOM     27  C   UNL     1      12.245   6.841  20.319  0.00  0.00    +0.116 A 
ATOM     29  C   UNL     1      10.651   8.565  21.709  0.00  0.00    +0.020 A 
ATOM     30  C   UNL     1      10.503   7.189  21.776  0.00  0.00    +0.111 A 
ENDBRANCH  19  23
ENDBRANCH   3  19
TORSDOF 7
ENDMDL
MODEL 4
REMARK VINA RESULT:      -6.7     28.109     30.271
REMARK  Name = 51138033
REMARK  10 active torsions:
REMARK  status: ('A' for Active; 'I' for Inactive)
REMARK    1  A    between atoms: N_3  and  C_19
REMARK    2  A    between atoms: N_4  and  C_24
REMARK    3  A    between atoms: C_6  and  C_10
REMARK    4  A    between atoms: C_9  and  C_17
REMARK    5  A    between atoms: C_10  and  C_14
REMARK    6  A    between atoms: C_14  and  C_21
REMARK    7  A    between atoms: C_14  and  C_22
REMARK    8  A    between atoms: C_19  and  C_23
REMARK    9  A    between atoms: C_24  and  C_25
REMARK   10  A    between atoms: C_25  and  C_28
REMARK                            x       y       z     vdW  Elec       q    Type
REMARK                         _______ _______ _______ _____ _____    ______ ____
ROOT
ATOM      2  N   UNL     1      -6.675 -11.145  16.227  0.00  0.00    -0.299 NA
ATOM      3  N   UNL     1      -3.951 -10.073  12.112  0.00  0.00    -0.342 N 
ATOM      6  C   UNL     1      -5.275 -11.123  16.671  0.00  0.00    +0.085 C 
ATOM      7  C   UNL     1      -4.223 -10.998  15.564  0.00  0.00    -0.021 A 
ATOM      8  C   UNL     1      -4.484 -10.572  14.229  0.00  0.00    +0.008 A 
ATOM      9  C   UNL     1      -7.128  -9.922  15.582  0.00  0.00    +0.145 C 
ATOM     11  C   UNL     1      -5.665 -10.147  13.528  0.00  0.00    -0.020 A 
ATOM     12  C   UNL     1      -7.055 -10.030  14.060  0.00  0.00    +0.065 C 
ATOM     13  C   UNL     1      -3.429 -10.487  13.314  0.00  0.00    +0.050 A 
ATOM     15  C   UNL     1      -5.293  -9.859  12.231  0.00  0.00    +0.091 A 
ATOM     16  C   UNL     1      -2.865 -11.246  15.887  0.00  0.00    +0.006 A 
ATOM     18  C   UNL     1      -2.103 -10.781  13.640  0.00  0.00    +0.026 A 
ATOM     20  C   UNL     1      -1.837 -11.151  14.951  0.00  0.00    +0.002 A 
ATOM     31  H   UNL     1      -6.858 -11.960  15.643  0.00  0.00    +0.123 HD
ENDROOT
BRANCH   9  17
ATOM      1  O   UNL     1      -9.097 -10.550  16.775  0.00  0.00    -0.274 OA
ATOM      4  N   UNL     1      -9.168  -8.685  15.383  0.00  0.00    -0.314 N 
ATOM     17  C   UNL     1      -8.560  -9.767  15.995  0.00  0.00    +0.230 C 
ATOM     32  H   UNL     1      -8.633  -8.095  14.753  0.00  0.00    +0.149 HD
BRANCH   4  24
ATOM     24  C   UNL     1     -10.553  -8.332  15.596  0.00  0.00    +0.104 C 
BRANCH  24  25
ATOM     25  C   UNL     1     -10.728  -7.315  16.717  0.00  0.00    +0.015 C 
ATOM     28  C   UNL     1     -11.346  -6.010  16.235  0.00  0.00    +0.005 C 
ENDBRANCH  24  25
ENDBRANCH   4  24
ENDBRANCH   9  17
BRANCH   6  10
ATOM     10  C   UNL     1      -5.109 -12.409  17.500  0.00  0.00    +0.026 C 
BRANCH  10  14
ATOM     14  C   UNL     1      -4.960 -12.140  19.000  0.00  0.00    -0.015 C 
ATOM     21  C   UNL     1      -3.502 -12.173  19.463  0.00  0.00    +0.007 C 
ATOM     22  C   UNL     1      -5.578 -10.781  19.335  0.00  0.00    +0.007 C 
ENDBRANCH  10  14
ENDBRANCH   6  10
BRANCH   3  19
ATOM     19  C   UNL     1      -3.200  -9.866  10.893  0.00  0.00    +0.158 C 
BRANCH  19  23
ATOM      5  N   UNL     1      -5.159  -9.759   7.652  0.00  0.00    -0.263 NA
ATOM     23  C   UNL     1      -3.931 -10.325   9.655  0.00  0.00    -0.010 A 
ATOM     26  C   UNL     1      -4.063 -11.678   9.362  0.00  0.00    +0.008 A 
ATOM     27  C   UNL     1      -4.491  -9.413   8.776  0.00  0.00    +0.116 A 
ATOM     29  C   UNL     1      -4.744 -12.072   8.215  0.00  0.00    +0.020 A 
ATOM     30  C   UNL     1      -5.268 -11.082   7.400  0.00  0.00    +0.111 A 
ENDBRANCH  19  23
ENDBRANCH   3  19
TORSDOF 7
ENDMDL
MODEL 5
REMARK VINA RESULT:      -6.7      2.306      7.618
REMARK  Name = 51138033
REMARK  10 active torsions:
REMARK  status: ('A' for Active; 'I' for Inactive)
REMARK    1  A    between atoms: N_3  and  C_19
REMARK    2  A    between atoms: N_4  and  C_24
REMARK    3  A    between atoms: C_6  and  C_10
REMARK    4  A    between atoms: C_9  and  C_17
REMARK    5  A    between atoms: C_10  and  C_14
REMARK    6  A    between atoms: C_14  and  C_21
REMARK    7  A    between atoms: C_14  and  C_22
REMARK    8  A    between atoms: C_19  and  C_23
REMARK    9  A    between atoms: C_24  and  C_25
REMARK   10  A    between atoms: C_25  and  C_28
REMARK                            x       y       z     vdW  Elec       q    Type
REMARK                         _______ _______ _______ _____ _____    ______ ____
ROOT
ATOM      2  N   UNL     1      19.962   8.155  21.666  0.00  0.00    -0.299 NA
ATOM      3  N   UNL     1      15.475   7.545  19.429  0.00  0.00    -0.342 N 
ATOM      6  C   UNL     1      19.110   9.234  22.182  0.00  0.00    +0.085 C 
ATOM      7  C   UNL     1      17.739   9.382  21.515  0.00  0.00    -0.021 A 
ATOM      8  C   UNL     1      17.107   8.390  20.709  0.00  0.00    +0.008 A 
ATOM      9  C   UNL     1      19.433   6.813  21.868  0.00  0.00    +0.145 C 
ATOM     11  C   UNL     1      17.467   7.062  20.294  0.00  0.00    -0.020 A 
ATOM     12  C   UNL     1      18.708   6.302  20.624  0.00  0.00    +0.065 C 
ATOM     13  C   UNL     1      15.842   8.645  20.168  0.00  0.00    +0.050 A 
ATOM     15  C   UNL     1      16.441   6.586  19.503  0.00  0.00    +0.091 A 
ATOM     16  C   UNL     1      16.986  10.557  21.766  0.00  0.00    +0.006 A 
ATOM     18  C   UNL     1      15.136   9.830  20.388  0.00  0.00    +0.026 A 
ATOM     20  C   UNL     1      15.727  10.780  21.211  0.00  0.00    +0.002 A 
ATOM     31  H   UNL     1      20.198   8.314  20.688  0.00  0.00    +0.123 HD
ENDROOT
BRANCH   9  17
ATOM      1  O   UNL     1      21.014   5.697  23.265  0.00  0.00    -0.274 OA
ATOM      4  N   UNL     1      21.237   5.532  20.953  0.00  0.00    -0.314 N 
ATOM     17  C   UNL     1      20.633   5.953  22.125  0.00  0.00    +0.230 C 
ATOM     32  H   UNL     1      20.840   5.798  20.057  0.00  0.00    +0.149 HD
BRANCH   4  24
ATOM     24  C   UNL     1      22.425   4.711  20.927  0.00  0.00    +0.104 C 
BRANCH  24  25
ATOM     25  C   UNL     1      22.131   3.251  21.253  0.00  0.00    +0.015 C 
ATOM     28  C   UNL     1      23.185   2.626  22.156  0.00  0.00    +0.005 C 
ENDBRANCH  24  25
ENDBRANCH   4  24
ENDBRANCH   9  17
BRANCH   6  10
ATOM     10  C   UNL     1      19.969  10.504  22.052  0.00  0.00    +0.026 C 
BRANCH  10  14
ATOM     14  C   UNL     1      20.565  10.684  20.653  0.00  0.00    -0.015 C 
ATOM     21  C   UNL     1      19.937  11.852  19.891  0.00  0.00    +0.007 C 
ATOM     22  C   UNL     1      22.076  10.896  20.770  0.00  0.00    +0.007 C 
ENDBRANCH  10  14
ENDBRANCH   6  10
BRANCH   3  19
ATOM     19  C   UNL     1      14.239   7.400  18.692  0.00  0.00    +0.158 C 
BRANCH  19  23
ATOM      5  N   UNL     1      10.798   8.363  19.952  0.00  0.00    -0.263 NA
ATOM     23  C   UNL     1      13.011   7.469  19.565  0.00  0.00    -0.010 A 
ATOM     26  C   UNL     1      12.933   6.744  20.750  0.00  0.00    +0.008 A 
ATOM     27  C   UNL     1      11.926   8.256  19.214  0.00  0.00    +0.116 A 
ATOM     29  C   UNL     1      11.789   6.828  21.536  0.00  0.00    +0.020 A 
ATOM     30  C   UNL     1      10.759   7.644  21.096  0.00  0.00    +0.111 A 
ENDBRANCH  19  23
ENDBRANCH   3  19
TORSDOF 7
ENDMDL
MODEL 6
REMARK VINA RESULT:      -6.7      4.314      8.927
REMARK  Name = 51138033
REMARK  10 active torsions:
REMARK  status: ('A' for Active; 'I' for Inactive)
REMARK    1  A    between atoms: N_3  and  C_19
REMARK    2  A    between atoms: N_4  and  C_24
REMARK    3  A    between atoms: C_6  and  C_10
REMARK    4  A    between atoms: C_9  and  C_17
REMARK    5  A    between atoms: C_10  and  C_14
REMARK    6  A    between atoms: C_14  and  C_21
REMARK    7  A    between atoms: C_14  and  C_22
REMARK    8  A    between atoms: C_19  and  C_23
REMARK    9  A    between atoms: C_24  and  C_25
REMARK   10  A    between atoms: C_25  and  C_28
REMARK                            x       y       z     vdW  Elec       q    Type
REMARK                         _______ _______ _______ _____ _____    ______ ____
ROOT
ATOM      2  N   UNL     1      14.057   9.364  18.785  0.00  0.00    -0.299 NA
ATOM      3  N   UNL     1      11.134  10.966  22.579  0.00  0.00    -0.342 N 
ATOM      6  C   UNL     1      13.153   8.247  19.090  0.00  0.00    +0.085 C 
ATOM      7  C   UNL     1      12.279   8.414  20.337  0.00  0.00    -0.021 A 
ATOM      8  C   UNL     1      12.027   9.649  21.002  0.00  0.00    +0.008 A 
ATOM      9  C   UNL     1      13.389  10.617  18.462  0.00  0.00    +0.145 C 
ATOM     11  C   UNL     1      12.431  11.010  20.772  0.00  0.00    -0.020 A 
ATOM     12  C   UNL     1      13.300  11.535  19.680  0.00  0.00    +0.065 C 
ATOM     13  C   UNL     1      11.195   9.668  22.127  0.00  0.00    +0.050 A 
ATOM     15  C   UNL     1      11.867  11.781  21.769  0.00  0.00    +0.091 A 
ATOM     16  C   UNL     1      11.596   7.280  20.844  0.00  0.00    +0.006 A 
ATOM     18  C   UNL     1      10.568   8.530  22.640  0.00  0.00    +0.026 A 
ATOM     20  C   UNL     1      10.774   7.333  21.968  0.00  0.00    +0.002 A 
ATOM     31  H   UNL     1      14.741   9.492  19.530  0.00  0.00    +0.123 HD
ENDROOT
BRANCH   9  17
ATOM      1  O   UNL     1      15.292  11.843  17.710  0.00  0.00    -0.274 OA
ATOM      4  N   UNL     1      13.713  11.141  16.149  0.00  0.00    -0.314 N 
ATOM     17  C   UNL     1      14.249  11.263  17.420  0.00  0.00    +0.230 C 
ATOM     32  H   UNL     1      12.842  10.637  16.015  0.00  0.00    +0.149 HD
BRANCH   4  24
ATOM     24  C   UNL     1      14.337  11.698  14.972  0.00  0.00    +0.104 C 
BRANCH  24  25
ATOM     25  C   UNL     1      15.525  10.869  14.496  0.00  0.00    +0.015 C 
ATOM     28  C   UNL     1      16.808  11.682  14.398  0.00  0.00    +0.005 C 
ENDBRANCH  24  25
ENDBRANCH   4  24
ENDBRANCH   9  17
BRANCH   6  10
ATOM     10  C   UNL     1      14.072   7.015  19.175  0.00  0.00    +0.026 C 
BRANCH  10  14
ATOM     14  C   UNL     1      15.425   7.320  19.824  0.00  0.00    -0.015 C 
ATOM     21  C   UNL     1      15.396   7.168  21.346  0.00  0.00    +0.007 C 
ATOM     22  C   UNL     1      16.490   6.394  19.233  0.00  0.00    +0.007 C 
ENDBRANCH  10  14
ENDBRANCH   6  10
BRANCH   3  19
ATOM     19  C   UNL     1      10.387  11.422  23.731  0.00  0.00    +0.158 C 
BRANCH  19  23
ATOM      5  N   UNL     1      13.128  12.614  26.060  0.00  0.00    -0.263 NA
ATOM     23  C   UNL     1      11.189  12.313  24.648  0.00  0.00    -0.010 A 
ATOM     26  C   UNL     1      10.769  13.607  24.937  0.00  0.00    +0.008 A 
ATOM     27  C   UNL     1      12.365  11.868  25.229  0.00  0.00    +0.116 A 
ATOM     29  C   UNL     1      11.527  14.404  25.787  0.00  0.00    +0.020 A 
ATOM     30  C   UNL     1      12.688  13.865  26.317  0.00  0.00    +0.111 A 
ENDBRANCH  19  23
ENDBRANCH   3  19
TORSDOF 7
ENDMDL
MODEL 7
REMARK VINA RESULT:      -6.5     26.653     31.123
REMARK  Name = 51138033
REMARK  10 active torsions:
REMARK  status: ('A' for Active; 'I' for Inactive)
REMARK    1  A    between atoms: N_3  and  C_19
REMARK    2  A    between atoms: N_4  and  C_24
REMARK    3  A    between atoms: C_6  and  C_10
REMARK    4  A    between atoms: C_9  and  C_17
REMARK    5  A    between atoms: C_10  and  C_14
REMARK    6  A    between atoms: C_14  and  C_21
REMARK    7  A    between atoms: C_14  and  C_22
REMARK    8  A    between atoms: C_19  and  C_23
REMARK    9  A    between atoms: C_24  and  C_25
REMARK   10  A    between atoms: C_25  and  C_28
REMARK                            x       y       z     vdW  Elec       q    Type
REMARK                         _______ _______ _______ _____ _____    ______ ____
ROOT
ATOM      2  N   UNL     1      -4.646 -10.522  14.521  0.00  0.00    -0.299 NA
ATOM      3  N   UNL     1      -8.927  -9.697  17.070  0.00  0.00    -0.342 N 
ATOM      6  C   UNL     1      -4.471 -11.187  15.818  0.00  0.00    +0.085 C 
ATOM      7  C   UNL     1      -5.568 -10.929  16.856  0.00  0.00    -0.021 A 
ATOM      8  C   UNL     1      -6.861 -10.403  16.570  0.00  0.00    +0.008 A 
ATOM      9  C   UNL     1      -5.816 -10.954  13.769  0.00  0.00    +0.145 C 
ATOM     11  C   UNL     1      -7.528  -9.991  15.365  0.00  0.00    -0.020 A 
ATOM     12  C   UNL     1      -6.995 -10.004  13.971  0.00  0.00    +0.065 C 
ATOM     13  C   UNL     1      -7.780 -10.228  17.611  0.00  0.00    +0.050 A 
ATOM     15  C   UNL     1      -8.789  -9.557  15.720  0.00  0.00    +0.091 A 
ATOM     16  C   UNL     1      -5.330 -11.305  18.203  0.00  0.00    +0.006 A 
ATOM     18  C   UNL     1      -7.510 -10.561  18.940  0.00  0.00    +0.026 A 
ATOM     20  C   UNL     1      -6.268 -11.118  19.216  0.00  0.00    +0.002 A 
ATOM     31  H   UNL     1      -4.629  -9.508  14.626  0.00  0.00    +0.123 HD
ENDROOT
BRANCH   9  17
ATOM      1  O   UNL     1      -6.208 -11.007  11.416  0.00  0.00    -0.274 OA
ATOM      4  N   UNL     1      -4.023 -10.792  12.191  0.00  0.00    -0.314 N 
ATOM     17  C   UNL     1      -5.395 -10.915  12.332  0.00  0.00    +0.230 C 
ATOM     32  H   UNL     1      -3.436 -10.720  13.016  0.00  0.00    +0.149 HD
BRANCH   4  24
ATOM     24  C   UNL     1      -3.361 -10.755  10.907  0.00  0.00    +0.104 C 
BRANCH  24  25
ATOM     25  C   UNL     1      -3.166  -9.333  10.395  0.00  0.00    +0.015 C 
ATOM     28  C   UNL     1      -4.076  -9.001   9.220  0.00  0.00    +0.005 C 
ENDBRANCH  24  25
ENDBRANCH   4  24
ENDBRANCH   9  17
BRANCH   6  10
ATOM     10  C   UNL     1      -3.082 -10.735  16.303  0.00  0.00    +0.026 C 
BRANCH  10  14
ATOM     14  C   UNL     1      -2.065 -10.600  15.166  0.00  0.00    -0.015 C 
ATOM     21  C   UNL     1      -0.814  -9.823  15.583  0.00  0.00    +0.007 C 
ATOM     22  C   UNL     1      -1.667 -11.994  14.675  0.00  0.00    +0.007 C 
ENDBRANCH  10  14
ENDBRANCH   6  10
BRANCH   3  19
ATOM     19  C   UNL     1     -10.125  -9.353  17.805  0.00  0.00    +0.158 C 
BRANCH  19  23
ATOM      5  N   UNL     1     -13.061  -7.880  15.917  0.00  0.00    -0.263 NA
ATOM     23  C   UNL     1     -11.000  -8.355  17.088  0.00  0.00    -0.010 A 
ATOM     26  C   UNL     1     -10.595  -7.034  16.926  0.00  0.00    +0.008 A 
ATOM     27  C   UNL     1     -12.230  -8.724  16.571  0.00  0.00    +0.116 A 
ATOM     29  C   UNL     1     -11.422  -6.136  16.259  0.00  0.00    +0.020 A 
ATOM     30  C   UNL     1     -12.634  -6.605  15.779  0.00  0.00    +0.111 A 
ENDBRANCH  19  23
ENDBRANCH   3  19
TORSDOF 7
ENDMDL
MODEL 8
REMARK VINA RESULT:      -6.4     18.172     20.147
REMARK  Name = 51138033
REMARK  10 active torsions:
REMARK  status: ('A' for Active; 'I' for Inactive)
REMARK    1  A    between atoms: N_3  and  C_19
REMARK    2  A    between atoms: N_4  and  C_24
REMARK    3  A    between atoms: C_6  and  C_10
REMARK    4  A    between atoms: C_9  and  C_17
REMARK    5  A    between atoms: C_10  and  C_14
REMARK    6  A    between atoms: C_14  and  C_21
REMARK    7  A    between atoms: C_14  and  C_22
REMARK    8  A    between atoms: C_19  and  C_23
REMARK    9  A    between atoms: C_24  and  C_25
REMARK   10  A    between atoms: C_25  and  C_28
REMARK                            x       y       z     vdW  Elec       q    Type
REMARK                         _______ _______ _______ _____ _____    ______ ____
ROOT
ATOM      2  N   UNL     1      11.898   6.235   5.259  0.00  0.00    -0.299 NA
ATOM      3  N   UNL     1      12.581   4.038   0.763  0.00  0.00    -0.342 N 
ATOM      6  C   UNL     1      12.783   7.134   4.507  0.00  0.00    +0.085 C 
ATOM      7  C   UNL     1      13.294   6.602   3.164  0.00  0.00    -0.021 A 
ATOM      8  C   UNL     1      12.736   5.501   2.452  0.00  0.00    +0.008 A 
ATOM      9  C   UNL     1      10.632   5.938   4.603  0.00  0.00    +0.145 C 
ATOM     11  C   UNL     1      11.628   4.615   2.689  0.00  0.00    -0.020 A 
ATOM     12  C   UNL     1      10.689   4.611   3.848  0.00  0.00    +0.065 C 
ATOM     13  C   UNL     1      13.289   5.123   1.223  0.00  0.00    +0.050 A 
ATOM     15  C   UNL     1      11.577   3.729   1.632  0.00  0.00    +0.091 A 
ATOM     16  C   UNL     1      14.357   7.287   2.523  0.00  0.00    +0.006 A 
ATOM     18  C   UNL     1      14.368   5.783   0.630  0.00  0.00    +0.026 A 
ATOM     20  C   UNL     1      14.886   6.884   1.298  0.00  0.00    +0.002 A 
ATOM     31  H   UNL     1      12.386   5.380   5.522  0.00  0.00    +0.123 HD
ENDROOT
BRANCH   9  17
ATOM      1  O   UNL     1       8.429   5.707   5.490  0.00  0.00    -0.274 OA
ATOM      4  N   UNL     1      10.223   5.912   6.961  0.00  0.00    -0.314 N 
ATOM     17  C   UNL     1       9.632   5.831   5.712  0.00  0.00    +0.230 C 
ATOM     32  H   UNL     1      11.231   6.011   7.037  0.00  0.00    +0.149 HD
BRANCH   4  24
ATOM     24  C   UNL     1       9.474   5.858   8.195  0.00  0.00    +0.104 C 
BRANCH  24  25
ATOM     25  C   UNL     1       9.541   4.486   8.857  0.00  0.00    +0.015 C 
ATOM     28  C   UNL     1       9.118   4.517  10.319  0.00  0.00    +0.005 C 
ENDBRANCH  24  25
ENDBRANCH   4  24
ENDBRANCH   9  17
BRANCH   6  10
ATOM     10  C   UNL     1      13.925   7.463   5.485  0.00  0.00    +0.026 C 
BRANCH  10  14
ATOM     14  C   UNL     1      13.867   8.900   6.013  0.00  0.00    -0.015 C 
ATOM     21  C   UNL     1      15.248   9.552   6.099  0.00  0.00    +0.007 C 
ATOM     22  C   UNL     1      12.957   9.734   5.110  0.00  0.00    +0.007 C 
ENDBRANCH  10  14
ENDBRANCH   6  10
BRANCH   3  19
ATOM     19  C   UNL     1      12.835   3.329  -0.472  0.00  0.00    +0.158 C 
BRANCH  19  23
ATOM      5  N   UNL     1       9.777   4.639  -2.285  0.00  0.00    -0.263 NA
ATOM     23  C   UNL     1      11.701   3.429  -1.463  0.00  0.00    -0.010 A 
ATOM     26  C   UNL     1      11.516   2.457  -2.440  0.00  0.00    +0.008 A 
ATOM     27  C   UNL     1      10.813   4.491  -1.428  0.00  0.00    +0.116 A 
ATOM     29  C   UNL     1      10.461   2.574  -3.338  0.00  0.00    +0.020 A 
ATOM     30  C   UNL     1       9.628   3.675  -3.219  0.00  0.00    +0.111 A 
ENDBRANCH  19  23
ENDBRANCH   3  19
TORSDOF 7
ENDMDL
MODEL 9
REMARK VINA RESULT:      -6.4     17.806     19.701
REMARK  Name = 51138033
REMARK  10 active torsions:
REMARK  status: ('A' for Active; 'I' for Inactive)
REMARK    1  A    between atoms: N_3  and  C_19
REMARK    2  A    between atoms: N_4  and  C_24
REMARK    3  A    between atoms: C_6  and  C_10
REMARK    4  A    between atoms: C_9  and  C_17
REMARK    5  A    between atoms: C_10  and  C_14
REMARK    6  A    between atoms: C_14  and  C_21
REMARK    7  A    between atoms: C_14  and  C_22
REMARK    8  A    between atoms: C_19  and  C_23
REMARK    9  A    between atoms: C_24  and  C_25
REMARK   10  A    between atoms: C_25  and  C_28
REMARK                            x       y       z     vdW  Elec       q    Type
REMARK                         _______ _______ _______ _____ _____    ______ ____
ROOT
ATOM      2  N   UNL     1       9.626   7.879   4.916  0.00  0.00    -0.299 NA
ATOM      3  N   UNL     1      11.151   4.531   1.455  0.00  0.00    -0.342 N 
ATOM      6  C   UNL     1       9.086   8.355   3.636  0.00  0.00    +0.085 C 
ATOM      7  C   UNL     1       9.562   7.606   2.388  0.00  0.00    -0.021 A 
ATOM      8  C   UNL     1      10.187   6.325   2.388  0.00  0.00    +0.008 A 
ATOM      9  C   UNL     1       9.242   6.520   5.271  0.00  0.00    +0.145 C 
ATOM     11  C   UNL     1      10.538   5.384   3.417  0.00  0.00    -0.020 A 
ATOM     12  C   UNL     1      10.325   5.513   4.888  0.00  0.00    +0.065 C 
ATOM     13  C   UNL     1      10.563   5.742   1.173  0.00  0.00    +0.050 A 
ATOM     15  C   UNL     1      11.135   4.303   2.800  0.00  0.00    +0.091 A 
ATOM     16  C   UNL     1       9.306   8.177   1.115  0.00  0.00    +0.006 A 
ATOM     18  C   UNL     1      10.344   6.342  -0.069  0.00  0.00    +0.026 A 
ATOM     20  C   UNL     1       9.694   7.569  -0.077  0.00  0.00    +0.002 A 
ATOM     31  H   UNL     1      10.638   7.997   4.950  0.00  0.00    +0.123 HD
ENDROOT
BRANCH   9  17
ATOM      1  O   UNL     1       8.218   7.200   7.316  0.00  0.00    -0.274 OA
ATOM      4  N   UNL     1      10.033   5.744   7.393  0.00  0.00    -0.314 N 
ATOM     17  C   UNL     1       9.087   6.532   6.761  0.00  0.00    +0.230 C 
ATOM     32  H   UNL     1      10.710   5.227   6.840  0.00  0.00    +0.149 HD
BRANCH   4  24
ATOM     24  C   UNL     1      10.114   5.604   8.828  0.00  0.00    +0.104 C 
BRANCH  24  25
ATOM     25  C   UNL     1       9.412   4.348   9.331  0.00  0.00    +0.015 C 
ATOM     28  C   UNL     1       8.558   4.606  10.565  0.00  0.00    +0.005 C 
ENDBRANCH  24  25
ENDBRANCH   4  24
ENDBRANCH   9  17
BRANCH   6  10
ATOM     10  C   UNL     1       9.439   9.852   3.597  0.00  0.00    +0.026 C 
BRANCH  10  14
ATOM     14  C   UNL     1      10.859  10.146   4.092  0.00  0.00    -0.015 C 
ATOM     21  C   UNL     1      11.806  10.547   2.959  0.00  0.00    +0.007 C 
ATOM     22  C   UNL     1      10.809  11.258   5.142  0.00  0.00    +0.007 C 
ENDBRANCH  10  14
ENDBRANCH   6  10
BRANCH   3  19
ATOM     19  C   UNL     1      11.691   3.609   0.481  0.00  0.00    +0.158 C 
BRANCH  19  23
ATOM      5  N   UNL     1      15.026   4.277  -1.189  0.00  0.00    -0.263 NA
ATOM     23  C   UNL     1      13.180   3.755   0.281  0.00  0.00    -0.010 A 
ATOM     26  C   UNL     1      14.069   3.517   1.324  0.00  0.00    +0.008 A 
ATOM     27  C   UNL     1      13.705   4.130  -0.944  0.00  0.00    +0.116 A 
ATOM     29  C   UNL     1      15.436   3.658   1.111  0.00  0.00    +0.020 A 
ATOM     30  C   UNL     1      15.859   4.037  -0.153  0.00  0.00    +0.111 A 
ENDBRANCH  19  23
ENDBRANCH   3  19
TORSDOF 7
ENDMDL
MODEL 10
REMARK VINA RESULT:      -6.2      3.291      8.066
REMARK  Name = 51138033
REMARK  10 active torsions:
REMARK  status: ('A' for Active; 'I' for Inactive)
REMARK    1  A    between atoms: N_3  and  C_19
REMARK    2  A    between atoms: N_4  and  C_24
REMARK    3  A    between atoms: C_6  and  C_10
REMARK    4  A    between atoms: C_9  and  C_17
REMARK    5  A    between atoms: C_10  and  C_14
REMARK    6  A    between atoms: C_14  and  C_21
REMARK    7  A    between atoms: C_14  and  C_22
REMARK    8  A    between atoms: C_19  and  C_23
REMARK    9  A    between atoms: C_24  and  C_25
REMARK   10  A    between atoms: C_25  and  C_28
REMARK                            x       y       z     vdW  Elec       q    Type
REMARK                         _______ _______ _______ _____ _____    ______ ____
ROOT
ATOM      2  N   UNL     1      18.999   8.868  22.411  0.00  0.00    -0.299 NA
ATOM      3  N   UNL     1      14.470   8.999  20.182  0.00  0.00    -0.342 N 
ATOM      6  C   UNL     1      19.046   7.848  21.355  0.00  0.00    +0.085 C 
ATOM      7  C   UNL     1      17.720   7.561  20.644  0.00  0.00    -0.021 A 
ATOM      8  C   UNL     1      16.571   8.403  20.677  0.00  0.00    +0.008 A 
ATOM      9  C   UNL     1      18.661  10.207  21.950  0.00  0.00    +0.145 C 
ATOM     11  C   UNL     1      16.277   9.668  21.294  0.00  0.00    -0.020 A 
ATOM     12  C   UNL     1      17.176  10.507  22.140  0.00  0.00    +0.065 C 
ATOM     13  C   UNL     1      15.423   8.031  19.969  0.00  0.00    +0.050 A 
ATOM     15  C   UNL     1      14.974   9.990  20.971  0.00  0.00    +0.091 A 
ATOM     16  C   UNL     1      17.629   6.411  19.819  0.00  0.00    +0.006 A 
ATOM     18  C   UNL     1      15.336   6.869  19.200  0.00  0.00    +0.026 A 
ATOM     20  C   UNL     1      16.469   6.069  19.126  0.00  0.00    +0.002 A 
ATOM     31  H   UNL     1      18.389   8.575  23.173  0.00  0.00    +0.123 HD
ENDROOT
BRANCH   9  17
ATOM      1  O   UNL     1      20.339  11.858  22.344  0.00  0.00    -0.274 OA
ATOM      4  N   UNL     1      19.114  11.041  24.148  0.00  0.00    -0.314 N 
ATOM     17  C   UNL     1      19.464  11.133  22.812  0.00  0.00    +0.230 C 
ATOM     32  H   UNL     1      18.371  10.410  24.432  0.00  0.00    +0.149 HD
BRANCH   4  24
ATOM     24  C   UNL     1      19.754  11.813  25.187  0.00  0.00    +0.104 C 
BRANCH  24  25
ATOM     25  C   UNL     1      18.850  12.910  25.738  0.00  0.00    +0.015 C 
ATOM     28  C   UNL     1      17.373  12.630  25.499  0.00  0.00    +0.005 C 
ENDBRANCH  24  25
ENDBRANCH   4  24
ENDBRANCH   9  17
BRANCH   6  10
ATOM     10  C   UNL     1      19.629   6.601  22.044  0.00  0.00    +0.026 C 
BRANCH  10  14
ATOM     14  C   UNL     1      20.956   6.144  21.432  0.00  0.00    -0.015 C 
ATOM     21  C   UNL     1      20.830   4.824  20.670  0.00  0.00    +0.007 C 
ATOM     22  C   UNL     1      21.484   7.233  20.496  0.00  0.00    +0.007 C 
ENDBRANCH  10  14
ENDBRANCH   6  10
BRANCH   3  19
ATOM     19  C   UNL     1      13.129   8.995  19.638  0.00  0.00    +0.158 C 
BRANCH  19  23
ATOM      5  N   UNL     1      12.139   8.871  15.983  0.00  0.00    -0.263 NA
ATOM     23  C   UNL     1      13.081   9.315  18.165  0.00  0.00    -0.010 A 
ATOM     26  C   UNL     1      13.894  10.305  17.620  0.00  0.00    +0.008 A 
ATOM     27  C   UNL     1      12.229   8.634  17.312  0.00  0.00    +0.116 A 
ATOM     29  C   UNL     1      13.829  10.577  16.258  0.00  0.00    +0.020 A 
ATOM     30  C   UNL     1      12.943   9.838  15.490  0.00  0.00    +0.111 A 
ENDBRANCH  19  23
ENDBRANCH   3  19
TORSDOF 7
ENDMDL
