MODEL 1
REMARK VINA RESULT:      -6.4      0.000      0.000
REMARK  Name = 75537099
REMARK  3 active torsions:
REMARK  status: ('A' for Active; 'I' for Inactive)
REMARK    1  A    between atoms: N_4  and  C_12
REMARK    2  A    between atoms: N_5  and  C_13
REMARK    3  A    between atoms: C_12  and  C_14
REMARK                            x       y       z     vdW  Elec       q    Type
REMARK                         _______ _______ _______ _____ _____    ______ ____
ROOT
ATOM      2  O   UNL     1      10.542   8.454  19.714  0.00  0.00    -0.252 OA
ATOM      3  N   UNL     1      12.805   7.829  19.723  0.00  0.00    -0.278 N 
ATOM      4  N   UNL     1      15.492   7.708  20.546  0.00  0.00    -0.295 NA
ATOM      5  N   UNL     1      11.858   8.367  17.759  0.00  0.00    -0.287 N 
ATOM      6  C   UNL     1      13.830   7.553  18.738  0.00  0.00    +0.109 C 
ATOM      7  C   UNL     1      15.166   8.153  19.176  0.00  0.00    +0.109 C 
ATOM      8  C   UNL     1      13.258   8.135  17.447  0.00  0.00    +0.132 C 
ATOM      9  C   UNL     1      13.078   7.568  21.121  0.00  0.00    +0.125 C 
ATOM     10  C   UNL     1      14.450   8.133  21.501  0.00  0.00    +0.104 C 
ATOM     11  C   UNL     1      11.599   8.239  19.138  0.00  0.00    +0.305 C 
ATOM     13  C   UNL     1      10.914   8.819  16.761  0.00  0.00    +0.133 C 
ENDROOT
BRANCH   4  12
ATOM     12  C   UNL     1      16.798   8.228  20.952  0.00  0.00    +0.119 C 
BRANCH  12  14
ATOM      1  F   UNL     1      20.855   4.353  20.422  0.00  0.00    -0.205 F 
ATOM     14  C   UNL     1      17.882   7.193  20.810  0.00  0.00    -0.033 A 
ATOM     15  C   UNL     1      17.770   6.195  19.842  0.00  0.00    +0.008 A 
ATOM     16  C   UNL     1      18.997   7.231  21.648  0.00  0.00    +0.008 A 
ATOM     17  C   UNL     1      18.774   5.236  19.711  0.00  0.00    +0.038 A 
ATOM     18  C   UNL     1      20.001   6.272  21.516  0.00  0.00    +0.038 A 
ATOM     19  C   UNL     1      19.889   5.274  20.548  0.00  0.00    +0.123 A 
ENDBRANCH  12  14
ENDBRANCH   4  12
TORSDOF 2
ENDMDL
MODEL 2
REMARK VINA RESULT:      -5.9      1.563      2.151
REMARK  Name = 75537099
REMARK  3 active torsions:
REMARK  status: ('A' for Active; 'I' for Inactive)
REMARK    1  A    between atoms: N_4  and  C_12
REMARK    2  A    between atoms: N_5  and  C_13
REMARK    3  A    between atoms: C_12  and  C_14
REMARK                            x       y       z     vdW  Elec       q    Type
REMARK                         _______ _______ _______ _____ _____    ______ ____
ROOT
ATOM      2  O   UNL     1      10.898   8.090  17.115  0.00  0.00    -0.252 OA
ATOM      3  N   UNL     1      12.971   7.874  18.197  0.00  0.00    -0.278 N 
ATOM      4  N   UNL     1      14.836   7.770  20.300  0.00  0.00    -0.295 NA
ATOM      5  N   UNL     1      12.865   9.140  16.344  0.00  0.00    -0.287 N 
ATOM      6  C   UNL     1      14.344   8.255  17.938  0.00  0.00    +0.109 C 
ATOM      7  C   UNL     1      15.007   8.761  19.219  0.00  0.00    +0.109 C 
ATOM      8  C   UNL     1      14.228   9.292  16.823  0.00  0.00    +0.132 C 
ATOM      9  C   UNL     1      12.673   7.021  19.329  0.00  0.00    +0.125 C 
ATOM     10  C   UNL     1      13.405   7.529  20.574  0.00  0.00    +0.104 C 
ATOM     11  C   UNL     1      12.094   8.333  17.205  0.00  0.00    +0.305 C 
ATOM     13  C   UNL     1      12.367   9.870  15.199  0.00  0.00    +0.133 C 
ENDROOT
BRANCH   4  12
ATOM     12  C   UNL     1      15.519   8.217  21.514  0.00  0.00    +0.119 C 
BRANCH  12  14
ATOM      1  F   UNL     1      21.099   7.525  21.153  0.00  0.00    -0.205 F 
ATOM     14  C   UNL     1      17.010   8.032  21.418  0.00  0.00    -0.033 A 
ATOM     15  C   UNL     1      17.864   9.103  21.684  0.00  0.00    +0.008 A 
ATOM     16  C   UNL     1      17.538   6.791  21.062  0.00  0.00    +0.008 A 
ATOM     17  C   UNL     1      19.245   8.932  21.594  0.00  0.00    +0.038 A 
ATOM     18  C   UNL     1      18.919   6.619  20.973  0.00  0.00    +0.038 A 
ATOM     19  C   UNL     1      19.773   7.691  21.238  0.00  0.00    +0.123 A 
ENDBRANCH  12  14
ENDBRANCH   4  12
TORSDOF 2
ENDMDL
MODEL 3
REMARK VINA RESULT:      -5.8      4.005      7.232
REMARK  Name = 75537099
REMARK  3 active torsions:
REMARK  status: ('A' for Active; 'I' for Inactive)
REMARK    1  A    between atoms: N_4  and  C_12
REMARK    2  A    between atoms: N_5  and  C_13
REMARK    3  A    between atoms: C_12  and  C_14
REMARK                            x       y       z     vdW  Elec       q    Type
REMARK                         _______ _______ _______ _____ _____    ______ ____
ROOT
ATOM      2  O   UNL     1      20.761   6.580  20.467  0.00  0.00    -0.252 OA
ATOM      3  N   UNL     1      18.433   6.872  20.579  0.00  0.00    -0.278 N 
ATOM      4  N   UNL     1      15.757   6.981  19.720  0.00  0.00    -0.295 NA
ATOM      5  N   UNL     1      19.745   8.379  21.605  0.00  0.00    -0.287 N 
ATOM      6  C   UNL     1      17.509   7.748  21.269  0.00  0.00    +0.109 C 
ATOM      7  C   UNL     1      16.378   8.173  20.332  0.00  0.00    +0.109 C 
ATOM      8  C   UNL     1      18.394   8.889  21.765  0.00  0.00    +0.132 C 
ATOM      9  C   UNL     1      17.916   5.752  19.819  0.00  0.00    +0.125 C 
ATOM     10  C   UNL     1      16.747   6.210  18.942  0.00  0.00    +0.104 C 
ATOM     11  C   UNL     1      19.771   7.195  20.840  0.00  0.00    +0.305 C 
ATOM     13  C   UNL     1      20.903   9.114  22.064  0.00  0.00    +0.133 C 
ENDROOT
BRANCH   4  12
ATOM     12  C   UNL     1      14.634   7.373  18.869  0.00  0.00    +0.119 C 
BRANCH  12  14
ATOM      1  F   UNL     1       9.823   7.737  21.780  0.00  0.00    -0.205 F 
ATOM     14  C   UNL     1      13.349   7.471  19.647  0.00  0.00    -0.033 A 
ATOM     15  C   UNL     1      13.130   6.632  20.740  0.00  0.00    +0.008 A 
ATOM     16  C   UNL     1      12.376   8.398  19.274  0.00  0.00    +0.008 A 
ATOM     17  C   UNL     1      11.939   6.722  21.461  0.00  0.00    +0.038 A 
ATOM     18  C   UNL     1      11.185   8.489  19.995  0.00  0.00    +0.038 A 
ATOM     19  C   UNL     1      10.967   7.650  21.088  0.00  0.00    +0.123 A 
ENDBRANCH  12  14
ENDBRANCH   4  12
TORSDOF 2
ENDMDL
MODEL 4
REMARK VINA RESULT:      -5.7      4.310      6.395
REMARK  Name = 75537099
REMARK  3 active torsions:
REMARK  status: ('A' for Active; 'I' for Inactive)
REMARK    1  A    between atoms: N_4  and  C_12
REMARK    2  A    between atoms: N_5  and  C_13
REMARK    3  A    between atoms: C_12  and  C_14
REMARK                            x       y       z     vdW  Elec       q    Type
REMARK                         _______ _______ _______ _____ _____    ______ ____
ROOT
ATOM      2  O   UNL     1      10.900  11.535  25.545  0.00  0.00    -0.252 OA
ATOM      3  N   UNL     1      11.636  10.713  23.472  0.00  0.00    -0.278 N 
ATOM      4  N   UNL     1      12.089   8.882  21.386  0.00  0.00    -0.295 NA
ATOM      5  N   UNL     1      13.029  12.021  24.653  0.00  0.00    -0.287 N 
ATOM      6  C   UNL     1      12.777  10.908  22.602  0.00  0.00    +0.109 C 
ATOM      7  C   UNL     1      13.233   9.573  22.014  0.00  0.00    +0.109 C 
ATOM      8  C   UNL     1      13.802  11.599  23.498  0.00  0.00    +0.132 C 
ATOM      9  C   UNL     1      10.517   9.920  23.007  0.00  0.00    +0.125 C 
ATOM     10  C   UNL     1      11.023   8.621  22.373  0.00  0.00    +0.104 C 
ATOM     11  C   UNL     1      11.745  11.439  24.666  0.00  0.00    +0.305 C 
ATOM     13  C   UNL     1      13.604  12.821  25.712  0.00  0.00    +0.133 C 
ENDROOT
BRANCH   4  12
ATOM     12  C   UNL     1      12.528   7.631  20.767  0.00  0.00    +0.119 C 
BRANCH  12  14
ATOM      1  F   UNL     1      14.210   8.400  15.445  0.00  0.00    -0.205 F 
ATOM     14  C   UNL     1      12.977   7.836  19.345  0.00  0.00    -0.033 A 
ATOM     15  C   UNL     1      14.186   7.293  18.911  0.00  0.00    +0.008 A 
ATOM     16  C   UNL     1      12.185   8.570  18.462  0.00  0.00    +0.008 A 
ATOM     17  C   UNL     1      14.603   7.483  17.594  0.00  0.00    +0.038 A 
ATOM     18  C   UNL     1      12.601   8.760  17.145  0.00  0.00    +0.038 A 
ATOM     19  C   UNL     1      13.811   8.217  16.711  0.00  0.00    +0.123 A 
ENDBRANCH  12  14
ENDBRANCH   4  12
TORSDOF 2
ENDMDL
MODEL 5
REMARK VINA RESULT:      -5.7      5.848      7.889
REMARK  Name = 75537099
REMARK  3 active torsions:
REMARK  status: ('A' for Active; 'I' for Inactive)
REMARK    1  A    between atoms: N_4  and  C_12
REMARK    2  A    between atoms: N_5  and  C_13
REMARK    3  A    between atoms: C_12  and  C_14
REMARK                            x       y       z     vdW  Elec       q    Type
REMARK                         _______ _______ _______ _____ _____    ______ ____
ROOT
ATOM      2  O   UNL     1      12.323   6.573  19.240  0.00  0.00    -0.252 OA
ATOM      3  N   UNL     1      11.856   8.624  20.285  0.00  0.00    -0.278 N 
ATOM      4  N   UNL     1      12.268  11.237  21.239  0.00  0.00    -0.295 NA
ATOM      5  N   UNL     1      11.207   6.734  21.311  0.00  0.00    -0.287 N 
ATOM      6  C   UNL     1      11.109   9.076  21.440  0.00  0.00    +0.109 C 
ATOM      7  C   UNL     1      11.881  10.167  22.181  0.00  0.00    +0.109 C 
ATOM      8  C   UNL     1      10.874   7.798  22.243  0.00  0.00    +0.132 C 
ATOM      9  C   UNL     1      12.412   9.601  19.373  0.00  0.00    +0.125 C 
ATOM     10  C   UNL     1      13.123  10.706  20.159  0.00  0.00    +0.104 C 
ATOM     11  C   UNL     1      11.851   7.228  20.159  0.00  0.00    +0.305 C 
ATOM     13  C   UNL     1      11.016   5.338  21.640  0.00  0.00    +0.133 C 
ENDROOT
BRANCH   4  12
ATOM     12  C   UNL     1      12.956  12.316  21.949  0.00  0.00    +0.119 C 
BRANCH  12  14
ATOM      1  F   UNL     1      10.131  13.928  26.551  0.00  0.00    -0.205 F 
ATOM     14  C   UNL     1      12.201  12.747  23.178  0.00  0.00    -0.033 A 
ATOM     15  C   UNL     1      12.814  12.686  24.430  0.00  0.00    +0.008 A 
ATOM     16  C   UNL     1      10.889  13.206  23.067  0.00  0.00    +0.008 A 
ATOM     17  C   UNL     1      12.115  13.085  25.569  0.00  0.00    +0.038 A 
ATOM     18  C   UNL     1      10.189  13.605  24.206  0.00  0.00    +0.038 A 
ATOM     19  C   UNL     1      10.803  13.544  25.457  0.00  0.00    +0.123 A 
ENDBRANCH  12  14
ENDBRANCH   4  12
TORSDOF 2
ENDMDL
MODEL 6
REMARK VINA RESULT:      -5.4     28.104     29.621
REMARK  Name = 75537099
REMARK  3 active torsions:
REMARK  status: ('A' for Active; 'I' for Inactive)
REMARK    1  A    between atoms: N_4  and  C_12
REMARK    2  A    between atoms: N_5  and  C_13
REMARK    3  A    between atoms: C_12  and  C_14
REMARK                            x       y       z     vdW  Elec       q    Type
REMARK                         _______ _______ _______ _____ _____    ______ ____
ROOT
ATOM      2  O   UNL     1     -12.484  -8.162  13.240  0.00  0.00    -0.252 OA
ATOM      3  N   UNL     1     -10.760  -8.241  14.833  0.00  0.00    -0.278 N 
ATOM      4  N   UNL     1      -9.134  -9.252  16.893  0.00  0.00    -0.295 NA
ATOM      5  N   UNL     1     -11.961  -6.350  14.656  0.00  0.00    -0.287 N 
ATOM      6  C   UNL     1     -10.111  -7.313  15.735  0.00  0.00    +0.109 C 
ATOM      7  C   UNL     1      -9.852  -7.976  17.087  0.00  0.00    +0.109 C 
ATOM      8  C   UNL     1     -11.065  -6.120  15.777  0.00  0.00    +0.132 C 
ATOM      9  C   UNL     1     -10.222  -9.577  14.682  0.00  0.00    +0.125 C 
ATOM     10  C   UNL     1      -9.922 -10.179  16.057  0.00  0.00    +0.104 C 
ATOM     11  C   UNL     1     -11.817  -7.649  14.127  0.00  0.00    +0.305 C 
ATOM     13  C   UNL     1     -12.965  -5.386  14.266  0.00  0.00    +0.133 C 
ENDROOT
BRANCH   4  12
ATOM     12  C   UNL     1      -8.828  -9.866  18.185  0.00  0.00    +0.119 C 
BRANCH  12  14
ATOM      1  F   UNL     1      -3.458 -11.546  18.490  0.00  0.00    -0.205 F 
ATOM     14  C   UNL     1      -7.394 -10.315  18.267  0.00  0.00    -0.033 A 
ATOM     15  C   UNL     1      -6.944 -11.014  19.387  0.00  0.00    +0.008 A 
ATOM     16  C   UNL     1      -6.513 -10.032  17.222  0.00  0.00    +0.008 A 
ATOM     17  C   UNL     1      -5.615 -11.430  19.463  0.00  0.00    +0.038 A 
ATOM     18  C   UNL     1      -5.184 -10.449  17.297  0.00  0.00    +0.038 A 
ATOM     19  C   UNL     1      -4.735 -11.147  18.419  0.00  0.00    +0.123 A 
ENDBRANCH  12  14
ENDBRANCH   4  12
TORSDOF 2
ENDMDL
MODEL 7
REMARK VINA RESULT:      -5.4     26.569     28.542
REMARK  Name = 75537099
REMARK  3 active torsions:
REMARK  status: ('A' for Active; 'I' for Inactive)
REMARK    1  A    between atoms: N_4  and  C_12
REMARK    2  A    between atoms: N_5  and  C_13
REMARK    3  A    between atoms: C_12  and  C_14
REMARK                            x       y       z     vdW  Elec       q    Type
REMARK                         _______ _______ _______ _____ _____    ______ ____
ROOT
ATOM      2  O   UNL     1      -9.480 -11.806  20.447  0.00  0.00    -0.252 OA
ATOM      3  N   UNL     1      -8.067 -11.336  18.632  0.00  0.00    -0.278 N 
ATOM      4  N   UNL     1      -5.703 -10.731  17.234  0.00  0.00    -0.295 NA
ATOM      5  N   UNL     1     -10.067 -10.317  18.716  0.00  0.00    -0.287 N 
ATOM      6  C   UNL     1      -8.156 -10.608  17.383  0.00  0.00    +0.109 C 
ATOM      7  C   UNL     1      -6.867  -9.828  17.128  0.00  0.00    +0.109 C 
ATOM      8  C   UNL     1      -9.405  -9.746  17.555  0.00  0.00    +0.132 C 
ATOM      9  C   UNL     1      -6.892 -12.138  18.903  0.00  0.00    +0.125 C 
ATOM     10  C   UNL     1      -5.627 -11.339  18.577  0.00  0.00    +0.104 C 
ATOM     11  C   UNL     1      -9.237 -11.230  19.396  0.00  0.00    +0.305 C 
ATOM     13  C   UNL     1     -11.363  -9.857  19.163  0.00  0.00    +0.133 C 
ENDROOT
BRANCH   4  12
ATOM     12  C   UNL     1      -4.468 -10.006  16.932  0.00  0.00    +0.119 C 
BRANCH  12  14
ATOM      1  F   UNL     1      -1.038 -13.001  13.612  0.00  0.00    -0.205 F 
ATOM     14  C   UNL     1      -3.552 -10.807  16.045  0.00  0.00    -0.033 A 
ATOM     15  C   UNL     1      -2.185 -10.531  16.026  0.00  0.00    +0.008 A 
ATOM     16  C   UNL     1      -4.069 -11.823  15.243  0.00  0.00    +0.008 A 
ATOM     17  C   UNL     1      -1.335 -11.271  15.204  0.00  0.00    +0.038 A 
ATOM     18  C   UNL     1      -3.220 -12.565  14.421  0.00  0.00    +0.038 A 
ATOM     19  C   UNL     1      -1.853 -12.288  14.401  0.00  0.00    +0.123 A 
ENDBRANCH  12  14
ENDBRANCH   4  12
TORSDOF 2
ENDMDL
MODEL 8
REMARK VINA RESULT:      -5.3     27.597     30.157
REMARK  Name = 75537099
REMARK  3 active torsions:
REMARK  status: ('A' for Active; 'I' for Inactive)
REMARK    1  A    between atoms: N_4  and  C_12
REMARK    2  A    between atoms: N_5  and  C_13
REMARK    3  A    between atoms: C_12  and  C_14
REMARK                            x       y       z     vdW  Elec       q    Type
REMARK                         _______ _______ _______ _____ _____    ______ ____
ROOT
ATOM      2  O   UNL     1     -18.463   4.245  22.386  0.00  0.00    -0.252 OA
ATOM      3  N   UNL     1     -16.316   5.162  22.649  0.00  0.00    -0.278 N 
ATOM      4  N   UNL     1     -13.789   6.173  21.941  0.00  0.00    -0.295 NA
ATOM      5  N   UNL     1     -16.938   3.495  24.021  0.00  0.00    -0.287 N 
ATOM      6  C   UNL     1     -15.221   5.038  23.589  0.00  0.00    +0.109 C 
ATOM      7  C   UNL     1     -13.884   5.012  22.849  0.00  0.00    +0.109 C 
ATOM      8  C   UNL     1     -15.551   3.763  24.363  0.00  0.00    +0.132 C 
ATOM      9  C   UNL     1     -16.254   6.176  21.618  0.00  0.00    +0.125 C 
ATOM     10  C   UNL     1     -14.879   6.155  20.945  0.00  0.00    +0.104 C 
ATOM     11  C   UNL     1     -17.378   4.298  22.950  0.00  0.00    +0.305 C 
ATOM     13  C   UNL     1     -17.686   2.421  24.635  0.00  0.00    +0.133 C 
ENDROOT
BRANCH   4  12
ATOM     12  C   UNL     1     -12.488   6.191  21.273  0.00  0.00    +0.119 C 
BRANCH  12  14
ATOM      1  F   UNL     1     -11.111  11.361  19.503  0.00  0.00    -0.205 F 
ATOM     14  C   UNL     1     -12.120   7.572  20.800  0.00  0.00    -0.033 A 
ATOM     15  C   UNL     1     -11.258   7.731  19.715  0.00  0.00    +0.008 A 
ATOM     16  C   UNL     1     -12.641   8.693  21.446  0.00  0.00    +0.008 A 
ATOM     17  C   UNL     1     -10.916   9.011  19.277  0.00  0.00    +0.038 A 
ATOM     18  C   UNL     1     -12.300   9.973  21.008  0.00  0.00    +0.038 A 
ATOM     19  C   UNL     1     -11.437  10.132  19.924  0.00  0.00    +0.123 A 
ENDBRANCH  12  14
ENDBRANCH   4  12
TORSDOF 2
ENDMDL
MODEL 9
REMARK VINA RESULT:      -5.3     27.413     28.298
REMARK  Name = 75537099
REMARK  3 active torsions:
REMARK  status: ('A' for Active; 'I' for Inactive)
REMARK    1  A    between atoms: N_4  and  C_12
REMARK    2  A    between atoms: N_5  and  C_13
REMARK    3  A    between atoms: C_12  and  C_14
REMARK                            x       y       z     vdW  Elec       q    Type
REMARK                         _______ _______ _______ _____ _____    ______ ____
ROOT
ATOM      2  O   UNL     1      -6.629  -8.707  10.740  0.00  0.00    -0.252 OA
ATOM      3  N   UNL     1      -5.531  -9.995  12.368  0.00  0.00    -0.278 N 
ATOM      4  N   UNL     1      -4.650 -10.819  14.909  0.00  0.00    -0.295 NA
ATOM      5  N   UNL     1      -4.419  -9.490  10.482  0.00  0.00    -0.287 N 
ATOM      6  C   UNL     1      -4.281 -10.719  12.478  0.00  0.00    +0.109 C 
ATOM      7  C   UNL     1      -3.661 -10.505  13.858  0.00  0.00    +0.109 C 
ATOM      8  C   UNL     1      -3.451 -10.188  11.311  0.00  0.00    +0.132 C 
ATOM      9  C   UNL     1      -6.515 -10.115  13.423  0.00  0.00    +0.125 C 
ATOM     10  C   UNL     1      -5.841  -9.954  14.788  0.00  0.00    +0.104 C 
ATOM     11  C   UNL     1      -5.652  -9.323  11.144  0.00  0.00    +0.305 C 
ATOM     13  C   UNL     1      -4.064  -8.922   9.201  0.00  0.00    +0.133 C 
ENDROOT
BRANCH   4  12
ATOM     12  C   UNL     1      -4.048 -10.675  16.234  0.00  0.00    +0.119 C 
BRANCH  12  14
ATOM      1  F   UNL     1      -7.456 -12.569  20.302  0.00  0.00    -0.205 F 
ATOM     14  C   UNL     1      -4.958 -11.181  17.321  0.00  0.00    -0.033 A 
ATOM     15  C   UNL     1      -5.472 -12.476  17.254  0.00  0.00    +0.008 A 
ATOM     16  C   UNL     1      -5.288 -10.355  18.396  0.00  0.00    +0.008 A 
ATOM     17  C   UNL     1      -6.315 -12.945  18.260  0.00  0.00    +0.038 A 
ATOM     18  C   UNL     1      -6.132 -10.824  19.403  0.00  0.00    +0.038 A 
ATOM     19  C   UNL     1      -6.646 -12.119  19.334  0.00  0.00    +0.123 A 
ENDBRANCH  12  14
ENDBRANCH   4  12
TORSDOF 2
ENDMDL
MODEL 10
REMARK VINA RESULT:      -5.3     26.164     27.773
REMARK  Name = 75537099
REMARK  3 active torsions:
REMARK  status: ('A' for Active; 'I' for Inactive)
REMARK    1  A    between atoms: N_4  and  C_12
REMARK    2  A    between atoms: N_5  and  C_13
REMARK    3  A    between atoms: C_12  and  C_14
REMARK                            x       y       z     vdW  Elec       q    Type
REMARK                         _______ _______ _______ _____ _____    ______ ____
ROOT
ATOM      2  O   UNL     1     -11.533  11.865  14.261  0.00  0.00    -0.252 OA
ATOM      3  N   UNL     1     -11.128  10.971  16.395  0.00  0.00    -0.278 N 
ATOM      4  N   UNL     1     -11.666   9.994  18.977  0.00  0.00    -0.295 NA
ATOM      5  N   UNL     1      -9.790  12.619  15.659  0.00  0.00    -0.287 N 
ATOM      6  C   UNL     1     -10.113  11.100  17.420  0.00  0.00    +0.109 C 
ATOM      7  C   UNL     1     -10.758  11.147  18.805  0.00  0.00    +0.109 C 
ATOM      8  C   UNL     1      -9.354  12.364  17.022  0.00  0.00    +0.132 C 
ATOM      9  C   UNL     1     -12.160   9.966  16.541  0.00  0.00    +0.125 C 
ATOM     10  C   UNL     1     -12.735  10.008  17.959  0.00  0.00    +0.104 C 
ATOM     11  C   UNL     1     -10.895  11.820  15.304  0.00  0.00    +0.305 C 
ATOM     13  C   UNL     1      -9.222  13.680  14.858  0.00  0.00    +0.133 C 
ENDROOT
BRANCH   4  12
ATOM     12  C   UNL     1     -12.242   9.996  20.321  0.00  0.00    +0.119 C 
BRANCH  12  14
ATOM      1  F   UNL     1     -13.497   4.790  22.074  0.00  0.00    -0.205 F 
ATOM     14  C   UNL     1     -12.577   8.606  20.789  0.00  0.00    -0.033 A 
ATOM     15  C   UNL     1     -13.802   8.354  21.407  0.00  0.00    +0.008 A 
ATOM     16  C   UNL     1     -11.663   7.568  20.606  0.00  0.00    +0.008 A 
ATOM     17  C   UNL     1     -14.113   7.066  21.841  0.00  0.00    +0.038 A 
ATOM     18  C   UNL     1     -11.974   6.279  21.040  0.00  0.00    +0.038 A 
ATOM     19  C   UNL     1     -13.199   6.028  21.658  0.00  0.00    +0.123 A 
ENDBRANCH  12  14
ENDBRANCH   4  12
TORSDOF 2
ENDMDL
