MODEL 1
REMARK VINA RESULT:      -6.5      0.000      0.000
REMARK  Name = 86769012
REMARK  2 active torsions:
REMARK  status: ('A' for Active; 'I' for Inactive)
REMARK    1  A    between atoms: N_6  and  C_14
REMARK    2  A    between atoms: C_14  and  C_15
REMARK                            x       y       z     vdW  Elec       q    Type
REMARK                         _______ _______ _______ _____ _____    ______ ____
ROOT
ATOM      1  O   UNL     1      -6.734 -11.493  20.432  0.00  0.00    -0.253 OA
ATOM      2  O   UNL     1      -2.333 -11.735  15.087  0.00  0.00    -0.253 OA
ATOM      3  N   UNL     1      -5.865 -11.148  18.271  0.00  0.00    -0.278 N 
ATOM      4  N   UNL     1      -3.980 -10.636  16.292  0.00  0.00    -0.282 N 
ATOM      5  N   UNL     1      -7.760 -10.091  18.854  0.00  0.00    -0.297 N 
ATOM      6  N   UNL     1      -3.801 -10.393  13.947  0.00  0.00    -0.295 N 
ATOM      7  C   UNL     1      -6.304 -10.480  17.058  0.00  0.00    +0.112 C 
ATOM      8  C   UNL     1      -5.139  -9.728  16.421  0.00  0.00    +0.133 C 
ATOM      9  C   UNL     1      -7.455  -9.597  17.531  0.00  0.00    +0.129 C 
ATOM     10  C   UNL     1      -4.664 -11.965  18.256  0.00  0.00    +0.128 C 
ATOM     11  C   UNL     1      -3.526 -11.208  17.571  0.00  0.00    +0.128 C 
ATOM     12  C   UNL     1      -6.776 -10.982  19.321  0.00  0.00    +0.303 C 
ATOM     13  C   UNL     1      -3.305 -10.972  15.108  0.00  0.00    +0.303 C 
ATOM     21  H   UNL     1      -8.545  -9.774  19.416  0.00  0.00    +0.150 HD
ATOM     22  H   UNL     1      -4.628  -9.814  13.953  0.00  0.00    +0.151 HD
ENDROOT
BRANCH   6  14
ATOM     14  C   UNL     1      -3.211 -10.649  12.652  0.00  0.00    +0.141 C 
BRANCH  14  15
ATOM     15  C   UNL     1      -3.922  -9.910  11.555  0.00  0.00    -0.030 A 
ATOM     16  C   UNL     1      -5.246  -9.508  11.730  0.00  0.00    +0.005 A 
ATOM     17  C   UNL     1      -3.258  -9.624  10.362  0.00  0.00    +0.005 A 
ATOM     18  C   UNL     1      -5.907  -8.821  10.711  0.00  0.00    +0.000 A 
ATOM     19  C   UNL     1      -3.919  -8.938   9.344  0.00  0.00    +0.000 A 
ATOM     20  C   UNL     1      -5.243  -8.536   9.518  0.00  0.00    +0.000 A 
ENDBRANCH  14  15
ENDBRANCH   6  14
TORSDOF 2
ENDMDL
MODEL 2
REMARK VINA RESULT:      -6.1      2.603      7.489
REMARK  Name = 86769012
REMARK  2 active torsions:
REMARK  status: ('A' for Active; 'I' for Inactive)
REMARK    1  A    between atoms: N_6  and  C_14
REMARK    2  A    between atoms: C_14  and  C_15
REMARK                            x       y       z     vdW  Elec       q    Type
REMARK                         _______ _______ _______ _____ _____    ______ ____
ROOT
ATOM      1  O   UNL     1      -4.471 -10.769   7.654  0.00  0.00    -0.253 OA
ATOM      2  O   UNL     1      -3.349 -12.694  14.214  0.00  0.00    -0.253 OA
ATOM      3  N   UNL     1      -4.176 -10.601   9.984  0.00  0.00    -0.278 N 
ATOM      4  N   UNL     1      -4.361 -11.291  12.672  0.00  0.00    -0.282 N 
ATOM      5  N   UNL     1      -4.849  -8.784   8.847  0.00  0.00    -0.297 N 
ATOM      6  N   UNL     1      -3.728 -10.514  14.813  0.00  0.00    -0.295 N 
ATOM      7  C   UNL     1      -4.194  -9.534  10.970  0.00  0.00    +0.112 C 
ATOM      8  C   UNL     1      -4.918  -9.995  12.231  0.00  0.00    +0.133 C 
ATOM      9  C   UNL     1      -4.862  -8.377  10.233  0.00  0.00    +0.129 C 
ATOM     10  C   UNL     1      -3.754 -11.937  10.368  0.00  0.00    +0.128 C 
ATOM     11  C   UNL     1      -4.457 -12.356  11.659  0.00  0.00    +0.128 C 
ATOM     12  C   UNL     1      -4.490 -10.137   8.702  0.00  0.00    +0.303 C 
ATOM     13  C   UNL     1      -3.784 -11.576  13.919  0.00  0.00    +0.303 C 
ATOM     21  H   UNL     1      -5.143  -8.194   8.075  0.00  0.00    +0.150 HD
ATOM     22  H   UNL     1      -4.032  -9.586  14.556  0.00  0.00    +0.151 HD
ENDROOT
BRANCH   6  14
ATOM     14  C   UNL     1      -3.158 -10.656  16.135  0.00  0.00    +0.141 C 
BRANCH  14  15
ATOM     15  C   UNL     1      -4.216 -10.824  17.187  0.00  0.00    -0.030 A 
ATOM     16  C   UNL     1      -3.947 -11.576  18.331  0.00  0.00    +0.005 A 
ATOM     17  C   UNL     1      -5.466 -10.228  17.022  0.00  0.00    +0.005 A 
ATOM     18  C   UNL     1      -4.929 -11.731  19.310  0.00  0.00    +0.000 A 
ATOM     19  C   UNL     1      -6.447 -10.385  17.999  0.00  0.00    +0.000 A 
ATOM     20  C   UNL     1      -6.179 -11.136  19.144  0.00  0.00    +0.000 A 
ENDBRANCH  14  15
ENDBRANCH   6  14
TORSDOF 2
ENDMDL
MODEL 3
REMARK VINA RESULT:      -6.0      2.724      7.303
REMARK  Name = 86769012
REMARK  2 active torsions:
REMARK  status: ('A' for Active; 'I' for Inactive)
REMARK    1  A    between atoms: N_6  and  C_14
REMARK    2  A    between atoms: C_14  and  C_15
REMARK                            x       y       z     vdW  Elec       q    Type
REMARK                         _______ _______ _______ _____ _____    ______ ____
ROOT
ATOM      1  O   UNL     1      -4.807  -9.447   8.096  0.00  0.00    -0.253 OA
ATOM      2  O   UNL     1      -1.475  -9.946  14.149  0.00  0.00    -0.253 OA
ATOM      3  N   UNL     1      -4.433  -9.875  10.380  0.00  0.00    -0.278 N 
ATOM      4  N   UNL     1      -3.092 -10.704  12.671  0.00  0.00    -0.282 N 
ATOM      5  N   UNL     1      -6.387 -10.507   9.468  0.00  0.00    -0.297 N 
ATOM      6  N   UNL     1      -3.387 -10.870  15.011  0.00  0.00    -0.295 N 
ATOM      7  C   UNL     1      -5.219 -10.371  11.497  0.00  0.00    +0.112 C 
ATOM      8  C   UNL     1      -4.388 -11.333  12.339  0.00  0.00    +0.133 C 
ATOM      9  C   UNL     1      -6.440 -10.994  10.828  0.00  0.00    +0.129 C 
ATOM     10  C   UNL     1      -3.098  -9.349  10.608  0.00  0.00    +0.128 C 
ATOM     11  C   UNL     1      -2.303 -10.308  11.493  0.00  0.00    +0.128 C 
ATOM     12  C   UNL     1      -5.159  -9.882   9.183  0.00  0.00    +0.303 C 
ATOM     13  C   UNL     1      -2.577 -10.472  13.955  0.00  0.00    +0.303 C 
ATOM     21  H   UNL     1      -7.112 -10.666   8.776  0.00  0.00    +0.150 HD
ATOM     22  H   UNL     1      -4.311 -11.249  14.858  0.00  0.00    +0.151 HD
ENDROOT
BRANCH   6  14
ATOM     14  C   UNL     1      -2.991 -10.692  16.390  0.00  0.00    +0.141 C 
BRANCH  14  15
ATOM     15  C   UNL     1      -4.152 -10.839  17.332  0.00  0.00    -0.030 A 
ATOM     16  C   UNL     1      -4.036 -11.656  18.457  0.00  0.00    +0.005 A 
ATOM     17  C   UNL     1      -5.344 -10.161  17.081  0.00  0.00    +0.005 A 
ATOM     18  C   UNL     1      -5.114 -11.793  19.332  0.00  0.00    +0.000 A 
ATOM     19  C   UNL     1      -6.422 -10.299  17.956  0.00  0.00    +0.000 A 
ATOM     20  C   UNL     1      -6.307 -11.115  19.081  0.00  0.00    +0.000 A 
ENDBRANCH  14  15
ENDBRANCH   6  14
TORSDOF 2
ENDMDL
MODEL 4
REMARK VINA RESULT:      -5.9     27.895     29.251
REMARK  Name = 86769012
REMARK  2 active torsions:
REMARK  status: ('A' for Active; 'I' for Inactive)
REMARK    1  A    between atoms: N_6  and  C_14
REMARK    2  A    between atoms: C_14  and  C_15
REMARK                            x       y       z     vdW  Elec       q    Type
REMARK                         _______ _______ _______ _____ _____    ______ ____
ROOT
ATOM      1  O   UNL     1      15.208  13.673  14.263  0.00  0.00    -0.253 OA
ATOM      2  O   UNL     1      13.933   7.393  16.893  0.00  0.00    -0.253 OA
ATOM      3  N   UNL     1      15.007  11.944  15.847  0.00  0.00    -0.278 N 
ATOM      4  N   UNL     1      13.953   9.700  17.108  0.00  0.00    -0.282 N 
ATOM      5  N   UNL     1      15.402  14.033  16.574  0.00  0.00    -0.297 N 
ATOM      6  N   UNL     1      14.340   8.287  18.964  0.00  0.00    -0.295 N 
ATOM      7  C   UNL     1      15.197  11.806  17.281  0.00  0.00    +0.112 C 
ATOM      8  C   UNL     1      14.082  10.954  17.880  0.00  0.00    +0.133 C 
ATOM      9  C   UNL     1      15.239  13.248  17.777  0.00  0.00    +0.129 C 
ATOM     10  C   UNL     1      14.754  10.768  15.032  0.00  0.00    +0.128 C 
ATOM     11  C   UNL     1      13.669   9.908  15.678  0.00  0.00    +0.128 C 
ATOM     12  C   UNL     1      15.208  13.259  15.414  0.00  0.00    +0.303 C 
ATOM     13  C   UNL     1      14.065   8.393  17.606  0.00  0.00    +0.303 C 
ATOM     21  H   UNL     1      15.555  15.036  16.562  0.00  0.00    +0.150 HD
ATOM     22  H   UNL     1      14.503   9.102  19.538  0.00  0.00    +0.151 HD
ENDROOT
BRANCH   6  14
ATOM     14  C   UNL     1      14.487   7.006  19.617  0.00  0.00    +0.141 C 
BRANCH  14  15
ATOM     15  C   UNL     1      15.928   6.659  19.856  0.00  0.00    -0.030 A 
ATOM     16  C   UNL     1      16.644   5.953  18.890  0.00  0.00    +0.005 A 
ATOM     17  C   UNL     1      16.551   7.043  21.043  0.00  0.00    +0.005 A 
ATOM     18  C   UNL     1      17.984   5.631  19.111  0.00  0.00    +0.000 A 
ATOM     19  C   UNL     1      17.889   6.720  21.265  0.00  0.00    +0.000 A 
ATOM     20  C   UNL     1      18.606   6.015  20.299  0.00  0.00    +0.000 A 
ENDBRANCH  14  15
ENDBRANCH   6  14
TORSDOF 2
ENDMDL
MODEL 5
REMARK VINA RESULT:      -5.8     16.652     19.184
REMARK  Name = 86769012
REMARK  2 active torsions:
REMARK  status: ('A' for Active; 'I' for Inactive)
REMARK    1  A    between atoms: N_6  and  C_14
REMARK    2  A    between atoms: C_14  and  C_15
REMARK                            x       y       z     vdW  Elec       q    Type
REMARK                         _______ _______ _______ _____ _____    ______ ____
ROOT
ATOM      1  O   UNL     1       4.891 -16.641   3.253  0.00  0.00    -0.253 OA
ATOM      2  O   UNL     1       0.197 -13.481  -0.744  0.00  0.00    -0.253 OA
ATOM      3  N   UNL     1       3.935 -15.616   1.363  0.00  0.00    -0.278 N 
ATOM      4  N   UNL     1       1.989 -14.931  -0.504  0.00  0.00    -0.282 N 
ATOM      5  N   UNL     1       5.936 -16.614   1.153  0.00  0.00    -0.297 N 
ATOM      6  N   UNL     1       1.702 -13.644  -2.466  0.00  0.00    -0.295 N 
ATOM      7  C   UNL     1       4.357 -15.315   0.005  0.00  0.00    +0.112 C 
ATOM      8  C   UNL     1       3.222 -15.597  -0.974  0.00  0.00    +0.133 C 
ATOM      9  C   UNL     1       5.598 -16.181  -0.184  0.00  0.00    +0.129 C 
ATOM     10  C   UNL     1       2.673 -15.096   1.862  0.00  0.00    +0.128 C 
ATOM     11  C   UNL     1       1.563 -15.349   0.842  0.00  0.00    +0.128 C 
ATOM     12  C   UNL     1       4.911 -16.323   2.072  0.00  0.00    +0.303 C 
ATOM     13  C   UNL     1       1.226 -13.986  -1.206  0.00  0.00    +0.303 C 
ATOM     21  H   UNL     1       6.773 -17.139   1.390  0.00  0.00    +0.150 HD
ATOM     22  H   UNL     1       2.571 -14.013  -2.824  0.00  0.00    +0.151 HD
ENDROOT
BRANCH   6  14
ATOM     14  C   UNL     1       1.023 -12.682  -3.305  0.00  0.00    +0.141 C 
BRANCH  14  15
ATOM     15  C   UNL     1       1.587 -12.654  -4.697  0.00  0.00    -0.030 A 
ATOM     16  C   UNL     1       2.624 -13.519  -5.046  0.00  0.00    +0.005 A 
ATOM     17  C   UNL     1       1.074 -11.763  -5.640  0.00  0.00    +0.005 A 
ATOM     18  C   UNL     1       3.147 -13.494  -6.339  0.00  0.00    +0.000 A 
ATOM     19  C   UNL     1       1.598 -11.737  -6.931  0.00  0.00    +0.000 A 
ATOM     20  C   UNL     1       2.635 -12.602  -7.281  0.00  0.00    +0.000 A 
ENDBRANCH  14  15
ENDBRANCH   6  14
TORSDOF 2
ENDMDL
MODEL 6
REMARK VINA RESULT:      -5.7      4.536      7.362
REMARK  Name = 86769012
REMARK  2 active torsions:
REMARK  status: ('A' for Active; 'I' for Inactive)
REMARK    1  A    between atoms: N_6  and  C_14
REMARK    2  A    between atoms: C_14  and  C_15
REMARK                            x       y       z     vdW  Elec       q    Type
REMARK                         _______ _______ _______ _____ _____    ______ ____
ROOT
ATOM      1  O   UNL     1     -13.764  -7.306  13.894  0.00  0.00    -0.253 OA
ATOM      2  O   UNL     1      -7.851 -10.824  14.698  0.00  0.00    -0.253 OA
ATOM      3  N   UNL     1     -11.590  -7.828  14.629  0.00  0.00    -0.278 N 
ATOM      4  N   UNL     1      -9.466  -9.384  15.527  0.00  0.00    -0.282 N 
ATOM      5  N   UNL     1     -12.631  -6.046  15.517  0.00  0.00    -0.297 N 
ATOM      6  N   UNL     1      -7.200  -9.197  16.174  0.00  0.00    -0.295 N 
ATOM      7  C   UNL     1     -10.594  -7.207  15.484  0.00  0.00    +0.112 C 
ATOM      8  C   UNL     1      -9.927  -8.258  16.366  0.00  0.00    +0.133 C 
ATOM      9  C   UNL     1     -11.383  -6.142  16.240  0.00  0.00    +0.129 C 
ATOM     10  C   UNL     1     -11.250  -9.014  13.861  0.00  0.00    +0.128 C 
ATOM     11  C   UNL     1     -10.541 -10.031  14.756  0.00  0.00    +0.128 C 
ATOM     12  C   UNL     1     -12.779  -7.092  14.587  0.00  0.00    +0.303 C 
ATOM     13  C   UNL     1      -8.153  -9.867  15.418  0.00  0.00    +0.303 C 
ATOM     21  H   UNL     1     -13.352  -5.358  15.711  0.00  0.00    +0.150 HD
ATOM     22  H   UNL     1      -7.433  -8.380  16.721  0.00  0.00    +0.151 HD
ENDROOT
BRANCH   6  14
ATOM     14  C   UNL     1      -5.805  -9.578  16.161  0.00  0.00    +0.141 C 
BRANCH  14  15
ATOM     15  C   UNL     1      -5.429 -10.371  17.379  0.00  0.00    -0.030 A 
ATOM     16  C   UNL     1      -4.249 -11.116  17.389  0.00  0.00    +0.005 A 
ATOM     17  C   UNL     1      -6.257 -10.364  18.501  0.00  0.00    +0.005 A 
ATOM     18  C   UNL     1      -3.898 -11.852  18.521  0.00  0.00    +0.000 A 
ATOM     19  C   UNL     1      -5.908 -11.101  19.631  0.00  0.00    +0.000 A 
ATOM     20  C   UNL     1      -4.728 -11.845  19.642  0.00  0.00    +0.000 A 
ENDBRANCH  14  15
ENDBRANCH   6  14
TORSDOF 2
ENDMDL
MODEL 7
REMARK VINA RESULT:      -5.7     22.592     24.821
REMARK  Name = 86769012
REMARK  2 active torsions:
REMARK  status: ('A' for Active; 'I' for Inactive)
REMARK    1  A    between atoms: N_6  and  C_14
REMARK    2  A    between atoms: C_14  and  C_15
REMARK                            x       y       z     vdW  Elec       q    Type
REMARK                         _______ _______ _______ _____ _____    ______ ____
ROOT
ATOM      1  O   UNL     1      10.066   3.954   8.442  0.00  0.00    -0.253 OA
ATOM      2  O   UNL     1       9.648   6.576   2.043  0.00  0.00    -0.253 OA
ATOM      3  N   UNL     1       9.545   5.448   6.699  0.00  0.00    -0.278 N 
ATOM      4  N   UNL     1       9.861   6.873   4.331  0.00  0.00    -0.282 N 
ATOM      5  N   UNL     1       9.219   6.109   8.821  0.00  0.00    -0.297 N 
ATOM      6  N   UNL     1       8.743   8.461   2.982  0.00  0.00    -0.295 N 
ATOM      7  C   UNL     1       8.907   6.749   6.587  0.00  0.00    +0.112 C 
ATOM      8  C   UNL     1       9.663   7.622   5.591  0.00  0.00    +0.133 C 
ATOM      9  C   UNL     1       8.901   7.269   8.021  0.00  0.00    +0.129 C 
ATOM     10  C   UNL     1       9.882   4.699   5.500  0.00  0.00    +0.128 C 
ATOM     11  C   UNL     1      10.595   5.608   4.500  0.00  0.00    +0.128 C 
ATOM     12  C   UNL     1       9.658   5.032   8.030  0.00  0.00    +0.303 C 
ATOM     13  C   UNL     1       9.433   7.257   3.051  0.00  0.00    +0.303 C 
ATOM     21  H   UNL     1       9.207   6.094   9.836  0.00  0.00    +0.150 HD
ATOM     22  H   UNL     1       8.517   8.992   3.811  0.00  0.00    +0.151 HD
ENDROOT
BRANCH   6  14
ATOM     14  C   UNL     1       8.238   8.983   1.732  0.00  0.00    +0.141 C 
BRANCH  14  15
ATOM     15  C   UNL     1       6.831   9.493   1.864  0.00  0.00    -0.030 A 
ATOM     16  C   UNL     1       5.995   9.525   0.748  0.00  0.00    +0.005 A 
ATOM     17  C   UNL     1       6.361   9.933   3.101  0.00  0.00    +0.005 A 
ATOM     18  C   UNL     1       4.688   9.998   0.869  0.00  0.00    +0.000 A 
ATOM     19  C   UNL     1       5.056  10.407   3.222  0.00  0.00    +0.000 A 
ATOM     20  C   UNL     1       4.219  10.440   2.107  0.00  0.00    +0.000 A 
ENDBRANCH  14  15
ENDBRANCH   6  14
TORSDOF 2
ENDMDL
MODEL 8
REMARK VINA RESULT:      -5.6      2.534      6.660
REMARK  Name = 86769012
REMARK  2 active torsions:
REMARK  status: ('A' for Active; 'I' for Inactive)
REMARK    1  A    between atoms: N_6  and  C_14
REMARK    2  A    between atoms: C_14  and  C_15
REMARK                            x       y       z     vdW  Elec       q    Type
REMARK                         _______ _______ _______ _____ _____    ______ ____
ROOT
ATOM      1  O   UNL     1      -1.519 -11.037  15.981  0.00  0.00    -0.253 OA
ATOM      2  O   UNL     1      -7.314 -11.275  19.770  0.00  0.00    -0.253 OA
ATOM      3  N   UNL     1      -3.793 -10.824  16.551  0.00  0.00    -0.278 N 
ATOM      4  N   UNL     1      -6.236 -11.449  17.726  0.00  0.00    -0.282 N 
ATOM      5  N   UNL     1      -3.185 -10.529  14.408  0.00  0.00    -0.297 N 
ATOM      6  N   UNL     1      -8.454 -10.646  17.884  0.00  0.00    -0.295 N 
ATOM      7  C   UNL     1      -5.010 -10.405  15.876  0.00  0.00    +0.112 C 
ATOM      8  C   UNL     1      -6.166 -11.326  16.254  0.00  0.00    +0.133 C 
ATOM      9  C   UNL     1      -4.627 -10.428  14.400  0.00  0.00    +0.129 C 
ATOM     10  C   UNL     1      -3.808 -11.082  17.981  0.00  0.00    +0.128 C 
ATOM     11  C   UNL     1      -5.001 -11.966  18.340  0.00  0.00    +0.128 C 
ATOM     12  C   UNL     1      -2.689 -10.821  15.692  0.00  0.00    +0.303 C 
ATOM     13  C   UNL     1      -7.333 -11.134  18.542  0.00  0.00    +0.303 C 
ATOM     21  H   UNL     1      -2.604 -10.478  13.578  0.00  0.00    +0.150 HD
ATOM     22  H   UNL     1      -8.454 -10.478  16.888  0.00  0.00    +0.151 HD
ENDROOT
BRANCH   6  14
ATOM     14  C   UNL     1      -9.659 -10.277  18.593  0.00  0.00    +0.141 C 
BRANCH  14  15
ATOM     15  C   UNL     1     -10.477  -9.278  17.827  0.00  0.00    -0.030 A 
ATOM     16  C   UNL     1     -11.823  -9.536  17.563  0.00  0.00    +0.005 A 
ATOM     17  C   UNL     1      -9.894  -8.093  17.381  0.00  0.00    +0.005 A 
ATOM     18  C   UNL     1     -12.584  -8.608  16.852  0.00  0.00    +0.000 A 
ATOM     19  C   UNL     1     -10.654  -7.166  16.669  0.00  0.00    +0.000 A 
ATOM     20  C   UNL     1     -11.999  -7.423  16.405  0.00  0.00    +0.000 A 
ENDBRANCH  14  15
ENDBRANCH   6  14
TORSDOF 2
ENDMDL
MODEL 9
REMARK VINA RESULT:      -5.6      4.517      7.533
REMARK  Name = 86769012
REMARK  2 active torsions:
REMARK  status: ('A' for Active; 'I' for Inactive)
REMARK    1  A    between atoms: N_6  and  C_14
REMARK    2  A    between atoms: C_14  and  C_15
REMARK                            x       y       z     vdW  Elec       q    Type
REMARK                         _______ _______ _______ _____ _____    ______ ____
ROOT
ATOM      1  O   UNL     1     -14.008  -6.918  14.796  0.00  0.00    -0.253 OA
ATOM      2  O   UNL     1     -10.358 -11.202  18.836  0.00  0.00    -0.253 OA
ATOM      3  N   UNL     1     -12.164  -7.857  15.919  0.00  0.00    -0.278 N 
ATOM      4  N   UNL     1     -10.730  -9.089  17.959  0.00  0.00    -0.282 N 
ATOM      5  N   UNL     1     -11.902  -5.885  14.874  0.00  0.00    -0.297 N 
ATOM      6  N   UNL     1      -8.549  -9.843  18.472  0.00  0.00    -0.295 N 
ATOM      7  C   UNL     1     -10.748  -7.558  16.044  0.00  0.00    +0.112 C 
ATOM      8  C   UNL     1     -10.293  -7.759  17.486  0.00  0.00    +0.133 C 
ATOM      9  C   UNL     1     -10.637  -6.126  15.530  0.00  0.00    +0.129 C 
ATOM     10  C   UNL     1     -12.696  -9.093  16.466  0.00  0.00    +0.128 C 
ATOM     11  C   UNL     1     -12.187  -9.295  17.893  0.00  0.00    +0.128 C 
ATOM     12  C   UNL     1     -12.838  -6.899  15.153  0.00  0.00    +0.303 C 
ATOM     13  C   UNL     1      -9.911 -10.117  18.449  0.00  0.00    +0.303 C 
ATOM     21  H   UNL     1     -12.121  -5.048  14.344  0.00  0.00    +0.150 HD
ATOM     22  H   UNL     1      -8.175  -8.979  18.106  0.00  0.00    +0.151 HD
ENDROOT
BRANCH   6  14
ATOM     14  C   UNL     1      -7.581 -10.806  18.947  0.00  0.00    +0.141 C 
BRANCH  14  15
ATOM     15  C   UNL     1      -6.307 -10.761  18.154  0.00  0.00    -0.030 A 
ATOM     16  C   UNL     1      -5.172 -11.425  18.621  0.00  0.00    +0.005 A 
ATOM     17  C   UNL     1      -6.258 -10.055  16.953  0.00  0.00    +0.005 A 
ATOM     18  C   UNL     1      -3.988 -11.383  17.884  0.00  0.00    +0.000 A 
ATOM     19  C   UNL     1      -5.074 -10.012  16.217  0.00  0.00    +0.000 A 
ATOM     20  C   UNL     1      -3.939 -10.676  16.683  0.00  0.00    +0.000 A 
ENDBRANCH  14  15
ENDBRANCH   6  14
TORSDOF 2
ENDMDL
MODEL 10
REMARK VINA RESULT:      -5.5     22.283     24.780
REMARK  Name = 86769012
REMARK  2 active torsions:
REMARK  status: ('A' for Active; 'I' for Inactive)
REMARK    1  A    between atoms: N_6  and  C_14
REMARK    2  A    between atoms: C_14  and  C_15
REMARK                            x       y       z     vdW  Elec       q    Type
REMARK                         _______ _______ _______ _____ _____    ______ ____
ROOT
ATOM      1  O   UNL     1       0.063  11.874   7.751  0.00  0.00    -0.253 OA
ATOM      2  O   UNL     1      -0.186  11.549   0.835  0.00  0.00    -0.253 OA
ATOM      3  N   UNL     1      -0.378  11.037   5.596  0.00  0.00    -0.278 N 
ATOM      4  N   UNL     1      -1.096  11.056   2.908  0.00  0.00    -0.282 N 
ATOM      5  N   UNL     1      -1.220   9.947   7.371  0.00  0.00    -0.297 N 
ATOM      6  N   UNL     1      -1.361   9.595   1.069  0.00  0.00    -0.295 N 
ATOM      7  C   UNL     1      -0.996   9.846   5.039  0.00  0.00    +0.112 C 
ATOM      8  C   UNL     1      -1.872  10.216   3.845  0.00  0.00    +0.133 C 
ATOM      9  C   UNL     1      -1.747   9.244   6.223  0.00  0.00    +0.129 C 
ATOM     10  C   UNL     1       0.302  11.977   4.722  0.00  0.00    +0.128 C 
ATOM     11  C   UNL     1      -0.575  12.295   3.511  0.00  0.00    +0.128 C 
ATOM     12  C   UNL     1      -0.442  11.057   6.993  0.00  0.00    +0.303 C 
ATOM     13  C   UNL     1      -0.838  10.786   1.556  0.00  0.00    +0.303 C 
ATOM     21  H   UNL     1      -1.449   9.721   8.334  0.00  0.00    +0.150 HD
ATOM     22  H   UNL     1      -1.846   8.943   1.669  0.00  0.00    +0.151 HD
ENDROOT
BRANCH   6  14
ATOM     14  C   UNL     1      -1.173   9.180  -0.303  0.00  0.00    +0.141 C 
BRANCH  14  15
ATOM     15  C   UNL     1      -2.309   9.617  -1.183  0.00  0.00    -0.030 A 
ATOM     16  C   UNL     1      -3.625   9.357  -0.800  0.00  0.00    +0.005 A 
ATOM     17  C   UNL     1      -2.050  10.281  -2.381  0.00  0.00    +0.005 A 
ATOM     18  C   UNL     1      -4.682   9.763  -1.616  0.00  0.00    +0.000 A 
ATOM     19  C   UNL     1      -3.105  10.685  -3.197  0.00  0.00    +0.000 A 
ATOM     20  C   UNL     1      -4.421  10.426  -2.815  0.00  0.00    +0.000 A 
ENDBRANCH  14  15
ENDBRANCH   6  14
TORSDOF 2
ENDMDL
