MODEL 1
REMARK VINA RESULT:      -7.4      0.000      0.000
REMARK  Name = 45361612
REMARK  12 active torsions:
REMARK  status: ('A' for Active; 'I' for Inactive)
REMARK    1  A    between atoms: O_1  and  C_11
REMARK    2  A    between atoms: O_4  and  C_35
REMARK    3  A    between atoms: O_4  and  C_36
REMARK    4  A    between atoms: N_5  and  C_15
REMARK    5  A    between atoms: N_6  and  C_25
REMARK    6  A    between atoms: C_8  and  C_18
REMARK    7  A    between atoms: C_10  and  C_20
REMARK    8  A    between atoms: C_14  and  C_19
REMARK    9  A    between atoms: C_19  and  C_21
REMARK   10  A    between atoms: C_19  and  C_22
REMARK   11  A    between atoms: C_23  and  C_24
REMARK   12  A    between atoms: C_25  and  C_27
REMARK                            x       y       z     vdW  Elec       q    Type
REMARK                         _______ _______ _______ _____ _____    ______ ____
ROOT
ATOM      8  C   UNL     1      -4.732 -11.070  16.903  0.00  0.00    -0.027 C 
ATOM      9  C   UNL     1      -5.507 -10.439  15.699  0.00  0.00    +0.028 C 
ATOM     10  C   UNL     1      -7.059 -10.528  15.925  0.00  0.00    +0.012 C 
ATOM     11  C   UNL     1      -4.996 -11.004  14.342  0.00  0.00    +0.122 C 
ATOM     12  C   UNL     1      -3.212 -10.865  16.703  0.00  0.00    +0.007 C 
ATOM     13  C   UNL     1      -5.138 -10.338  18.203  0.00  0.00    +0.009 C 
ATOM     14  C   UNL     1      -3.461 -10.891  14.191  0.00  0.00    +0.029 C 
ATOM     15  C   UNL     1      -7.447  -9.855  17.271  0.00  0.00    +0.076 C 
ATOM     16  C   UNL     1      -2.701 -11.452  15.393  0.00  0.00    +0.007 C 
ATOM     17  C   UNL     1      -6.638 -10.367  18.463  0.00  0.00    +0.023 C 
ATOM     18  C   UNL     1      -5.013 -12.586  17.064  0.00  0.00    +0.011 C 
ATOM     20  C   UNL     1      -7.884  -9.900  14.790  0.00  0.00    +0.010 C 
ENDROOT
BRANCH  15   5
ATOM      3  O   UNL     1      -9.442  -7.791  17.321  0.00  0.00    -0.269 OA
ATOM      5  N   UNL     1      -8.854 -10.020  17.568  0.00  0.00    -0.307 N 
ATOM     23  C   UNL     1      -9.740  -8.957  17.566  0.00  0.00    +0.263 C 
ATOM     37  H   UNL     1      -9.185 -10.941  17.842  0.00  0.00    +0.149 HD
BRANCH  23  24
ATOM      7  N   UNL     1     -12.072  -8.979  16.981  0.00  0.00    -0.250 NA
ATOM     24  C   UNL     1     -11.146  -9.288  17.917  0.00  0.00    +0.125 A 
ATOM     26  C   UNL     1     -11.442  -9.876  19.136  0.00  0.00    +0.033 A 
ATOM     28  C   UNL     1     -12.774 -10.166  19.412  0.00  0.00    +0.004 A 
ATOM     29  C   UNL     1     -13.355  -9.276  17.285  0.00  0.00    +0.111 A 
ATOM     32  C   UNL     1     -13.754  -9.864  18.474  0.00  0.00    +0.020 A 
ENDBRANCH  23  24
ENDBRANCH  15   5
BRANCH  11   1
ATOM      1  O   UNL     1      -5.568 -10.256  13.268  0.00  0.00    -0.391 OA
ATOM     38  H   UNL     1      -6.235  -9.654  13.642  0.00  0.00    +0.210 HD
ENDBRANCH  11   1
BRANCH  14  19
ATOM     19  C   UNL     1      -2.963 -11.569  12.909  0.00  0.00    +0.077 C 
ATOM     21  C   UNL     1      -1.797 -12.498  13.226  0.00  0.00    +0.017 C 
BRANCH  19  22
ATOM      2  O   UNL     1      -1.446 -10.018  11.834  0.00  0.00    -0.276 OA
ATOM      6  N   UNL     1      -3.615 -10.188  11.027  0.00  0.00    -0.311 N 
ATOM     22  C   UNL     1      -2.570 -10.513  11.881  0.00  0.00    +0.216 C 
ATOM     39  H   UNL     1      -4.499 -10.681  11.098  0.00  0.00    +0.149 HD
BRANCH   6  25
ATOM     25  C   UNL     1      -3.485  -9.211   9.971  0.00  0.00    +0.139 C 
BRANCH  25  27
ATOM     27  C   UNL     1      -4.753  -9.068   9.179  0.00  0.00    -0.030 A 
ATOM     30  C   UNL     1      -4.923  -9.790   7.998  0.00  0.00    +0.009 A 
ATOM     31  C   UNL     1      -5.760  -8.213   9.626  0.00  0.00    +0.009 A 
ATOM     33  C   UNL     1      -6.101  -9.657   7.263  0.00  0.00    +0.046 A 
ATOM     34  C   UNL     1      -6.938  -8.080   8.890  0.00  0.00    +0.046 A 
ATOM     35  C   UNL     1      -7.108  -8.802   7.709  0.00  0.00    +0.120 A 
BRANCH  35   4
ATOM      4  O   UNL     1      -8.258  -8.672   6.992  0.00  0.00    -0.495 OA
ATOM     36  C   UNL     1      -8.560  -7.376   6.479  0.00  0.00    +0.277 C 
ENDBRANCH  35   4
ENDBRANCH  25  27
ENDBRANCH   6  25
ENDBRANCH  19  22
ENDBRANCH  14  19
TORSDOF 8
ENDMDL
MODEL 2
REMARK VINA RESULT:      -7.1      3.225      9.341
REMARK  Name = 45361612
REMARK  12 active torsions:
REMARK  status: ('A' for Active; 'I' for Inactive)
REMARK    1  A    between atoms: O_1  and  C_11
REMARK    2  A    between atoms: O_4  and  C_35
REMARK    3  A    between atoms: O_4  and  C_36
REMARK    4  A    between atoms: N_5  and  C_15
REMARK    5  A    between atoms: N_6  and  C_25
REMARK    6  A    between atoms: C_8  and  C_18
REMARK    7  A    between atoms: C_10  and  C_20
REMARK    8  A    between atoms: C_14  and  C_19
REMARK    9  A    between atoms: C_19  and  C_21
REMARK   10  A    between atoms: C_19  and  C_22
REMARK   11  A    between atoms: C_23  and  C_24
REMARK   12  A    between atoms: C_25  and  C_27
REMARK                            x       y       z     vdW  Elec       q    Type
REMARK                         _______ _______ _______ _____ _____    ______ ____
ROOT
ATOM      8  C   UNL     1      -6.521 -10.101  11.733  0.00  0.00    -0.027 C 
ATOM      9  C   UNL     1      -5.300  -9.480  10.976  0.00  0.00    +0.028 C 
ATOM     10  C   UNL     1      -5.585  -9.392   9.434  0.00  0.00    +0.012 C 
ATOM     11  C   UNL     1      -3.972 -10.187  11.371  0.00  0.00    +0.122 C 
ATOM     12  C   UNL     1      -6.254 -10.069  13.257  0.00  0.00    +0.007 C 
ATOM     13  C   UNL     1      -7.776  -9.243  11.457  0.00  0.00    +0.009 C 
ATOM     14  C   UNL     1      -3.761 -10.243  12.902  0.00  0.00    +0.029 C 
ATOM     15  C   UNL     1      -6.891  -8.591   9.172  0.00  0.00    +0.076 C 
ATOM     16  C   UNL     1      -4.974 -10.794  13.652  0.00  0.00    +0.007 C 
ATOM     17  C   UNL     1      -8.089  -9.099   9.974  0.00  0.00    +0.023 C 
ATOM     18  C   UNL     1      -6.801 -11.566  11.308  0.00  0.00    +0.011 C 
ATOM     20  C   UNL     1      -4.436  -8.763   8.629  0.00  0.00    +0.010 C 
ENDROOT
BRANCH  15   5
ATOM      3  O   UNL     1      -8.130  -6.445   7.720  0.00  0.00    -0.269 OA
ATOM      5  N   UNL     1      -7.247  -8.589   7.769  0.00  0.00    -0.307 N 
ATOM     23  C   UNL     1      -7.844  -7.499   7.158  0.00  0.00    +0.263 C 
ATOM     37  H   UNL     1      -7.103  -9.440   7.232  0.00  0.00    +0.149 HD
BRANCH  23  24
ATOM      7  N   UNL     1      -9.350  -7.137   5.320  0.00  0.00    -0.250 NA
ATOM     24  C   UNL     1      -8.170  -7.665   5.718  0.00  0.00    +0.125 A 
ATOM     26  C   UNL     1      -7.291  -8.324   4.874  0.00  0.00    +0.033 A 
ATOM     28  C   UNL     1      -7.645  -8.450   3.535  0.00  0.00    +0.004 A 
ATOM     29  C   UNL     1      -9.659  -7.279   4.011  0.00  0.00    +0.111 A 
ATOM     32  C   UNL     1      -8.850  -7.919   3.087  0.00  0.00    +0.020 A 
ENDBRANCH  23  24
ENDBRANCH  15   5
BRANCH  11   1
ATOM      1  O   UNL     1      -2.866  -9.460  10.833  0.00  0.00    -0.391 OA
ATOM     38  H   UNL     1      -3.210  -8.648  10.424  0.00  0.00    +0.210 HD
ENDBRANCH  11   1
BRANCH  14  19
ATOM     19  C   UNL     1      -2.516 -11.056  13.276  0.00  0.00    +0.077 C 
ATOM     21  C   UNL     1      -2.780 -12.544  13.073  0.00  0.00    +0.017 C 
BRANCH  19  22
ATOM      2  O   UNL     1      -1.234  -9.942  15.002  0.00  0.00    -0.276 OA
ATOM      6  N   UNL     1      -2.832 -11.499  15.638  0.00  0.00    -0.311 N 
ATOM     22  C   UNL     1      -2.109 -10.755  14.715  0.00  0.00    +0.216 C 
ATOM     39  H   UNL     1      -3.576 -12.113  15.322  0.00  0.00    +0.149 HD
BRANCH   6  25
ATOM     25  C   UNL     1      -2.624 -11.389  17.063  0.00  0.00    +0.139 C 
BRANCH  25  27
ATOM     27  C   UNL     1      -3.919 -11.245  17.810  0.00  0.00    -0.030 A 
ATOM     30  C   UNL     1      -4.089 -11.876  19.042  0.00  0.00    +0.009 A 
ATOM     31  C   UNL     1      -4.952 -10.478  17.271  0.00  0.00    +0.009 A 
ATOM     33  C   UNL     1      -5.291 -11.742  19.735  0.00  0.00    +0.046 A 
ATOM     34  C   UNL     1      -6.156 -10.344  17.964  0.00  0.00    +0.046 A 
ATOM     35  C   UNL     1      -6.324 -10.975  19.196  0.00  0.00    +0.120 A 
BRANCH  35   4
ATOM      4  O   UNL     1      -7.498 -10.843  19.873  0.00  0.00    -0.495 OA
ATOM     36  C   UNL     1      -8.531 -11.780  19.570  0.00  0.00    +0.277 C 
ENDBRANCH  35   4
ENDBRANCH  25  27
ENDBRANCH   6  25
ENDBRANCH  19  22
ENDBRANCH  14  19
TORSDOF 8
ENDMDL
MODEL 3
REMARK VINA RESULT:      -7.1     24.628     27.358
REMARK  Name = 45361612
REMARK  12 active torsions:
REMARK  status: ('A' for Active; 'I' for Inactive)
REMARK    1  A    between atoms: O_1  and  C_11
REMARK    2  A    between atoms: O_4  and  C_35
REMARK    3  A    between atoms: O_4  and  C_36
REMARK    4  A    between atoms: N_5  and  C_15
REMARK    5  A    between atoms: N_6  and  C_25
REMARK    6  A    between atoms: C_8  and  C_18
REMARK    7  A    between atoms: C_10  and  C_20
REMARK    8  A    between atoms: C_14  and  C_19
REMARK    9  A    between atoms: C_19  and  C_21
REMARK   10  A    between atoms: C_19  and  C_22
REMARK   11  A    between atoms: C_23  and  C_24
REMARK   12  A    between atoms: C_25  and  C_27
REMARK                            x       y       z     vdW  Elec       q    Type
REMARK                         _______ _______ _______ _____ _____    ______ ____
ROOT
ATOM      8  C   UNL     1       9.428   6.186   6.275  0.00  0.00    -0.027 C 
ATOM      9  C   UNL     1      10.474   7.252   5.806  0.00  0.00    +0.028 C 
ATOM     10  C   UNL     1      10.036   8.695   6.248  0.00  0.00    +0.012 C 
ATOM     11  C   UNL     1      10.808   7.087   4.295  0.00  0.00    +0.122 C 
ATOM     12  C   UNL     1       9.943   4.770   5.925  0.00  0.00    +0.007 C 
ATOM     13  C   UNL     1       9.279   6.267   7.811  0.00  0.00    +0.009 C 
ATOM     14  C   UNL     1      11.222   5.643   3.932  0.00  0.00    +0.029 C 
ATOM     15  C   UNL     1       9.817   8.745   7.786  0.00  0.00    +0.076 C 
ATOM     16  C   UNL     1      10.234   4.593   4.440  0.00  0.00    +0.007 C 
ATOM     17  C   UNL     1       8.882   7.652   8.303  0.00  0.00    +0.023 C 
ATOM     18  C   UNL     1       8.038   6.387   5.618  0.00  0.00    +0.011 C 
ATOM     20  C   UNL     1      11.036   9.792   5.843  0.00  0.00    +0.010 C 
ENDROOT
BRANCH  15   5
ATOM      3  O   UNL     1      11.224  10.741   9.296  0.00  0.00    -0.269 OA
ATOM      5  N   UNL     1       9.302  10.029   8.213  0.00  0.00    -0.307 N 
ATOM     23  C   UNL     1      10.063  10.926   8.941  0.00  0.00    +0.263 C 
ATOM     37  H   UNL     1       8.329  10.248   8.016  0.00  0.00    +0.149 HD
BRANCH  23  24
ATOM      7  N   UNL     1       9.872  13.316   8.762  0.00  0.00    -0.250 NA
ATOM     24  C   UNL     1       9.380  12.189   9.325  0.00  0.00    +0.125 A 
ATOM     26  C   UNL     1       8.310  12.165  10.205  0.00  0.00    +0.033 A 
ATOM     28  C   UNL     1       7.707  13.375  10.529  0.00  0.00    +0.004 A 
ATOM     29  C   UNL     1       9.259  14.473   9.100  0.00  0.00    +0.111 A 
ATOM     32  C   UNL     1       8.184  14.555   9.970  0.00  0.00    +0.020 A 
ENDBRANCH  23  24
ENDBRANCH  15   5
BRANCH  11   1
ATOM      1  O   UNL     1      11.913   7.927   3.958  0.00  0.00    -0.391 OA
ATOM     38  H   UNL     1      12.337   7.562   3.162  0.00  0.00    +0.210 HD
ENDBRANCH  11   1
BRANCH  14  19
ATOM     19  C   UNL     1      11.420   5.470   2.421  0.00  0.00    +0.077 C 
ATOM     21  C   UNL     1      10.601   4.287   1.917  0.00  0.00    +0.017 C 
BRANCH  19  22
ATOM      2  O   UNL     1      13.698   6.231   2.111  0.00  0.00    -0.276 OA
ATOM      6  N   UNL     1      13.233   3.977   1.821  0.00  0.00    -0.311 N 
ATOM     22  C   UNL     1      12.903   5.294   2.107  0.00  0.00    +0.216 C 
ATOM     39  H   UNL     1      12.527   3.252   1.890  0.00  0.00    +0.149 HD
BRANCH   6  25
ATOM     25  C   UNL     1      14.577   3.563   1.491  0.00  0.00    +0.139 C 
BRANCH  25  27
ATOM     27  C   UNL     1      14.955   3.948   0.089  0.00  0.00    -0.030 A 
ATOM     30  C   UNL     1      13.993   3.941  -0.921  0.00  0.00    +0.009 A 
ATOM     31  C   UNL     1      16.269   4.313  -0.202  0.00  0.00    +0.009 A 
ATOM     33  C   UNL     1      14.345   4.299  -2.222  0.00  0.00    +0.046 A 
ATOM     34  C   UNL     1      16.621   4.671  -1.504  0.00  0.00    +0.046 A 
ATOM     35  C   UNL     1      15.659   4.664  -2.513  0.00  0.00    +0.120 A 
BRANCH  35   4
ATOM      4  O   UNL     1      16.003   5.014  -3.783  0.00  0.00    -0.495 OA
ATOM     36  C   UNL     1      14.950   5.086  -4.743  0.00  0.00    +0.277 C 
ENDBRANCH  35   4
ENDBRANCH  25  27
ENDBRANCH   6  25
ENDBRANCH  19  22
ENDBRANCH  14  19
TORSDOF 8
ENDMDL
MODEL 4
REMARK VINA RESULT:      -7.1      1.684      2.169
REMARK  Name = 45361612
REMARK  12 active torsions:
REMARK  status: ('A' for Active; 'I' for Inactive)
REMARK    1  A    between atoms: O_1  and  C_11
REMARK    2  A    between atoms: O_4  and  C_35
REMARK    3  A    between atoms: O_4  and  C_36
REMARK    4  A    between atoms: N_5  and  C_15
REMARK    5  A    between atoms: N_6  and  C_25
REMARK    6  A    between atoms: C_8  and  C_18
REMARK    7  A    between atoms: C_10  and  C_20
REMARK    8  A    between atoms: C_14  and  C_19
REMARK    9  A    between atoms: C_19  and  C_21
REMARK   10  A    between atoms: C_19  and  C_22
REMARK   11  A    between atoms: C_23  and  C_24
REMARK   12  A    between atoms: C_25  and  C_27
REMARK                            x       y       z     vdW  Elec       q    Type
REMARK                         _______ _______ _______ _____ _____    ______ ____
ROOT
ATOM      8  C   UNL     1      -4.784 -11.271  17.197  0.00  0.00    -0.027 C 
ATOM      9  C   UNL     1      -5.761 -10.467  16.277  0.00  0.00    +0.028 C 
ATOM     10  C   UNL     1      -7.224 -10.504  16.849  0.00  0.00    +0.012 C 
ATOM     11  C   UNL     1      -5.614 -10.896  14.788  0.00  0.00    +0.122 C 
ATOM     12  C   UNL     1      -3.337 -11.121  16.670  0.00  0.00    +0.007 C 
ATOM     13  C   UNL     1      -4.829 -10.676  18.623  0.00  0.00    +0.009 C 
ATOM     14  C   UNL     1      -4.149 -10.842  14.296  0.00  0.00    +0.029 C 
ATOM     15  C   UNL     1      -7.245  -9.973  18.309  0.00  0.00    +0.076 C 
ATOM     16  C   UNL     1      -3.181 -11.576  15.225  0.00  0.00    +0.007 C 
ATOM     17  C   UNL     1      -6.229 -10.660  19.221  0.00  0.00    +0.023 C 
ATOM     18  C   UNL     1      -5.135 -12.780  17.264  0.00  0.00    +0.011 C 
ATOM     20  C   UNL     1      -8.235  -9.708  16.006  0.00  0.00    +0.010 C 
ENDROOT
BRANCH  15   5
ATOM      3  O   UNL     1      -8.466 -12.390  19.263  0.00  0.00    -0.269 OA
ATOM      5  N   UNL     1      -8.557 -10.101  18.908  0.00  0.00    -0.307 N 
ATOM     23  C   UNL     1      -9.058 -11.317  19.338  0.00  0.00    +0.263 C 
ATOM     37  H   UNL     1      -9.147  -9.275  18.959  0.00  0.00    +0.149 HD
BRANCH  23  24
ATOM      7  N   UNL     1     -10.903 -12.466  20.366  0.00  0.00    -0.250 NA
ATOM     24  C   UNL     1     -10.431 -11.285  19.907  0.00  0.00    +0.125 A 
ATOM     26  C   UNL     1     -11.143 -10.097  19.945  0.00  0.00    +0.033 A 
ATOM     28  C   UNL     1     -12.423 -10.122  20.489  0.00  0.00    +0.004 A 
ATOM     29  C   UNL     1     -12.151 -12.451  20.888  0.00  0.00    +0.111 A 
ATOM     32  C   UNL     1     -12.943 -11.318  20.972  0.00  0.00    +0.020 A 
ENDBRANCH  23  24
ENDBRANCH  15   5
BRANCH  11   1
ATOM      1  O   UNL     1      -6.356 -10.000  13.959  0.00  0.00    -0.391 OA
ATOM     38  H   UNL     1      -7.007 -10.521  13.459  0.00  0.00    +0.210 HD
ENDBRANCH  11   1
BRANCH  14  19
ATOM     19  C   UNL     1      -4.006 -11.391  12.871  0.00  0.00    +0.077 C 
ATOM     21  C   UNL     1      -2.910 -12.449  12.824  0.00  0.00    +0.017 C 
BRANCH  19  22
ATOM      2  O   UNL     1      -2.586  -9.966  11.523  0.00  0.00    -0.276 OA
ATOM      6  N   UNL     1      -4.874  -9.585  11.507  0.00  0.00    -0.311 N 
ATOM     22  C   UNL     1      -3.721 -10.250  11.900  0.00  0.00    +0.216 C 
ATOM     39  H   UNL     1      -5.780  -9.914  11.823  0.00  0.00    +0.149 HD
BRANCH   6  25
ATOM     25  C   UNL     1      -4.858  -8.467  10.593  0.00  0.00    +0.139 C 
BRANCH  25  27
ATOM     27  C   UNL     1      -5.527  -8.797   9.290  0.00  0.00    -0.030 A 
ATOM     30  C   UNL     1      -6.781  -8.262   8.993  0.00  0.00    +0.009 A 
ATOM     31  C   UNL     1      -4.894  -9.639   8.375  0.00  0.00    +0.009 A 
ATOM     33  C   UNL     1      -7.401  -8.568   7.782  0.00  0.00    +0.046 A 
ATOM     34  C   UNL     1      -5.515  -9.946   7.164  0.00  0.00    +0.046 A 
ATOM     35  C   UNL     1      -6.768  -9.410   6.868  0.00  0.00    +0.120 A 
BRANCH  35   4
ATOM      4  O   UNL     1      -7.374  -9.709   5.686  0.00  0.00    -0.495 OA
ATOM     36  C   UNL     1      -6.690 -10.611   4.817  0.00  0.00    +0.277 C 
ENDBRANCH  35   4
ENDBRANCH  25  27
ENDBRANCH   6  25
ENDBRANCH  19  22
ENDBRANCH  14  19
TORSDOF 8
ENDMDL
MODEL 5
REMARK VINA RESULT:      -7.0      2.229      8.723
REMARK  Name = 45361612
REMARK  12 active torsions:
REMARK  status: ('A' for Active; 'I' for Inactive)
REMARK    1  A    between atoms: O_1  and  C_11
REMARK    2  A    between atoms: O_4  and  C_35
REMARK    3  A    between atoms: O_4  and  C_36
REMARK    4  A    between atoms: N_5  and  C_15
REMARK    5  A    between atoms: N_6  and  C_25
REMARK    6  A    between atoms: C_8  and  C_18
REMARK    7  A    between atoms: C_10  and  C_20
REMARK    8  A    between atoms: C_14  and  C_19
REMARK    9  A    between atoms: C_19  and  C_21
REMARK   10  A    between atoms: C_19  and  C_22
REMARK   11  A    between atoms: C_23  and  C_24
REMARK   12  A    between atoms: C_25  and  C_27
REMARK                            x       y       z     vdW  Elec       q    Type
REMARK                         _______ _______ _______ _____ _____    ______ ____
ROOT
ATOM      8  C   UNL     1      -3.333 -11.680  11.849  0.00  0.00    -0.027 C 
ATOM      9  C   UNL     1      -4.620 -10.978  12.399  0.00  0.00    +0.028 C 
ATOM     10  C   UNL     1      -5.268 -10.062  11.300  0.00  0.00    +0.012 C 
ATOM     11  C   UNL     1      -4.346 -10.290  13.767  0.00  0.00    +0.122 C 
ATOM     12  C   UNL     1      -2.785 -12.659  12.914  0.00  0.00    +0.007 C 
ATOM     13  C   UNL     1      -3.704 -12.506  10.597  0.00  0.00    +0.009 C 
ATOM     14  C   UNL     1      -3.701 -11.248  14.796  0.00  0.00    +0.029 C 
ATOM     15  C   UNL     1      -5.569 -10.888  10.018  0.00  0.00    +0.076 C 
ATOM     16  C   UNL     1      -2.478 -11.981  14.243  0.00  0.00    +0.007 C 
ATOM     17  C   UNL     1      -4.363 -11.675   9.505  0.00  0.00    +0.023 C 
ATOM     18  C   UNL     1      -2.217 -10.670  11.480  0.00  0.00    +0.011 C 
ATOM     20  C   UNL     1      -6.557  -9.362  11.764  0.00  0.00    +0.010 C 
ENDROOT
BRANCH  15   5
ATOM      3  O   UNL     1      -7.791 -11.447   8.288  0.00  0.00    -0.269 OA
ATOM      5  N   UNL     1      -6.060 -10.051   8.944  0.00  0.00    -0.307 N 
ATOM     23  C   UNL     1      -7.145 -10.411   8.162  0.00  0.00    +0.263 C 
ATOM     37  H   UNL     1      -5.552  -9.198   8.724  0.00  0.00    +0.149 HD
BRANCH  23  24
ATOM      7  N   UNL     1      -8.641  -8.746   7.287  0.00  0.00    -0.250 NA
ATOM     24  C   UNL     1      -7.508  -9.456   7.084  0.00  0.00    +0.125 A 
ATOM     26  C   UNL     1      -6.707  -9.332   5.960  0.00  0.00    +0.033 A 
ATOM     28  C   UNL     1      -7.093  -8.422   4.982  0.00  0.00    +0.004 A 
ATOM     29  C   UNL     1      -8.984  -7.871   6.315  0.00  0.00    +0.111 A 
ATOM     32  C   UNL     1      -8.252  -7.673   5.156  0.00  0.00    +0.020 A 
ENDBRANCH  23  24
ENDBRANCH  15   5
BRANCH  11   1
ATOM      1  O   UNL     1      -5.581  -9.852  14.335  0.00  0.00    -0.391 OA
ATOM     38  H   UNL     1      -5.812 -10.458  15.059  0.00  0.00    +0.210 HD
ENDBRANCH  11   1
BRANCH  14  19
ATOM     19  C   UNL     1      -3.320 -10.520  16.091  0.00  0.00    +0.077 C 
ATOM     21  C   UNL     1      -1.826 -10.671  16.357  0.00  0.00    +0.017 C 
BRANCH  19  22
ATOM      2  O   UNL     1      -3.699 -11.840  18.085  0.00  0.00    -0.276 OA
ATOM      6  N   UNL     1      -5.446 -10.562  17.252  0.00  0.00    -0.311 N 
ATOM     22  C   UNL     1      -4.149 -11.056  17.253  0.00  0.00    +0.216 C 
ATOM     39  H   UNL     1      -5.726  -9.877  16.558  0.00  0.00    +0.149 HD
BRANCH   6  25
ATOM     25  C   UNL     1      -6.422 -10.927  18.253  0.00  0.00    +0.139 C 
BRANCH  25  27
ATOM     27  C   UNL     1      -7.739 -10.242  18.030  0.00  0.00    -0.030 A 
ATOM     30  C   UNL     1      -8.875 -10.671  18.717  0.00  0.00    +0.009 A 
ATOM     31  C   UNL     1      -7.827  -9.175  17.136  0.00  0.00    +0.009 A 
ATOM     33  C   UNL     1     -10.098 -10.035  18.510  0.00  0.00    +0.046 A 
ATOM     34  C   UNL     1      -9.051  -8.538  16.928  0.00  0.00    +0.046 A 
ATOM     35  C   UNL     1     -10.185  -8.967  17.615  0.00  0.00    +0.120 A 
BRANCH  35   4
ATOM      4  O   UNL     1     -11.379  -8.345  17.413  0.00  0.00    -0.495 OA
ATOM     36  C   UNL     1     -12.534  -9.175  17.311  0.00  0.00    +0.277 C 
ENDBRANCH  35   4
ENDBRANCH  25  27
ENDBRANCH   6  25
ENDBRANCH  19  22
ENDBRANCH  14  19
TORSDOF 8
ENDMDL
MODEL 6
REMARK VINA RESULT:      -6.9     20.006     25.547
REMARK  Name = 45361612
REMARK  12 active torsions:
REMARK  status: ('A' for Active; 'I' for Inactive)
REMARK    1  A    between atoms: O_1  and  C_11
REMARK    2  A    between atoms: O_4  and  C_35
REMARK    3  A    between atoms: O_4  and  C_36
REMARK    4  A    between atoms: N_5  and  C_15
REMARK    5  A    between atoms: N_6  and  C_25
REMARK    6  A    between atoms: C_8  and  C_18
REMARK    7  A    between atoms: C_10  and  C_20
REMARK    8  A    between atoms: C_14  and  C_19
REMARK    9  A    between atoms: C_19  and  C_21
REMARK   10  A    between atoms: C_19  and  C_22
REMARK   11  A    between atoms: C_23  and  C_24
REMARK   12  A    between atoms: C_25  and  C_27
REMARK                            x       y       z     vdW  Elec       q    Type
REMARK                         _______ _______ _______ _____ _____    ______ ____
ROOT
ATOM      8  C   UNL     1     -14.557   2.432  31.288  0.00  0.00    -0.027 C 
ATOM      9  C   UNL     1     -15.733   3.421  30.992  0.00  0.00    +0.028 C 
ATOM     10  C   UNL     1     -16.166   3.337  29.484  0.00  0.00    +0.012 C 
ATOM     11  C   UNL     1     -15.415   4.850  31.518  0.00  0.00    +0.122 C 
ATOM     12  C   UNL     1     -14.232   2.457  32.801  0.00  0.00    +0.007 C 
ATOM     13  C   UNL     1     -15.000   0.997  30.925  0.00  0.00    +0.009 C 
ATOM     14  C   UNL     1     -14.990   4.855  33.005  0.00  0.00    +0.029 C 
ATOM     15  C   UNL     1     -16.537   1.875  29.110  0.00  0.00    +0.076 C 
ATOM     16  C   UNL     1     -13.882   3.848  33.311  0.00  0.00    +0.007 C 
ATOM     17  C   UNL     1     -15.457   0.859  29.480  0.00  0.00    +0.023 C 
ATOM     18  C   UNL     1     -13.271   2.784  30.498  0.00  0.00    +0.011 C 
ATOM     20  C   UNL     1     -17.340   4.264  29.127  0.00  0.00    +0.010 C 
ENDROOT
BRANCH  15   5
ATOM      3  O   UNL     1     -18.396   0.044  27.911  0.00  0.00    -0.269 OA
ATOM      5  N   UNL     1     -16.829   1.739  27.698  0.00  0.00    -0.307 N 
ATOM     23  C   UNL     1     -17.747   0.822  27.217  0.00  0.00    +0.263 C 
ATOM     37  H   UNL     1     -16.298   2.301  27.039  0.00  0.00    +0.149 HD
BRANCH  23  24
ATOM      7  N   UNL     1     -18.433  -0.352  25.235  0.00  0.00    -0.250 NA
ATOM     24  C   UNL     1     -17.914   0.789  25.741  0.00  0.00    +0.125 A 
ATOM     26  C   UNL     1     -17.549   1.883  24.972  0.00  0.00    +0.033 A 
ATOM     28  C   UNL     1     -17.728   1.800  23.596  0.00  0.00    +0.004 A 
ATOM     29  C   UNL     1     -18.592  -0.395  23.892  0.00  0.00    +0.111 A 
ATOM     32  C   UNL     1     -18.260   0.643  23.038  0.00  0.00    +0.020 A 
ENDBRANCH  23  24
ENDBRANCH  15   5
BRANCH  11   1
ATOM      1  O   UNL     1     -16.586   5.663  31.425  0.00  0.00    -0.391 OA
ATOM     38  H   UNL     1     -16.662   5.979  30.508  0.00  0.00    +0.210 HD
ENDBRANCH  11   1
BRANCH  14  19
ATOM     19  C   UNL     1     -14.557   6.251  33.468  0.00  0.00    +0.077 C 
ATOM     21  C   UNL     1     -13.503   6.814  32.521  0.00  0.00    +0.017 C 
BRANCH  19  22
ATOM      2  O   UNL     1     -14.352   5.291  35.681  0.00  0.00    -0.276 OA
ATOM      6  N   UNL     1     -13.192   7.243  35.208  0.00  0.00    -0.311 N 
ATOM     22  C   UNL     1     -14.039   6.187  34.901  0.00  0.00    +0.216 C 
ATOM     39  H   UNL     1     -12.941   7.915  34.491  0.00  0.00    +0.149 HD
BRANCH   6  25
ATOM     25  C   UNL     1     -12.578   7.399  36.506  0.00  0.00    +0.139 C 
BRANCH  25  27
ATOM     27  C   UNL     1     -11.235   8.066  36.416  0.00  0.00    -0.030 A 
ATOM     30  C   UNL     1     -10.208   7.688  37.280  0.00  0.00    +0.009 A 
ATOM     31  C   UNL     1     -11.016   9.065  35.466  0.00  0.00    +0.009 A 
ATOM     33  C   UNL     1      -8.961   8.308  37.195  0.00  0.00    +0.046 A 
ATOM     34  C   UNL     1      -9.769   9.685  35.382  0.00  0.00    +0.046 A 
ATOM     35  C   UNL     1      -8.743   9.306  36.246  0.00  0.00    +0.120 A 
BRANCH  35   4
ATOM      4  O   UNL     1      -7.526   9.911  36.162  0.00  0.00    -0.495 OA
ATOM     36  C   UNL     1      -7.417  11.031  35.285  0.00  0.00    +0.277 C 
ENDBRANCH  35   4
ENDBRANCH  25  27
ENDBRANCH   6  25
ENDBRANCH  19  22
ENDBRANCH  14  19
TORSDOF 8
ENDMDL
MODEL 7
REMARK VINA RESULT:      -6.9      3.211      5.973
REMARK  Name = 45361612
REMARK  12 active torsions:
REMARK  status: ('A' for Active; 'I' for Inactive)
REMARK    1  A    between atoms: O_1  and  C_11
REMARK    2  A    between atoms: O_4  and  C_35
REMARK    3  A    between atoms: O_4  and  C_36
REMARK    4  A    between atoms: N_5  and  C_15
REMARK    5  A    between atoms: N_6  and  C_25
REMARK    6  A    between atoms: C_8  and  C_18
REMARK    7  A    between atoms: C_10  and  C_20
REMARK    8  A    between atoms: C_14  and  C_19
REMARK    9  A    between atoms: C_19  and  C_21
REMARK   10  A    between atoms: C_19  and  C_22
REMARK   11  A    between atoms: C_23  and  C_24
REMARK   12  A    between atoms: C_25  and  C_27
REMARK                            x       y       z     vdW  Elec       q    Type
REMARK                         _______ _______ _______ _____ _____    ______ ____
ROOT
ATOM      8  C   UNL     1      -4.285 -10.607  11.082  0.00  0.00    -0.027 C 
ATOM      9  C   UNL     1      -5.693 -10.000  11.390  0.00  0.00    +0.028 C 
ATOM     10  C   UNL     1      -6.266 -10.575  12.735  0.00  0.00    +0.012 C 
ATOM     11  C   UNL     1      -6.638 -10.113  10.159  0.00  0.00    +0.122 C 
ATOM     12  C   UNL     1      -3.701  -9.938   9.814  0.00  0.00    +0.007 C 
ATOM     13  C   UNL     1      -3.332 -10.296  12.259  0.00  0.00    +0.009 C 
ATOM     14  C   UNL     1      -6.007  -9.536   8.871  0.00  0.00    +0.029 C 
ATOM     15  C   UNL     1      -5.266 -10.322  13.898  0.00  0.00    +0.076 C 
ATOM     16  C   UNL     1      -4.605 -10.081   8.597  0.00  0.00    +0.007 C 
ATOM     17  C   UNL     1      -3.848 -10.806  13.597  0.00  0.00    +0.023 C 
ATOM     18  C   UNL     1      -4.333 -12.140  10.857  0.00  0.00    +0.011 C 
ATOM     20  C   UNL     1      -7.640  -9.998  13.116  0.00  0.00    +0.010 C 
ENDROOT
BRANCH  15   5
ATOM      3  O   UNL     1      -5.959  -8.978  16.339  0.00  0.00    -0.269 OA
ATOM      5  N   UNL     1      -5.709 -10.941  15.130  0.00  0.00    -0.307 N 
ATOM     23  C   UNL     1      -6.021 -10.202  16.259  0.00  0.00    +0.263 C 
ATOM     37  H   UNL     1      -5.736 -11.955  15.179  0.00  0.00    +0.149 HD
BRANCH  23  24
ATOM      7  N   UNL     1      -5.685 -10.806  18.561  0.00  0.00    -0.250 NA
ATOM     24  C   UNL     1      -6.435 -10.987  17.450  0.00  0.00    +0.125 A 
ATOM     26  C   UNL     1      -7.528 -11.836  17.382  0.00  0.00    +0.033 A 
ATOM     28  C   UNL     1      -7.873 -12.547  18.526  0.00  0.00    +0.004 A 
ATOM     29  C   UNL     1      -6.052 -11.513  19.654  0.00  0.00    +0.111 A 
ATOM     32  C   UNL     1      -7.126 -12.387  19.688  0.00  0.00    +0.020 A 
ENDBRANCH  23  24
ENDBRANCH  15   5
BRANCH  11   1
ATOM      1  O   UNL     1      -7.829  -9.364  10.402  0.00  0.00    -0.391 OA
ATOM     38  H   UNL     1      -8.524  -9.983  10.682  0.00  0.00    +0.210 HD
ENDBRANCH  11   1
BRANCH  14  19
ATOM     19  C   UNL     1      -6.897  -9.773   7.645  0.00  0.00    +0.077 C 
ATOM     21  C   UNL     1      -6.144 -10.590   6.600  0.00  0.00    +0.017 C 
BRANCH  19  22
ATOM      2  O   UNL     1      -7.479  -8.234   5.868  0.00  0.00    -0.276 OA
ATOM      6  N   UNL     1      -7.640  -7.505   8.065  0.00  0.00    -0.311 N 
ATOM     22  C   UNL     1      -7.366  -8.438   7.075  0.00  0.00    +0.216 C 
ATOM     39  H   UNL     1      -7.571  -7.769   9.042  0.00  0.00    +0.149 HD
BRANCH   6  25
ATOM     25  C   UNL     1      -8.097  -6.167   7.771  0.00  0.00    +0.139 C 
BRANCH  25  27
ATOM     27  C   UNL     1      -9.382  -5.844   8.478  0.00  0.00    -0.030 A 
ATOM     30  C   UNL     1      -9.713  -4.517   8.754  0.00  0.00    +0.009 A 
ATOM     31  C   UNL     1     -10.245  -6.872   8.858  0.00  0.00    +0.009 A 
ATOM     33  C   UNL     1     -10.906  -4.218   9.411  0.00  0.00    +0.046 A 
ATOM     34  C   UNL     1     -11.439  -6.573   9.515  0.00  0.00    +0.046 A 
ATOM     35  C   UNL     1     -11.769  -5.247   9.791  0.00  0.00    +0.120 A 
BRANCH  35   4
ATOM      4  O   UNL     1     -12.935  -4.955  10.431  0.00  0.00    -0.495 OA
ATOM     36  C   UNL     1     -13.356  -3.592  10.422  0.00  0.00    +0.277 C 
ENDBRANCH  35   4
ENDBRANCH  25  27
ENDBRANCH   6  25
ENDBRANCH  19  22
ENDBRANCH  14  19
TORSDOF 8
ENDMDL
MODEL 8
REMARK VINA RESULT:      -6.6      3.334      4.924
REMARK  Name = 45361612
REMARK  12 active torsions:
REMARK  status: ('A' for Active; 'I' for Inactive)
REMARK    1  A    between atoms: O_1  and  C_11
REMARK    2  A    between atoms: O_4  and  C_35
REMARK    3  A    between atoms: O_4  and  C_36
REMARK    4  A    between atoms: N_5  and  C_15
REMARK    5  A    between atoms: N_6  and  C_25
REMARK    6  A    between atoms: C_8  and  C_18
REMARK    7  A    between atoms: C_10  and  C_20
REMARK    8  A    between atoms: C_14  and  C_19
REMARK    9  A    between atoms: C_19  and  C_21
REMARK   10  A    between atoms: C_19  and  C_22
REMARK   11  A    between atoms: C_23  and  C_24
REMARK   12  A    between atoms: C_25  and  C_27
REMARK                            x       y       z     vdW  Elec       q    Type
REMARK                         _______ _______ _______ _____ _____    ______ ____
ROOT
ATOM      8  C   UNL     1      -8.739 -10.786  17.017  0.00  0.00    -0.027 C 
ATOM      9  C   UNL     1      -8.178 -11.996  17.837  0.00  0.00    +0.028 C 
ATOM     10  C   UNL     1      -8.928 -12.134  19.210  0.00  0.00    +0.012 C 
ATOM     11  C   UNL     1      -6.626 -11.946  17.925  0.00  0.00    +0.122 C 
ATOM     12  C   UNL     1      -8.060 -10.747  15.627  0.00  0.00    +0.007 C 
ATOM     13  C   UNL     1     -10.256 -10.987  16.795  0.00  0.00    +0.009 C 
ATOM     14  C   UNL     1      -5.956 -11.802  16.538  0.00  0.00    +0.029 C 
ATOM     15  C   UNL     1     -10.460 -12.260  18.978  0.00  0.00    +0.076 C 
ATOM     16  C   UNL     1      -6.542 -10.658  15.709  0.00  0.00    +0.007 C 
ATOM     17  C   UNL     1     -11.034 -11.154  18.093  0.00  0.00    +0.023 C 
ATOM     18  C   UNL     1      -8.503  -9.427  17.725  0.00  0.00    +0.011 C 
ATOM     20  C   UNL     1      -8.446 -13.324  20.058  0.00  0.00    +0.010 C 
ENDROOT
BRANCH  15   5
ATOM      3  O   UNL     1     -12.522 -14.108  19.737  0.00  0.00    -0.269 OA
ATOM      5  N   UNL     1     -11.193 -12.273  20.227  0.00  0.00    -0.307 N 
ATOM     23  C   UNL     1     -12.174 -13.210  20.499  0.00  0.00    +0.263 C 
ATOM     37  H   UNL     1     -11.015 -11.532  20.899  0.00  0.00    +0.149 HD
BRANCH  23  24
ATOM      7  N   UNL     1     -12.316 -13.791  22.827  0.00  0.00    -0.250 NA
ATOM     24  C   UNL     1     -12.851 -13.073  21.815  0.00  0.00    +0.125 A 
ATOM     26  C   UNL     1     -13.955 -12.247  21.949  0.00  0.00    +0.033 A 
ATOM     28  C   UNL     1     -14.550 -12.153  23.203  0.00  0.00    +0.004 A 
ATOM     29  C   UNL     1     -12.920 -13.674  24.032  0.00  0.00    +0.111 A 
ATOM     32  C   UNL     1     -14.027 -12.877  24.269  0.00  0.00    +0.020 A 
ENDBRANCH  23  24
ENDBRANCH  15   5
BRANCH  11   1
ATOM      1  O   UNL     1      -6.141 -13.166  18.487  0.00  0.00    -0.391 OA
ATOM     38  H   UNL     1      -6.250 -13.118  19.452  0.00  0.00    +0.210 HD
ENDBRANCH  11   1
BRANCH  14  19
ATOM     19  C   UNL     1      -4.438 -11.624  16.655  0.00  0.00    +0.077 C 
ATOM     21  C   UNL     1      -4.108 -10.200  17.091  0.00  0.00    +0.017 C 
BRANCH  19  22
ATOM      2  O   UNL     1      -3.870 -13.073  14.800  0.00  0.00    -0.276 OA
ATOM      6  N   UNL     1      -3.049 -10.903  14.804  0.00  0.00    -0.311 N 
ATOM     22  C   UNL     1      -3.770 -11.968  15.327  0.00  0.00    +0.216 C 
ATOM     39  H   UNL     1      -3.059 -10.005  15.275  0.00  0.00    +0.149 HD
BRANCH   6  25
ATOM     25  C   UNL     1      -2.327 -10.988  13.555  0.00  0.00    +0.139 C 
BRANCH  25  27
ATOM     27  C   UNL     1      -3.113 -10.414  12.412  0.00  0.00    -0.030 A 
ATOM     30  C   UNL     1      -4.497 -10.274  12.515  0.00  0.00    +0.009 A 
ATOM     31  C   UNL     1      -2.457 -10.019  11.245  0.00  0.00    +0.009 A 
ATOM     33  C   UNL     1      -5.226  -9.740  11.453  0.00  0.00    +0.046 A 
ATOM     34  C   UNL     1      -3.187  -9.485  10.182  0.00  0.00    +0.046 A 
ATOM     35  C   UNL     1      -4.570  -9.346  10.286  0.00  0.00    +0.120 A 
BRANCH  35   4
ATOM      4  O   UNL     1      -5.281  -8.824   9.249  0.00  0.00    -0.495 OA
ATOM     36  C   UNL     1      -5.319  -9.583   8.042  0.00  0.00    +0.277 C 
ENDBRANCH  35   4
ENDBRANCH  25  27
ENDBRANCH   6  25
ENDBRANCH  19  22
ENDBRANCH  14  19
TORSDOF 8
ENDMDL
MODEL 9
REMARK VINA RESULT:      -6.6      4.788     11.814
REMARK  Name = 45361612
REMARK  12 active torsions:
REMARK  status: ('A' for Active; 'I' for Inactive)
REMARK    1  A    between atoms: O_1  and  C_11
REMARK    2  A    between atoms: O_4  and  C_35
REMARK    3  A    between atoms: O_4  and  C_36
REMARK    4  A    between atoms: N_5  and  C_15
REMARK    5  A    between atoms: N_6  and  C_25
REMARK    6  A    between atoms: C_8  and  C_18
REMARK    7  A    between atoms: C_10  and  C_20
REMARK    8  A    between atoms: C_14  and  C_19
REMARK    9  A    between atoms: C_19  and  C_21
REMARK   10  A    between atoms: C_19  and  C_22
REMARK   11  A    between atoms: C_23  and  C_24
REMARK   12  A    between atoms: C_25  and  C_27
REMARK                            x       y       z     vdW  Elec       q    Type
REMARK                         _______ _______ _______ _____ _____    ______ ____
ROOT
ATOM      8  C   UNL     1     -12.277  -4.278  10.559  0.00  0.00    -0.027 C 
ATOM      9  C   UNL     1     -11.764  -5.727  10.853  0.00  0.00    +0.028 C 
ATOM     10  C   UNL     1     -11.422  -6.480   9.518  0.00  0.00    +0.012 C 
ATOM     11  C   UNL     1     -12.724  -6.480  11.819  0.00  0.00    +0.122 C 
ATOM     12  C   UNL     1     -12.496  -3.528  11.894  0.00  0.00    +0.007 C 
ATOM     13  C   UNL     1     -11.198  -3.513   9.760  0.00  0.00    +0.009 C 
ATOM     14  C   UNL     1     -13.021  -5.678  13.107  0.00  0.00    +0.029 C 
ATOM     15  C   UNL     1     -10.392  -5.664   8.687  0.00  0.00    +0.076 C 
ATOM     16  C   UNL     1     -13.466  -4.243  12.826  0.00  0.00    +0.007 C 
ATOM     17  C   UNL     1     -10.805  -4.210   8.465  0.00  0.00    +0.023 C 
ATOM     18  C   UNL     1     -13.605  -4.269   9.760  0.00  0.00    +0.011 C 
ATOM     20  C   UNL     1     -10.883  -7.904   9.734  0.00  0.00    +0.010 C 
ENDROOT
BRANCH  15   5
ATOM      3  O   UNL     1      -7.886  -6.689   7.732  0.00  0.00    -0.269 OA
ATOM      5  N   UNL     1     -10.142  -6.272   7.397  0.00  0.00    -0.307 N 
ATOM     23  C   UNL     1      -8.891  -6.737   7.028  0.00  0.00    +0.263 C 
ATOM     37  H   UNL     1     -10.901  -6.303   6.722  0.00  0.00    +0.149 HD
BRANCH  23  24
ATOM      7  N   UNL     1      -7.657  -7.992   5.391  0.00  0.00    -0.250 NA
ATOM     24  C   UNL     1      -8.793  -7.310   5.661  0.00  0.00    +0.125 A 
ATOM     26  C   UNL     1      -9.825  -7.133   4.754  0.00  0.00    +0.033 A 
ATOM     28  C   UNL     1      -9.683  -7.691   3.488  0.00  0.00    +0.004 A 
ATOM     29  C   UNL     1      -7.555  -8.521   4.151  0.00  0.00    +0.111 A 
ATOM     32  C   UNL     1      -8.529  -8.401   3.174  0.00  0.00    +0.020 A 
ENDBRANCH  23  24
ENDBRANCH  15   5
BRANCH  11   1
ATOM      1  O   UNL     1     -12.119  -7.706  12.232  0.00  0.00    -0.391 OA
ATOM     38  H   UNL     1     -12.068  -8.294  11.458  0.00  0.00    +0.210 HD
ENDBRANCH  11   1
BRANCH  14  19
ATOM     19  C   UNL     1     -14.068  -6.376  13.984  0.00  0.00    +0.077 C 
ATOM     21  C   UNL     1     -15.401  -5.642  13.893  0.00  0.00    +0.017 C 
BRANCH  19  22
ATOM      2  O   UNL     1     -14.328  -6.630  16.378  0.00  0.00    -0.276 OA
ATOM      6  N   UNL     1     -12.197  -6.303  15.521  0.00  0.00    -0.311 N 
ATOM     22  C   UNL     1     -13.572  -6.454  15.424  0.00  0.00    +0.216 C 
ATOM     39  H   UNL     1     -11.636  -6.213  14.680  0.00  0.00    +0.149 HD
BRANCH   6  25
ATOM     25  C   UNL     1     -11.495  -6.338  16.783  0.00  0.00    +0.139 C 
BRANCH  25  27
ATOM     27  C   UNL     1     -10.874  -7.680  17.044  0.00  0.00    -0.030 A 
ATOM     30  C   UNL     1     -11.652  -8.723  17.550  0.00  0.00    +0.009 A 
ATOM     31  C   UNL     1      -9.520  -7.885  16.779  0.00  0.00    +0.009 A 
ATOM     33  C   UNL     1     -11.075  -9.969  17.792  0.00  0.00    +0.046 A 
ATOM     34  C   UNL     1      -8.943  -9.132  17.021  0.00  0.00    +0.046 A 
ATOM     35  C   UNL     1      -9.720 -10.173  17.527  0.00  0.00    +0.120 A 
BRANCH  35   4
ATOM      4  O   UNL     1      -9.157 -11.391  17.762  0.00  0.00    -0.495 OA
ATOM     36  C   UNL     1      -8.770 -11.677  19.105  0.00  0.00    +0.277 C 
ENDBRANCH  35   4
ENDBRANCH  25  27
ENDBRANCH   6  25
ENDBRANCH  19  22
ENDBRANCH  14  19
TORSDOF 8
ENDMDL
MODEL 10
REMARK VINA RESULT:      -6.6     24.899     29.420
REMARK  Name = 45361612
REMARK  12 active torsions:
REMARK  status: ('A' for Active; 'I' for Inactive)
REMARK    1  A    between atoms: O_1  and  C_11
REMARK    2  A    between atoms: O_4  and  C_35
REMARK    3  A    between atoms: O_4  and  C_36
REMARK    4  A    between atoms: N_5  and  C_15
REMARK    5  A    between atoms: N_6  and  C_25
REMARK    6  A    between atoms: C_8  and  C_18
REMARK    7  A    between atoms: C_10  and  C_20
REMARK    8  A    between atoms: C_14  and  C_19
REMARK    9  A    between atoms: C_19  and  C_21
REMARK   10  A    between atoms: C_19  and  C_22
REMARK   11  A    between atoms: C_23  and  C_24
REMARK   12  A    between atoms: C_25  and  C_27
REMARK                            x       y       z     vdW  Elec       q    Type
REMARK                         _______ _______ _______ _____ _____    ______ ____
ROOT
ATOM      8  C   UNL     1      12.595   8.610   3.328  0.00  0.00    -0.027 C 
ATOM      9  C   UNL     1      12.699   8.065   4.792  0.00  0.00    +0.028 C 
ATOM     10  C   UNL     1      14.170   7.618   5.118  0.00  0.00    +0.012 C 
ATOM     11  C   UNL     1      11.599   7.003   5.078  0.00  0.00    +0.122 C 
ATOM     12  C   UNL     1      11.165   9.144   3.078  0.00  0.00    +0.007 C 
ATOM     13  C   UNL     1      13.576   9.792   3.158  0.00  0.00    +0.009 C 
ATOM     14  C   UNL     1      10.180   7.508   4.727  0.00  0.00    +0.029 C 
ATOM     15  C   UNL     1      15.157   8.793   4.872  0.00  0.00    +0.076 C 
ATOM     16  C   UNL     1      10.087   8.096   3.319  0.00  0.00    +0.007 C 
ATOM     17  C   UNL     1      15.017   9.426   3.487  0.00  0.00    +0.023 C 
ATOM     18  C   UNL     1      12.914   7.526   2.266  0.00  0.00    +0.011 C 
ATOM     20  C   UNL     1      14.351   7.098   6.554  0.00  0.00    +0.010 C 
ENDROOT
BRANCH  15   5
ATOM      3  O   UNL     1      17.232  10.282   6.183  0.00  0.00    -0.269 OA
ATOM      5  N   UNL     1      16.534   8.383   5.051  0.00  0.00    -0.307 N 
ATOM     23  C   UNL     1      17.464   9.177   5.701  0.00  0.00    +0.263 C 
ATOM     37  H   UNL     1      16.836   7.507   4.633  0.00  0.00    +0.149 HD
BRANCH  23  24
ATOM      7  N   UNL     1      19.285   7.998   4.667  0.00  0.00    -0.250 NA
ATOM     24  C   UNL     1      18.841   8.625   5.780  0.00  0.00    +0.125 A 
ATOM     26  C   UNL     1      19.586   8.768   6.939  0.00  0.00    +0.033 A 
ATOM     28  C   UNL     1      20.870   8.234   6.958  0.00  0.00    +0.004 A 
ATOM     29  C   UNL     1      20.538   7.492   4.723  0.00  0.00    +0.111 A 
ATOM     32  C   UNL     1      21.362   7.583   5.833  0.00  0.00    +0.020 A 
ENDBRANCH  23  24
ENDBRANCH  15   5
BRANCH  11   1
ATOM      1  O   UNL     1      11.589   6.691   6.472  0.00  0.00    -0.391 OA
ATOM     38  H   UNL     1      11.101   7.394   6.935  0.00  0.00    +0.210 HD
ENDBRANCH  11   1
BRANCH  14  19
ATOM     19  C   UNL     1       9.126   6.406   4.892  0.00  0.00    +0.077 C 
ATOM     21  C   UNL     1       8.432   6.542   6.243  0.00  0.00    +0.017 C 
BRANCH  19  22
ATOM      2  O   UNL     1       9.807   4.207   5.644  0.00  0.00    -0.276 OA
ATOM      6  N   UNL     1      10.322   4.846   3.474  0.00  0.00    -0.311 N 
ATOM     22  C   UNL     1       9.777   5.035   4.736  0.00  0.00    +0.216 C 
ATOM     39  H   UNL     1      10.210   5.560   2.762  0.00  0.00    +0.149 HD
BRANCH   6  25
ATOM     25  C   UNL     1      10.994   3.627   3.089  0.00  0.00    +0.139 C 
BRANCH  25  27
ATOM     27  C   UNL     1      11.689   3.763   1.764  0.00  0.00    -0.030 A 
ATOM     30  C   UNL     1      11.037   4.375   0.693  0.00  0.00    +0.009 A 
ATOM     31  C   UNL     1      12.987   3.277   1.605  0.00  0.00    +0.009 A 
ATOM     33  C   UNL     1      11.683   4.501  -0.536  0.00  0.00    +0.046 A 
ATOM     34  C   UNL     1      13.633   3.403   0.375  0.00  0.00    +0.046 A 
ATOM     35  C   UNL     1      12.981   4.015  -0.695  0.00  0.00    +0.120 A 
BRANCH  35   4
ATOM      4  O   UNL     1      13.612   4.139  -1.895  0.00  0.00    -0.495 OA
ATOM     36  C   UNL     1      14.894   4.764  -1.892  0.00  0.00    +0.277 C 
ENDBRANCH  35   4
ENDBRANCH  25  27
ENDBRANCH   6  25
ENDBRANCH  19  22
ENDBRANCH  14  19
TORSDOF 8
ENDMDL
