MODEL 1
REMARK VINA RESULT:      -6.4      0.000      0.000
REMARK  Name = 7050338
REMARK  7 active torsions:
REMARK  status: ('A' for Active; 'I' for Inactive)
REMARK    1  A    between atoms: S_2  and  C_29
REMARK    2  A    between atoms: S_2  and  C_31
REMARK    3  A    between atoms: O_6  and  C_24
REMARK    4  A    between atoms: O_6  and  C_30
REMARK    5  A    between atoms: N_8  and  C_17
REMARK    6  A    between atoms: N_9  and  C_11
REMARK    7  A    between atoms: C_18  and  C_21
REMARK                            x       y       z     vdW  Elec       q    Type
REMARK                         _______ _______ _______ _____ _____    ______ ____
ROOT
ATOM      3  O   UNL     1     -12.586   5.306  21.854  0.00  0.00    -0.273 OA
ATOM      4  O   UNL     1     -15.322   9.017  21.305  0.00  0.00    -0.252 OA
ATOM      7  N   UNL     1     -15.240   7.281  22.842  0.00  0.00    -0.273 N 
ATOM      8  N   UNL     1     -13.679   7.314  21.237  0.00  0.00    -0.193 N 
ATOM     10  C   UNL     1     -14.474   6.094  23.105  0.00  0.00    +0.166 C 
ATOM     11  C   UNL     1     -16.628   5.012  23.895  0.00  0.00    +0.077 C 
ATOM     12  C   UNL     1     -15.357   4.852  23.044  0.00  0.00    +0.054 C 
ATOM     13  C   UNL     1     -17.364   6.323  23.566  0.00  0.00    +0.041 C 
ATOM     14  C   UNL     1     -16.439   7.540  23.620  0.00  0.00    +0.112 C 
ATOM     15  C   UNL     1     -13.455   6.160  21.981  0.00  0.00    +0.248 C 
ATOM     16  C   UNL     1     -14.784   8.007  21.740  0.00  0.00    +0.316 C 
ENDROOT
BRANCH   8  17
ATOM      1 CL   UNL     1     -10.463   9.012  16.531  0.00  0.00    -0.084 Cl
ATOM     17  C   UNL     1     -12.905   7.724  20.104  0.00  0.00    +0.046 A 
ATOM     19  C   UNL     1     -11.584   8.146  20.272  0.00  0.00    +0.025 A 
ATOM     20  C   UNL     1     -13.466   7.702  18.826  0.00  0.00    +0.025 A 
ATOM     22  C   UNL     1     -10.829   8.545  19.168  0.00  0.00    +0.022 A 
ATOM     23  C   UNL     1     -12.712   8.100  17.721  0.00  0.00    +0.022 A 
ATOM     26  C   UNL     1     -11.394   8.522  17.892  0.00  0.00    +0.041 A 
ENDBRANCH   8  17
BRANCH  11   9
ATOM      5  O   UNL     1     -17.650   3.095  25.692  0.00  0.00    -0.270 OA
ATOM      9  N   UNL     1     -16.327   4.932  25.306  0.00  0.00    -0.308 N 
ATOM     18  C   UNL     1     -16.876   3.949  26.127  0.00  0.00    +0.248 C 
ATOM     32  H   UNL     1     -15.774   5.680  25.709  0.00  0.00    +0.149 HD
BRANCH  18  21
ATOM     21  C   UNL     1     -16.447   3.978  27.532  0.00  0.00    +0.078 A 
ATOM     24  C   UNL     1     -16.819   5.029  28.358  0.00  0.00    +0.133 A 
ATOM     25  C   UNL     1     -15.663   2.936  28.010  0.00  0.00    +0.018 A 
ATOM     27  C   UNL     1     -16.400   5.038  29.689  0.00  0.00    +0.061 A 
ATOM     28  C   UNL     1     -15.244   2.946  29.340  0.00  0.00    +0.015 A 
ATOM     29  C   UNL     1     -15.613   3.996  30.180  0.00  0.00    +0.011 A 
BRANCH  29   2
ATOM      2  S   UNL     1     -15.079   4.008  31.880  0.00  0.00    -0.128 S 
ATOM     31  C   UNL     1     -13.541   3.046  31.791  0.00  0.00    +0.090 C 
ENDBRANCH  29   2
BRANCH  24   6
ATOM      6  O   UNL     1     -17.587   6.055  27.898  0.00  0.00    -0.494 OA
ATOM     30  C   UNL     1     -17.264   7.365  28.359  0.00  0.00    +0.277 C 
ENDBRANCH  24   6
ENDBRANCH  18  21
ENDBRANCH  11   9
TORSDOF 5
ENDMDL
MODEL 2
REMARK VINA RESULT:      -6.3     33.495     35.066
REMARK  Name = 7050338
REMARK  7 active torsions:
REMARK  status: ('A' for Active; 'I' for Inactive)
REMARK    1  A    between atoms: S_2  and  C_29
REMARK    2  A    between atoms: S_2  and  C_31
REMARK    3  A    between atoms: O_6  and  C_24
REMARK    4  A    between atoms: O_6  and  C_30
REMARK    5  A    between atoms: N_8  and  C_17
REMARK    6  A    between atoms: N_9  and  C_11
REMARK    7  A    between atoms: C_18  and  C_21
REMARK                            x       y       z     vdW  Elec       q    Type
REMARK                         _______ _______ _______ _____ _____    ______ ____
ROOT
ATOM      3  O   UNL     1       0.167   2.481  -3.897  0.00  0.00    -0.273 OA
ATOM      4  O   UNL     1       1.252   2.537  -8.411  0.00  0.00    -0.252 OA
ATOM      7  N   UNL     1       1.942   3.764  -6.567  0.00  0.00    -0.273 N 
ATOM      8  N   UNL     1       0.452   2.127  -6.221  0.00  0.00    -0.193 N 
ATOM     10  C   UNL     1       1.677   3.854  -5.157  0.00  0.00    +0.166 C 
ATOM     11  C   UNL     1       2.008   6.360  -5.366  0.00  0.00    +0.077 C 
ATOM     12  C   UNL     1       1.134   5.231  -4.792  0.00  0.00    +0.054 C 
ATOM     13  C   UNL     1       2.262   6.163  -6.872  0.00  0.00    +0.041 C 
ATOM     14  C   UNL     1       2.786   4.763  -7.196  0.00  0.00    +0.112 C 
ATOM     15  C   UNL     1       0.654   2.744  -4.990  0.00  0.00    +0.248 C 
ATOM     16  C   UNL     1       1.222   2.753  -7.206  0.00  0.00    +0.316 C 
ENDROOT
BRANCH   8  17
ATOM      1 CL   UNL     1      -3.225  -2.448  -7.181  0.00  0.00    -0.084 Cl
ATOM     17  C   UNL     1      -0.433   1.025  -6.452  0.00  0.00    +0.046 A 
ATOM     19  C   UNL     1      -0.223  -0.193  -5.801  0.00  0.00    +0.025 A 
ATOM     20  C   UNL     1      -1.510   1.163  -7.330  0.00  0.00    +0.025 A 
ATOM     22  C   UNL     1      -1.085  -1.266  -6.026  0.00  0.00    +0.022 A 
ATOM     23  C   UNL     1      -2.373   0.090  -7.555  0.00  0.00    +0.022 A 
ATOM     26  C   UNL     1      -2.160  -1.124  -6.904  0.00  0.00    +0.041 A 
ENDBRANCH   8  17
BRANCH  11   9
ATOM      5  O   UNL     1       3.589   8.686  -5.172  0.00  0.00    -0.270 OA
ATOM      9  N   UNL     1       3.255   6.476  -4.645  0.00  0.00    -0.308 N 
ATOM     18  C   UNL     1       3.976   7.666  -4.598  0.00  0.00    +0.248 C 
ATOM     32  H   UNL     1       3.646   5.627  -4.249  0.00  0.00    +0.149 HD
BRANCH  18  21
ATOM     21  C   UNL     1       5.207   7.636  -3.796  0.00  0.00    +0.078 A 
ATOM     24  C   UNL     1       6.158   6.646  -4.006  0.00  0.00    +0.133 A 
ATOM     25  C   UNL     1       5.395   8.612  -2.827  0.00  0.00    +0.018 A 
ATOM     27  C   UNL     1       7.319   6.634  -3.233  0.00  0.00    +0.061 A 
ATOM     28  C   UNL     1       6.555   8.599  -2.055  0.00  0.00    +0.015 A 
ATOM     29  C   UNL     1       7.518   7.611  -2.258  0.00  0.00    +0.011 A 
BRANCH  29   2
ATOM      2  S   UNL     1       9.001   7.596  -1.271  0.00  0.00    -0.128 S 
ATOM     31  C   UNL     1       9.521   9.333  -1.357  0.00  0.00    +0.090 C 
ENDBRANCH  29   2
BRANCH  24   6
ATOM      6  O   UNL     1       5.982   5.684  -4.954  0.00  0.00    -0.494 OA
ATOM     30  C   UNL     1       6.893   5.679  -6.050  0.00  0.00    +0.277 C 
ENDBRANCH  24   6
ENDBRANCH  18  21
ENDBRANCH  11   9
TORSDOF 5
ENDMDL
MODEL 3
REMARK VINA RESULT:      -6.2     21.272     23.087
REMARK  Name = 7050338
REMARK  7 active torsions:
REMARK  status: ('A' for Active; 'I' for Inactive)
REMARK    1  A    between atoms: S_2  and  C_29
REMARK    2  A    between atoms: S_2  and  C_31
REMARK    3  A    between atoms: O_6  and  C_24
REMARK    4  A    between atoms: O_6  and  C_30
REMARK    5  A    between atoms: N_8  and  C_17
REMARK    6  A    between atoms: N_9  and  C_11
REMARK    7  A    between atoms: C_18  and  C_21
REMARK                            x       y       z     vdW  Elec       q    Type
REMARK                         _______ _______ _______ _____ _____    ______ ____
ROOT
ATOM      3  O   UNL     1      -6.119  -7.673   9.211  0.00  0.00    -0.273 OA
ATOM      4  O   UNL     1      -6.930 -11.883   7.426  0.00  0.00    -0.252 OA
ATOM      7  N   UNL     1      -5.970 -11.118   9.395  0.00  0.00    -0.273 N 
ATOM      8  N   UNL     1      -6.761  -9.584   7.968  0.00  0.00    -0.193 N 
ATOM     10  C   UNL     1      -5.653  -9.874  10.041  0.00  0.00    +0.166 C 
ATOM     11  C   UNL     1      -3.568 -11.002  10.944  0.00  0.00    +0.077 C 
ATOM     12  C   UNL     1      -4.150  -9.747  10.270  0.00  0.00    +0.054 C 
ATOM     13  C   UNL     1      -3.984 -12.284  10.201  0.00  0.00    +0.041 C 
ATOM     14  C   UNL     1      -5.495 -12.361   9.976  0.00  0.00    +0.112 C 
ATOM     15  C   UNL     1      -6.189  -8.882   9.024  0.00  0.00    +0.248 C 
ATOM     16  C   UNL     1      -6.619 -10.960   8.169  0.00  0.00    +0.316 C 
ENDROOT
BRANCH   8  17
ATOM      1 CL   UNL     1      -9.349  -7.096   3.226  0.00  0.00    -0.084 Cl
ATOM     17  C   UNL     1      -7.385  -8.985   6.826  0.00  0.00    +0.046 A 
ATOM     19  C   UNL     1      -8.647  -8.399   6.942  0.00  0.00    +0.025 A 
ATOM     20  C   UNL     1      -6.733  -8.985   5.591  0.00  0.00    +0.025 A 
ATOM     22  C   UNL     1      -9.255  -7.815   5.830  0.00  0.00    +0.022 A 
ATOM     23  C   UNL     1      -7.340  -8.401   4.478  0.00  0.00    +0.022 A 
ATOM     26  C   UNL     1      -8.600  -7.816   4.598  0.00  0.00    +0.041 A 
ENDBRANCH   8  17
BRANCH  11   9
ATOM      5  O   UNL     1      -2.051 -10.020  13.108  0.00  0.00    -0.270 OA
ATOM      9  N   UNL     1      -3.943 -11.069  12.338  0.00  0.00    -0.308 N 
ATOM     18  C   UNL     1      -3.133 -10.557  13.349  0.00  0.00    +0.248 C 
ATOM     32  H   UNL     1      -4.778 -11.595  12.571  0.00  0.00    +0.149 HD
BRANCH  18  21
ATOM     21  C   UNL     1      -3.667 -10.671  14.713  0.00  0.00    +0.078 A 
ATOM     24  C   UNL     1      -4.976 -10.297  14.989  0.00  0.00    +0.133 A 
ATOM     25  C   UNL     1      -2.837 -11.157  15.715  0.00  0.00    +0.018 A 
ATOM     27  C   UNL     1      -5.462 -10.411  16.292  0.00  0.00    +0.061 A 
ATOM     28  C   UNL     1      -3.325 -11.271  17.016  0.00  0.00    +0.015 A 
ATOM     29  C   UNL     1      -4.637 -10.899  17.304  0.00  0.00    +0.011 A 
BRANCH  29   2
ATOM      2  S   UNL     1      -5.260 -11.046  18.968  0.00  0.00    -0.128 S 
ATOM     31  C   UNL     1      -6.537 -12.322  18.774  0.00  0.00    +0.090 C 
ENDBRANCH  29   2
BRANCH  24   6
ATOM      6  O   UNL     1      -5.797  -9.819  14.013  0.00  0.00    -0.494 OA
ATOM     30  C   UNL     1      -7.133 -10.316  13.989  0.00  0.00    +0.277 C 
ENDBRANCH  24   6
ENDBRANCH  18  21
ENDBRANCH  11   9
TORSDOF 5
ENDMDL
MODEL 4
REMARK VINA RESULT:      -6.2      1.698      2.237
REMARK  Name = 7050338
REMARK  7 active torsions:
REMARK  status: ('A' for Active; 'I' for Inactive)
REMARK    1  A    between atoms: S_2  and  C_29
REMARK    2  A    between atoms: S_2  and  C_31
REMARK    3  A    between atoms: O_6  and  C_24
REMARK    4  A    between atoms: O_6  and  C_30
REMARK    5  A    between atoms: N_8  and  C_17
REMARK    6  A    between atoms: N_9  and  C_11
REMARK    7  A    between atoms: C_18  and  C_21
REMARK                            x       y       z     vdW  Elec       q    Type
REMARK                         _______ _______ _______ _____ _____    ______ ____
ROOT
ATOM      3  O   UNL     1     -13.102   4.683  22.031  0.00  0.00    -0.273 OA
ATOM      4  O   UNL     1     -15.786   8.472  22.093  0.00  0.00    -0.252 OA
ATOM      7  N   UNL     1     -15.739   6.503  23.318  0.00  0.00    -0.273 N 
ATOM      8  N   UNL     1     -14.163   6.782  21.751  0.00  0.00    -0.193 N 
ATOM     10  C   UNL     1     -14.991   5.277  23.384  0.00  0.00    +0.166 C 
ATOM     11  C   UNL     1     -17.166   4.109  23.968  0.00  0.00    +0.077 C 
ATOM     12  C   UNL     1     -15.889   4.075  23.109  0.00  0.00    +0.054 C 
ATOM     13  C   UNL     1     -17.882   5.467  23.857  0.00  0.00    +0.041 C 
ATOM     14  C   UNL     1     -16.942   6.644  24.120  0.00  0.00    +0.112 C 
ATOM     15  C   UNL     1     -13.961   5.516  22.294  0.00  0.00    +0.248 C 
ATOM     16  C   UNL     1     -15.264   7.396  22.356  0.00  0.00    +0.316 C 
ENDROOT
BRANCH   8  17
ATOM      1 CL   UNL     1     -10.885   9.198  17.417  0.00  0.00    -0.084 Cl
ATOM     17  C   UNL     1     -13.374   7.364  20.708  0.00  0.00    +0.046 A 
ATOM     19  C   UNL     1     -12.014   7.611  20.911  0.00  0.00    +0.025 A 
ATOM     20  C   UNL     1     -13.960   7.688  19.482  0.00  0.00    +0.025 A 
ATOM     22  C   UNL     1     -11.245   8.178  19.895  0.00  0.00    +0.022 A 
ATOM     23  C   UNL     1     -13.191   8.254  18.466  0.00  0.00    +0.022 A 
ATOM     26  C   UNL     1     -11.834   8.499  18.671  0.00  0.00    +0.041 A 
ENDBRANCH   8  17
BRANCH  11   9
ATOM      5  O   UNL     1     -16.577   1.543  24.976  0.00  0.00    -0.270 OA
ATOM      9  N   UNL     1     -16.878   3.789  25.347  0.00  0.00    -0.308 N 
ATOM     18  C   UNL     1     -16.595   2.491  25.764  0.00  0.00    +0.248 C 
ATOM     32  H   UNL     1     -16.985   4.531  26.030  0.00  0.00    +0.149 HD
BRANCH  18  21
ATOM     21  C   UNL     1     -16.289   2.331  27.192  0.00  0.00    +0.078 A 
ATOM     24  C   UNL     1     -16.741   1.216  27.886  0.00  0.00    +0.133 A 
ATOM     25  C   UNL     1     -15.544   3.314  27.827  0.00  0.00    +0.018 A 
ATOM     27  C   UNL     1     -16.441   1.085  29.243  0.00  0.00    +0.061 A 
ATOM     28  C   UNL     1     -15.245   3.182  29.183  0.00  0.00    +0.015 A 
ATOM     29  C   UNL     1     -15.693   2.067  29.890  0.00  0.00    +0.011 A 
BRANCH  29   2
ATOM      2  S   UNL     1     -15.309   1.898  31.622  0.00  0.00    -0.128 S 
ATOM     31  C   UNL     1     -13.674   2.682  31.717  0.00  0.00    +0.090 C 
ENDBRANCH  29   2
BRANCH  24   6
ATOM      6  O   UNL     1     -17.474   0.246  27.271  0.00  0.00    -0.494 OA
ATOM     30  C   UNL     1     -18.874   0.228  27.534  0.00  0.00    +0.277 C 
ENDBRANCH  24   6
ENDBRANCH  18  21
ENDBRANCH  11   9
TORSDOF 5
ENDMDL
MODEL 5
REMARK VINA RESULT:      -6.1     20.541     23.231
REMARK  Name = 7050338
REMARK  7 active torsions:
REMARK  status: ('A' for Active; 'I' for Inactive)
REMARK    1  A    between atoms: S_2  and  C_29
REMARK    2  A    between atoms: S_2  and  C_31
REMARK    3  A    between atoms: O_6  and  C_24
REMARK    4  A    between atoms: O_6  and  C_30
REMARK    5  A    between atoms: N_8  and  C_17
REMARK    6  A    between atoms: N_9  and  C_11
REMARK    7  A    between atoms: C_18  and  C_21
REMARK                            x       y       z     vdW  Elec       q    Type
REMARK                         _______ _______ _______ _____ _____    ______ ____
ROOT
ATOM      3  O   UNL     1      -8.295 -14.445  17.447  0.00  0.00    -0.273 OA
ATOM      4  O   UNL     1      -7.523 -10.725  20.117  0.00  0.00    -0.252 OA
ATOM      7  N   UNL     1      -6.724 -11.431  18.057  0.00  0.00    -0.273 N 
ATOM      8  N   UNL     1      -8.247 -12.723  19.072  0.00  0.00    -0.193 N 
ATOM     10  C   UNL     1      -6.867 -12.541  17.155  0.00  0.00    +0.166 C 
ATOM     11  C   UNL     1      -4.408 -12.263  16.598  0.00  0.00    +0.077 C 
ATOM     12  C   UNL     1      -5.533 -13.251  16.950  0.00  0.00    +0.054 C 
ATOM     13  C   UNL     1      -4.351 -11.096  17.600  0.00  0.00    +0.041 C 
ATOM     14  C   UNL     1      -5.712 -10.424  17.790  0.00  0.00    +0.112 C 
ATOM     15  C   UNL     1      -7.885 -13.383  17.902  0.00  0.00    +0.248 C 
ATOM     16  C   UNL     1      -7.528 -11.529  19.194  0.00  0.00    +0.316 C 
ENDROOT
BRANCH   8  17
ATOM      1 CL   UNL     1     -12.199 -14.727  23.038  0.00  0.00    -0.084 Cl
ATOM     17  C   UNL     1      -9.198 -13.205  20.027  0.00  0.00    +0.046 A 
ATOM     19  C   UNL     1     -10.453 -12.601  20.134  0.00  0.00    +0.025 A 
ATOM     20  C   UNL     1      -8.875 -14.281  20.857  0.00  0.00    +0.025 A 
ATOM     22  C   UNL     1     -11.381 -13.071  21.064  0.00  0.00    +0.022 A 
ATOM     23  C   UNL     1      -9.802 -14.751  21.787  0.00  0.00    +0.022 A 
ATOM     26  C   UNL     1     -11.055 -14.147  21.891  0.00  0.00    +0.041 A 
ENDBRANCH   8  17
BRANCH  11   9
ATOM      5  O   UNL     1      -2.452 -10.832  15.157  0.00  0.00    -0.270 OA
ATOM      9  N   UNL     1      -4.544 -11.774  15.245  0.00  0.00    -0.308 N 
ATOM     18  C   UNL     1      -3.526 -11.073  14.604  0.00  0.00    +0.248 C 
ATOM     32  H   UNL     1      -5.453 -11.870  14.804  0.00  0.00    +0.149 HD
BRANCH  18  21
ATOM     21  C   UNL     1      -3.802 -10.671  13.218  0.00  0.00    +0.078 A 
ATOM     24  C   UNL     1      -5.005 -10.059  12.891  0.00  0.00    +0.133 A 
ATOM     25  C   UNL     1      -2.839 -10.917  12.248  0.00  0.00    +0.018 A 
ATOM     27  C   UNL     1      -5.249  -9.687  11.568  0.00  0.00    +0.061 A 
ATOM     28  C   UNL     1      -3.084 -10.544  10.927  0.00  0.00    +0.015 A 
ATOM     29  C   UNL     1      -4.288  -9.928  10.587  0.00  0.00    +0.011 A 
BRANCH  29   2
ATOM      2  S   UNL     1      -4.599  -9.452   8.899  0.00  0.00    -0.128 S 
ATOM     31  C   UNL     1      -6.347  -8.964   8.968  0.00  0.00    +0.090 C 
ENDBRANCH  29   2
BRANCH  24   6
ATOM      6  O   UNL     1      -5.956  -9.815  13.835  0.00  0.00    -0.494 OA
ATOM     30  C   UNL     1      -7.314  -9.820  13.403  0.00  0.00    +0.277 C 
ENDBRANCH  24   6
ENDBRANCH  18  21
ENDBRANCH  11   9
TORSDOF 5
ENDMDL
MODEL 6
REMARK VINA RESULT:      -6.1      8.394     10.026
REMARK  Name = 7050338
REMARK  7 active torsions:
REMARK  status: ('A' for Active; 'I' for Inactive)
REMARK    1  A    between atoms: S_2  and  C_29
REMARK    2  A    between atoms: S_2  and  C_31
REMARK    3  A    between atoms: O_6  and  C_24
REMARK    4  A    between atoms: O_6  and  C_30
REMARK    5  A    between atoms: N_8  and  C_17
REMARK    6  A    between atoms: N_9  and  C_11
REMARK    7  A    between atoms: C_18  and  C_21
REMARK                            x       y       z     vdW  Elec       q    Type
REMARK                         _______ _______ _______ _____ _____    ______ ____
ROOT
ATOM      3  O   UNL     1     -11.384   9.771  30.141  0.00  0.00    -0.273 OA
ATOM      4  O   UNL     1     -11.350  10.697  34.691  0.00  0.00    -0.252 OA
ATOM      7  N   UNL     1     -12.434   9.130  33.367  0.00  0.00    -0.273 N 
ATOM      8  N   UNL     1     -11.027  10.546  32.350  0.00  0.00    -0.193 N 
ATOM     10  C   UNL     1     -12.540   8.760  31.982  0.00  0.00    +0.166 C 
ATOM     11  C   UNL     1     -14.974   8.203  32.431  0.00  0.00    +0.077 C 
ATOM     12  C   UNL     1     -13.976   8.900  31.490  0.00  0.00    +0.054 C 
ATOM     13  C   UNL     1     -14.765   8.639  33.893  0.00  0.00    +0.041 C 
ATOM     14  C   UNL     1     -13.309   8.500  34.340  0.00  0.00    +0.112 C 
ATOM     15  C   UNL     1     -11.589   9.760  31.349  0.00  0.00    +0.248 C 
ATOM     16  C   UNL     1     -11.549  10.185  33.596  0.00  0.00    +0.316 C 
ENDROOT
BRANCH   8  17
ATOM      1 CL   UNL     1      -7.053  14.881  31.462  0.00  0.00    -0.084 Cl
ATOM     17  C   UNL     1     -10.070  11.589  32.136  0.00  0.00    +0.046 A 
ATOM     19  C   UNL     1     -10.458  12.782  31.521  0.00  0.00    +0.025 A 
ATOM     20  C   UNL     1      -8.744  11.419  32.540  0.00  0.00    +0.025 A 
ATOM     22  C   UNL     1      -9.527  13.799  31.313  0.00  0.00    +0.022 A 
ATOM     23  C   UNL     1      -7.812  12.436  32.332  0.00  0.00    +0.022 A 
ATOM     26  C   UNL     1      -8.203  13.626  31.718  0.00  0.00    +0.041 A 
ENDBRANCH   8  17
BRANCH  11   9
ATOM      5  O   UNL     1     -16.697   6.587  30.894  0.00  0.00    -0.270 OA
ATOM      9  N   UNL     1     -14.895   6.766  32.306  0.00  0.00    -0.308 N 
ATOM     18  C   UNL     1     -15.789   6.040  31.522  0.00  0.00    +0.248 C 
ATOM     32  H   UNL     1     -14.222   6.283  32.891  0.00  0.00    +0.149 HD
BRANCH  18  21
ATOM     21  C   UNL     1     -15.559   4.590  31.468  0.00  0.00    +0.078 A 
ATOM     24  C   UNL     1     -15.472   3.849  32.639  0.00  0.00    +0.133 A 
ATOM     25  C   UNL     1     -15.431   3.982  30.227  0.00  0.00    +0.018 A 
ATOM     27  C   UNL     1     -15.251   2.473  32.566  0.00  0.00    +0.061 A 
ATOM     28  C   UNL     1     -15.210   2.607  30.155  0.00  0.00    +0.015 A 
ATOM     29  C   UNL     1     -15.121   1.853  31.324  0.00  0.00    +0.011 A 
BRANCH  29   2
ATOM      2  S   UNL     1     -14.841   0.095  31.231  0.00  0.00    -0.128 S 
ATOM     31  C   UNL     1     -13.708  -0.024  29.817  0.00  0.00    +0.090 C 
ENDBRANCH  29   2
BRANCH  24   6
ATOM      6  O   UNL     1     -15.596   4.437  33.862  0.00  0.00    -0.494 OA
ATOM     30  C   UNL     1     -14.452   4.414  34.711  0.00  0.00    +0.277 C 
ENDBRANCH  24   6
ENDBRANCH  18  21
ENDBRANCH  11   9
TORSDOF 5
ENDMDL
MODEL 7
REMARK VINA RESULT:      -6.0     30.719     35.151
REMARK  Name = 7050338
REMARK  7 active torsions:
REMARK  status: ('A' for Active; 'I' for Inactive)
REMARK    1  A    between atoms: S_2  and  C_29
REMARK    2  A    between atoms: S_2  and  C_31
REMARK    3  A    between atoms: O_6  and  C_24
REMARK    4  A    between atoms: O_6  and  C_30
REMARK    5  A    between atoms: N_8  and  C_17
REMARK    6  A    between atoms: N_9  and  C_11
REMARK    7  A    between atoms: C_18  and  C_21
REMARK                            x       y       z     vdW  Elec       q    Type
REMARK                         _______ _______ _______ _____ _____    ______ ____
ROOT
ATOM      3  O   UNL     1      10.069   5.949  -1.376  0.00  0.00    -0.273 OA
ATOM      4  O   UNL     1      12.750   2.168  -1.656  0.00  0.00    -0.252 OA
ATOM      7  N   UNL     1      12.296   3.709   0.019  0.00  0.00    -0.273 N 
ATOM      8  N   UNL     1      11.234   3.966  -1.938  0.00  0.00    -0.193 N 
ATOM     10  C   UNL     1      11.519   4.901   0.221  0.00  0.00    +0.166 C 
ATOM     11  C   UNL     1      13.401   5.744   1.697  0.00  0.00    +0.077 C 
ATOM     12  C   UNL     1      12.418   6.084   0.564  0.00  0.00    +0.054 C 
ATOM     13  C   UNL     1      14.164   4.439   1.407  0.00  0.00    +0.041 C 
ATOM     14  C   UNL     1      13.227   3.285   1.048  0.00  0.00    +0.112 C 
ATOM     15  C   UNL     1      10.846   5.034  -1.134  0.00  0.00    +0.248 C 
ATOM     16  C   UNL     1      12.140   3.150  -1.252  0.00  0.00    +0.316 C 
ENDROOT
BRANCH   8  17
ATOM      1 CL   UNL     1       9.389   3.048  -7.516  0.00  0.00    -0.084 Cl
ATOM     17  C   UNL     1      10.791   3.745  -3.281  0.00  0.00    +0.046 A 
ATOM     19  C   UNL     1       9.855   2.745  -3.555  0.00  0.00    +0.025 A 
ATOM     20  C   UNL     1      11.292   4.528  -4.323  0.00  0.00    +0.025 A 
ATOM     22  C   UNL     1       9.421   2.529  -4.863  0.00  0.00    +0.022 A 
ATOM     23  C   UNL     1      10.859   4.312  -5.632  0.00  0.00    +0.022 A 
ATOM     26  C   UNL     1       9.924   3.314  -5.902  0.00  0.00    +0.041 A 
ENDBRANCH   8  17
BRANCH  11   9
ATOM      5  O   UNL     1      12.560   7.948   3.241  0.00  0.00    -0.270 OA
ATOM      9  N   UNL     1      12.726   5.673   2.973  0.00  0.00    -0.308 N 
ATOM     18  C   UNL     1      12.342   6.814   3.673  0.00  0.00    +0.248 C 
ATOM     32  H   UNL     1      12.626   4.757   3.397  0.00  0.00    +0.149 HD
BRANCH  18  21
ATOM     21  C   UNL     1      11.635   6.579   4.939  0.00  0.00    +0.078 A 
ATOM     24  C   UNL     1      12.254   6.855   6.151  0.00  0.00    +0.133 A 
ATOM     25  C   UNL     1      10.342   6.075   4.896  0.00  0.00    +0.018 A 
ATOM     27  C   UNL     1      11.565   6.622   7.342  0.00  0.00    +0.061 A 
ATOM     28  C   UNL     1       9.655   5.843   6.086  0.00  0.00    +0.015 A 
ATOM     29  C   UNL     1      10.266   6.117   7.309  0.00  0.00    +0.011 A 
BRANCH  29   2
ATOM      2  S   UNL     1       9.386   5.821   8.831  0.00  0.00    -0.128 S 
ATOM     31  C   UNL     1       9.466   4.012   8.958  0.00  0.00    +0.090 C 
ENDBRANCH  29   2
BRANCH  24   6
ATOM      6  O   UNL     1      13.522   7.348   6.204  0.00  0.00    -0.494 OA
ATOM     30  C   UNL     1      13.688   8.652   6.756  0.00  0.00    +0.277 C 
ENDBRANCH  24   6
ENDBRANCH  18  21
ENDBRANCH  11   9
TORSDOF 5
ENDMDL
MODEL 8
REMARK VINA RESULT:      -5.9      5.267     10.645
REMARK  Name = 7050338
REMARK  7 active torsions:
REMARK  status: ('A' for Active; 'I' for Inactive)
REMARK    1  A    between atoms: S_2  and  C_29
REMARK    2  A    between atoms: S_2  and  C_31
REMARK    3  A    between atoms: O_6  and  C_24
REMARK    4  A    between atoms: O_6  and  C_30
REMARK    5  A    between atoms: N_8  and  C_17
REMARK    6  A    between atoms: N_9  and  C_11
REMARK    7  A    between atoms: C_18  and  C_21
REMARK                            x       y       z     vdW  Elec       q    Type
REMARK                         _______ _______ _______ _____ _____    ______ ____
ROOT
ATOM      3  O   UNL     1     -14.326   4.361  21.608  0.00  0.00    -0.273 OA
ATOM      4  O   UNL     1     -16.022   8.159  23.673  0.00  0.00    -0.252 OA
ATOM      7  N   UNL     1     -14.613   7.792  21.866  0.00  0.00    -0.273 N 
ATOM      8  N   UNL     1     -15.445   5.993  22.909  0.00  0.00    -0.193 N 
ATOM     10  C   UNL     1     -14.014   6.695  21.156  0.00  0.00    +0.166 C 
ATOM     11  C   UNL     1     -11.968   8.161  20.840  0.00  0.00    +0.077 C 
ATOM     12  C   UNL     1     -12.492   6.767  21.227  0.00  0.00    +0.054 C 
ATOM     13  C   UNL     1     -12.687   9.271  21.628  0.00  0.00    +0.041 C 
ATOM     14  C   UNL     1     -14.210   9.150  21.546  0.00  0.00    +0.112 C 
ATOM     15  C   UNL     1     -14.593   5.516  21.917  0.00  0.00    +0.248 C 
ATOM     16  C   UNL     1     -15.455   7.391  22.905  0.00  0.00    +0.316 C 
ENDROOT
BRANCH   8  17
ATOM      1 CL   UNL     1     -18.522   2.590  26.694  0.00  0.00    -0.084 Cl
ATOM     17  C   UNL     1     -16.185   5.173  23.820  0.00  0.00    +0.046 A 
ATOM     19  C   UNL     1     -15.518   4.289  24.671  0.00  0.00    +0.025 A 
ATOM     20  C   UNL     1     -17.579   5.254  23.862  0.00  0.00    +0.025 A 
ATOM     22  C   UNL     1     -16.239   3.490  25.559  0.00  0.00    +0.022 A 
ATOM     23  C   UNL     1     -18.301   4.456  24.750  0.00  0.00    +0.022 A 
ATOM     26  C   UNL     1     -17.631   3.574  25.598  0.00  0.00    +0.041 A 
ENDBRANCH   8  17
BRANCH  11   9
ATOM      5  O   UNL     1     -10.024   9.390  19.209  0.00  0.00    -0.270 OA
ATOM      9  N   UNL     1     -12.079   8.386  19.417  0.00  0.00    -0.308 N 
ATOM     18  C   UNL     1     -11.068   9.002  18.682  0.00  0.00    +0.248 C 
ATOM     32  H   UNL     1     -12.967   8.168  18.978  0.00  0.00    +0.149 HD
BRANCH  18  21
ATOM     21  C   UNL     1     -11.314   9.128  17.239  0.00  0.00    +0.078 A 
ATOM     24  C   UNL     1     -12.266  10.021  16.765  0.00  0.00    +0.133 A 
ATOM     25  C   UNL     1     -10.579   8.338  16.367  0.00  0.00    +0.018 A 
ATOM     27  C   UNL     1     -12.485  10.125  15.391  0.00  0.00    +0.061 A 
ATOM     28  C   UNL     1     -10.799   8.442  14.994  0.00  0.00    +0.015 A 
ATOM     29  C   UNL     1     -11.751   9.336  14.506  0.00  0.00    +0.011 A 
BRANCH  29   2
ATOM      2  S   UNL     1     -12.031   9.469  12.751  0.00  0.00    -0.128 S 
ATOM     31  C   UNL     1     -13.713   8.805  12.593  0.00  0.00    +0.090 C 
ENDBRANCH  29   2
BRANCH  24   6
ATOM      6  O   UNL     1     -12.993  10.801  17.613  0.00  0.00    -0.494 OA
ATOM     30  C   UNL     1     -14.411  10.678  17.550  0.00  0.00    +0.277 C 
ENDBRANCH  24   6
ENDBRANCH  18  21
ENDBRANCH  11   9
TORSDOF 5
ENDMDL
MODEL 9
REMARK VINA RESULT:      -5.9     21.660     23.381
REMARK  Name = 7050338
REMARK  7 active torsions:
REMARK  status: ('A' for Active; 'I' for Inactive)
REMARK    1  A    between atoms: S_2  and  C_29
REMARK    2  A    between atoms: S_2  and  C_31
REMARK    3  A    between atoms: O_6  and  C_24
REMARK    4  A    between atoms: O_6  and  C_30
REMARK    5  A    between atoms: N_8  and  C_17
REMARK    6  A    between atoms: N_9  and  C_11
REMARK    7  A    between atoms: C_18  and  C_21
REMARK                            x       y       z     vdW  Elec       q    Type
REMARK                         _______ _______ _______ _____ _____    ______ ____
ROOT
ATOM      3  O   UNL     1      -7.082  -7.476   8.787  0.00  0.00    -0.273 OA
ATOM      4  O   UNL     1      -6.588 -11.699   6.921  0.00  0.00    -0.252 OA
ATOM      7  N   UNL     1      -5.950 -10.735   8.933  0.00  0.00    -0.273 N 
ATOM      8  N   UNL     1      -7.107  -9.462   7.497  0.00  0.00    -0.193 N 
ATOM     10  C   UNL     1      -6.025  -9.467   9.605  0.00  0.00    +0.166 C 
ATOM     11  C   UNL     1      -3.731  -9.965  10.567  0.00  0.00    +0.077 C 
ATOM     12  C   UNL     1      -4.631  -8.917   9.889  0.00  0.00    +0.054 C 
ATOM     13  C   UNL     1      -3.737 -11.296   9.793  0.00  0.00    +0.041 C 
ATOM     14  C   UNL     1      -5.154 -11.801   9.513  0.00  0.00    +0.112 C 
ATOM     15  C   UNL     1      -6.794  -8.649   8.583  0.00  0.00    +0.248 C 
ATOM     16  C   UNL     1      -6.580 -10.743   7.686  0.00  0.00    +0.316 C 
ENDROOT
BRANCH   8  17
ATOM      1 CL   UNL     1     -10.159  -7.724   2.698  0.00  0.00    -0.084 Cl
ATOM     17  C   UNL     1      -7.842  -9.043   6.342  0.00  0.00    +0.046 A 
ATOM     19  C   UNL     1      -7.166  -8.638   5.189  0.00  0.00    +0.025 A 
ATOM     20  C   UNL     1      -9.238  -9.038   6.363  0.00  0.00    +0.025 A 
ATOM     22  C   UNL     1      -7.881  -8.230   4.063  0.00  0.00    +0.022 A 
ATOM     23  C   UNL     1      -9.955  -8.630   5.237  0.00  0.00    +0.022 A 
ATOM     26  C   UNL     1      -9.276  -8.226   4.087  0.00  0.00    +0.041 A 
ENDBRANCH   8  17
BRANCH  11   9
ATOM      5  O   UNL     1      -1.990 -10.658  12.673  0.00  0.00    -0.270 OA
ATOM      9  N   UNL     1      -4.113 -10.170  11.946  0.00  0.00    -0.308 N 
ATOM     18  C   UNL     1      -3.187 -10.511  12.928  0.00  0.00    +0.248 C 
ATOM     32  H   UNL     1      -5.104 -10.155  12.163  0.00  0.00    +0.149 HD
BRANCH  18  21
ATOM     21  C   UNL     1      -3.723 -10.651  14.289  0.00  0.00    +0.078 A 
ATOM     24  C   UNL     1      -2.877 -10.952  15.349  0.00  0.00    +0.133 A 
ATOM     25  C   UNL     1      -5.086 -10.479  14.489  0.00  0.00    +0.018 A 
ATOM     27  C   UNL     1      -3.407 -11.083  16.634  0.00  0.00    +0.061 A 
ATOM     28  C   UNL     1      -5.613 -10.610  15.773  0.00  0.00    +0.015 A 
ATOM     29  C   UNL     1      -4.774 -10.911  16.845  0.00  0.00    +0.011 A 
BRANCH  29   2
ATOM      2  S   UNL     1      -5.450 -11.077  18.486  0.00  0.00    -0.128 S 
ATOM     31  C   UNL     1      -4.123 -11.971  19.344  0.00  0.00    +0.090 C 
ENDBRANCH  29   2
BRANCH  24   6
ATOM      6  O   UNL     1      -1.539 -11.123  15.163  0.00  0.00    -0.494 OA
ATOM     30  C   UNL     1      -0.667 -10.290  15.923  0.00  0.00    +0.277 C 
ENDBRANCH  24   6
ENDBRANCH  18  21
ENDBRANCH  11   9
TORSDOF 5
ENDMDL
MODEL 10
REMARK VINA RESULT:      -5.8     16.573     17.830
REMARK  Name = 7050338
REMARK  7 active torsions:
REMARK  status: ('A' for Active; 'I' for Inactive)
REMARK    1  A    between atoms: S_2  and  C_29
REMARK    2  A    between atoms: S_2  and  C_31
REMARK    3  A    between atoms: O_6  and  C_24
REMARK    4  A    between atoms: O_6  and  C_30
REMARK    5  A    between atoms: N_8  and  C_17
REMARK    6  A    between atoms: N_9  and  C_11
REMARK    7  A    between atoms: C_18  and  C_21
REMARK                            x       y       z     vdW  Elec       q    Type
REMARK                         _______ _______ _______ _____ _____    ______ ____
ROOT
ATOM      3  O   UNL     1     -12.079  -5.951  16.256  0.00  0.00    -0.273 OA
ATOM      4  O   UNL     1     -11.939  -8.187  12.189  0.00  0.00    -0.252 OA
ATOM      7  N   UNL     1     -11.179  -8.670  14.328  0.00  0.00    -0.273 N 
ATOM      8  N   UNL     1     -12.281  -6.742  14.033  0.00  0.00    -0.193 N 
ATOM     10  C   UNL     1     -11.145  -8.070  15.633  0.00  0.00    +0.166 C 
ATOM     11  C   UNL     1      -8.867  -9.142  15.946  0.00  0.00    +0.077 C 
ATOM     12  C   UNL     1      -9.708  -7.862  16.100  0.00  0.00    +0.054 C 
ATOM     13  C   UNL     1      -8.989  -9.727  14.527  0.00  0.00    +0.041 C 
ATOM     14  C   UNL     1     -10.445  -9.901  14.092  0.00  0.00    +0.112 C 
ATOM     15  C   UNL     1     -11.881  -6.769  15.366  0.00  0.00    +0.248 C 
ATOM     16  C   UNL     1     -11.842  -7.895  13.374  0.00  0.00    +0.316 C 
ENDROOT
BRANCH   8  17
ATOM      1 CL   UNL     1     -15.332  -2.325  11.474  0.00  0.00    -0.084 Cl
ATOM     17  C   UNL     1     -13.016  -5.678  13.418  0.00  0.00    +0.046 A 
ATOM     19  C   UNL     1     -12.339  -4.609  12.826  0.00  0.00    +0.025 A 
ATOM     20  C   UNL     1     -14.412  -5.706  13.405  0.00  0.00    +0.025 A 
ATOM     22  C   UNL     1     -13.055  -3.573  12.225  0.00  0.00    +0.022 A 
ATOM     23  C   UNL     1     -15.128  -4.670  12.805  0.00  0.00    +0.022 A 
ATOM     26  C   UNL     1     -14.450  -3.603  12.215  0.00  0.00    +0.041 A 
ENDBRANCH   8  17
BRANCH  11   9
ATOM      5  O   UNL     1      -7.337  -9.821  18.214  0.00  0.00    -0.270 OA
ATOM      9  N   UNL     1      -9.224 -10.126  16.941  0.00  0.00    -0.308 N 
ATOM     18  C   UNL     1      -8.409 -10.402  18.037  0.00  0.00    +0.248 C 
ATOM     32  H   UNL     1     -10.049 -10.689  16.766  0.00  0.00    +0.149 HD
BRANCH  18  21
ATOM     21  C   UNL     1      -8.924 -11.404  18.980  0.00  0.00    +0.078 A 
ATOM     24  C   UNL     1     -10.199 -11.274  19.515  0.00  0.00    +0.133 A 
ATOM     25  C   UNL     1      -8.112 -12.476  19.323  0.00  0.00    +0.018 A 
ATOM     27  C   UNL     1     -10.669 -12.236  20.410  0.00  0.00    +0.061 A 
ATOM     28  C   UNL     1      -8.582 -13.436  20.217  0.00  0.00    +0.015 A 
ATOM     29  C   UNL     1      -9.861 -13.317  20.760  0.00  0.00    +0.011 A 
BRANCH  29   2
ATOM      2  S   UNL     1     -10.462 -14.545  21.903  0.00  0.00    -0.128 S 
ATOM     31  C   UNL     1      -8.971 -15.540  22.195  0.00  0.00    +0.090 C 
ENDBRANCH  29   2
BRANCH  24   6
ATOM      6  O   UNL     1     -11.004 -10.225  19.185  0.00  0.00    -0.494 OA
ATOM     30  C   UNL     1     -12.072  -9.922  20.078  0.00  0.00    +0.277 C 
ENDBRANCH  24   6
ENDBRANCH  18  21
ENDBRANCH  11   9
TORSDOF 5
ENDMDL
