MODEL 1
REMARK VINA RESULT:      -6.1      0.000      0.000
REMARK  Name = 7050317
REMARK  4 active torsions:
REMARK  status: ('A' for Active; 'I' for Inactive)
REMARK    1  A    between atoms: N_6  and  C_16
REMARK    2  A    between atoms: N_7  and  C_11
REMARK    3  A    between atoms: C_16  and  C_18
REMARK    4  A    between atoms: C_17  and  C_19
REMARK                            x       y       z     vdW  Elec       q    Type
REMARK                         _______ _______ _______ _____ _____    ______ ____
ROOT
ATOM      2  O   UNL     1      10.570  11.402  23.634  0.00  0.00    -0.273 OA
ATOM      3  O   UNL     1      15.037  11.695  24.728  0.00  0.00    -0.252 OA
ATOM      5  N   UNL     1      13.893  10.694  22.944  0.00  0.00    -0.273 N 
ATOM      6  N   UNL     1      12.716  11.806  24.470  0.00  0.00    -0.223 N 
ATOM      9  C   UNL     1      12.531  10.556  22.483  0.00  0.00    +0.166 C 
ATOM     10  C   UNL     1      12.145   9.084  22.375  0.00  0.00    +0.054 C 
ATOM     11  C   UNL     1      13.186   8.289  21.568  0.00  0.00    +0.077 C 
ATOM     12  C   UNL     1      14.607   8.511  22.121  0.00  0.00    +0.041 C 
ATOM     13  C   UNL     1      14.957   9.996  22.247  0.00  0.00    +0.112 C 
ATOM     14  C   UNL     1      11.788  11.297  23.584  0.00  0.00    +0.244 C 
ATOM     15  C   UNL     1      14.005  11.439  24.119  0.00  0.00    +0.312 C 
ENDROOT
BRANCH  11   7
ATOM      4  O   UNL     1      11.908   6.764  19.570  0.00  0.00    -0.270 OA
ATOM      7  N   UNL     1      13.120   8.623  20.163  0.00  0.00    -0.308 N 
ATOM     17  C   UNL     1      12.466   7.812  19.238  0.00  0.00    +0.244 C 
ATOM     24  H   UNL     1      13.585   9.473  19.865  0.00  0.00    +0.149 HD
BRANCH  17  19
ATOM      8  N   UNL     1      12.439   9.230  15.233  0.00  0.00    -0.263 NA
ATOM     19  C   UNL     1      12.456   8.302  17.852  0.00  0.00    +0.040 A 
ATOM     20  C   UNL     1      11.250   8.573  17.232  0.00  0.00    +0.033 A 
ATOM     21  C   UNL     1      13.654   8.486  17.186  0.00  0.00    +0.033 A 
ATOM     22  C   UNL     1      11.296   9.033  15.926  0.00  0.00    +0.111 A 
ATOM     23  C   UNL     1      13.591   8.950  15.882  0.00  0.00    +0.111 A 
ENDBRANCH  17  19
ENDBRANCH  11   7
BRANCH   6  16
ATOM     16  C   UNL     1      12.386  12.580  25.649  0.00  0.00    +0.134 C 
BRANCH  16  18
ATOM      1 CL   UNL     1      10.484  14.484  25.191  0.00  0.00    -0.124 Cl
ATOM     18  C   UNL     1      12.207  14.058  25.345  0.00  0.00    +0.128 C 
ENDBRANCH  16  18
ENDBRANCH   6  16
TORSDOF 4
ENDMDL
MODEL 2
REMARK VINA RESULT:      -5.7     29.511     30.497
REMARK  Name = 7050317
REMARK  4 active torsions:
REMARK  status: ('A' for Active; 'I' for Inactive)
REMARK    1  A    between atoms: N_6  and  C_16
REMARK    2  A    between atoms: N_7  and  C_11
REMARK    3  A    between atoms: C_16  and  C_18
REMARK    4  A    between atoms: C_17  and  C_19
REMARK                            x       y       z     vdW  Elec       q    Type
REMARK                         _______ _______ _______ _____ _____    ______ ____
ROOT
ATOM      2  O   UNL     1     -16.385   5.855  31.201  0.00  0.00    -0.273 OA
ATOM      3  O   UNL     1     -12.881   2.997  32.086  0.00  0.00    -0.252 OA
ATOM      5  N   UNL     1     -14.531   3.030  30.424  0.00  0.00    -0.273 N 
ATOM      6  N   UNL     1     -14.496   4.678  31.918  0.00  0.00    -0.223 N 
ATOM      9  C   UNL     1     -15.644   3.864  30.030  0.00  0.00    +0.166 C 
ATOM     10  C   UNL     1     -16.944   3.067  30.037  0.00  0.00    +0.054 C 
ATOM     11  C   UNL     1     -16.803   1.756  29.243  0.00  0.00    +0.077 C 
ATOM     12  C   UNL     1     -15.584   0.945  29.721  0.00  0.00    +0.041 C 
ATOM     13  C   UNL     1     -14.299   1.776  29.732  0.00  0.00    +0.112 C 
ATOM     14  C   UNL     1     -15.584   4.934  31.108  0.00  0.00    +0.244 C 
ATOM     15  C   UNL     1     -13.847   3.514  31.539  0.00  0.00    +0.312 C 
ENDROOT
BRANCH  11   7
ATOM      4  O   UNL     1     -17.919   0.146  27.214  0.00  0.00    -0.270 OA
ATOM      7  N   UNL     1     -16.729   2.015  27.823  0.00  0.00    -0.308 N 
ATOM     17  C   UNL     1     -17.310   1.166  26.884  0.00  0.00    +0.244 C 
ATOM     24  H   UNL     1     -16.220   2.840  27.527  0.00  0.00    +0.149 HD
BRANCH  17  19
ATOM      8  N   UNL     1     -16.929   2.367  22.825  0.00  0.00    -0.263 NA
ATOM     19  C   UNL     1     -17.178   1.581  25.479  0.00  0.00    +0.040 A 
ATOM     20  C   UNL     1     -17.878   0.902  24.498  0.00  0.00    +0.033 A 
ATOM     21  C   UNL     1     -16.356   2.645  25.158  0.00  0.00    +0.033 A 
ATOM     22  C   UNL     1     -17.720   1.333  23.191  0.00  0.00    +0.111 A 
ATOM     23  C   UNL     1     -16.266   2.997  23.820  0.00  0.00    +0.111 A 
ENDBRANCH  17  19
ENDBRANCH  11   7
BRANCH   6  16
ATOM     16  C   UNL     1     -14.111   5.489  33.055  0.00  0.00    +0.134 C 
BRANCH  16  18
ATOM      1 CL   UNL     1     -13.835   5.222  35.757  0.00  0.00    -0.124 Cl
ATOM     18  C   UNL     1     -14.878   5.127  34.316  0.00  0.00    +0.128 C 
ENDBRANCH  16  18
ENDBRANCH   6  16
TORSDOF 4
ENDMDL
MODEL 3
REMARK VINA RESULT:      -5.5     27.498     28.827
REMARK  Name = 7050317
REMARK  4 active torsions:
REMARK  status: ('A' for Active; 'I' for Inactive)
REMARK    1  A    between atoms: N_6  and  C_16
REMARK    2  A    between atoms: N_7  and  C_11
REMARK    3  A    between atoms: C_16  and  C_18
REMARK    4  A    between atoms: C_17  and  C_19
REMARK                            x       y       z     vdW  Elec       q    Type
REMARK                         _______ _______ _______ _____ _____    ______ ____
ROOT
ATOM      2  O   UNL     1      -7.888 -13.917  17.181  0.00  0.00    -0.273 OA
ATOM      3  O   UNL     1      -6.355 -10.688  20.089  0.00  0.00    -0.252 OA
ATOM      5  N   UNL     1      -5.867 -11.180  17.851  0.00  0.00    -0.273 N 
ATOM      6  N   UNL     1      -7.399 -12.408  18.898  0.00  0.00    -0.223 N 
ATOM      9  C   UNL     1      -6.287 -12.126  16.842  0.00  0.00    +0.166 C 
ATOM     10  C   UNL     1      -5.100 -12.940  16.338  0.00  0.00    +0.054 C 
ATOM     11  C   UNL     1      -3.929 -12.029  15.927  0.00  0.00    +0.077 C 
ATOM     12  C   UNL     1      -3.565 -11.047  17.056  0.00  0.00    +0.041 C 
ATOM     13  C   UNL     1      -4.779 -10.265  17.563  0.00  0.00    +0.112 C 
ATOM     14  C   UNL     1      -7.292 -12.948  17.633  0.00  0.00    +0.244 C 
ATOM     15  C   UNL     1      -6.529 -11.343  19.068  0.00  0.00    +0.312 C 
ENDROOT
BRANCH  11   7
ATOM      4  O   UNL     1      -2.099 -11.480  13.852  0.00  0.00    -0.270 OA
ATOM      7  N   UNL     1      -4.227 -11.322  14.702  0.00  0.00    -0.308 N 
ATOM     17  C   UNL     1      -3.262 -11.092  13.724  0.00  0.00    +0.244 C 
ATOM     24  H   UNL     1      -5.175 -10.980  14.582  0.00  0.00    +0.149 HD
BRANCH  17  19
ATOM      8  N   UNL     1      -4.606  -9.059  10.243  0.00  0.00    -0.263 NA
ATOM     19  C   UNL     1      -3.727 -10.388  12.520  0.00  0.00    +0.040 A 
ATOM     20  C   UNL     1      -2.858 -10.203  11.460  0.00  0.00    +0.033 A 
ATOM     21  C   UNL     1      -5.027  -9.922  12.462  0.00  0.00    +0.033 A 
ATOM     22  C   UNL     1      -3.345  -9.535  10.348  0.00  0.00    +0.111 A 
ATOM     23  C   UNL     1      -5.416  -9.265  11.306  0.00  0.00    +0.111 A 
ENDBRANCH  17  19
ENDBRANCH  11   7
BRANCH   6  16
ATOM     16  C   UNL     1      -8.268 -12.919  19.938  0.00  0.00    +0.134 C 
BRANCH  16  18
ATOM      1 CL   UNL     1      -9.943 -10.769  20.089  0.00  0.00    -0.124 Cl
ATOM     18  C   UNL     1      -9.717 -12.503  19.744  0.00  0.00    +0.128 C 
ENDBRANCH  16  18
ENDBRANCH   6  16
TORSDOF 4
ENDMDL
MODEL 4
REMARK VINA RESULT:      -5.4     25.404     26.708
REMARK  Name = 7050317
REMARK  4 active torsions:
REMARK  status: ('A' for Active; 'I' for Inactive)
REMARK    1  A    between atoms: N_6  and  C_16
REMARK    2  A    between atoms: N_7  and  C_11
REMARK    3  A    between atoms: C_16  and  C_18
REMARK    4  A    between atoms: C_17  and  C_19
REMARK                            x       y       z     vdW  Elec       q    Type
REMARK                         _______ _______ _______ _____ _____    ______ ____
ROOT
ATOM      2  O   UNL     1     -14.243   4.308  21.946  0.00  0.00    -0.273 OA
ATOM      3  O   UNL     1     -15.915   8.325  23.462  0.00  0.00    -0.252 OA
ATOM      5  N   UNL     1     -14.492   7.756  21.690  0.00  0.00    -0.273 N 
ATOM      6  N   UNL     1     -15.320   6.122  22.952  0.00  0.00    -0.223 N 
ATOM      9  C   UNL     1     -13.926   6.562  21.106  0.00  0.00    +0.166 C 
ATOM     10  C   UNL     1     -12.402   6.625  21.121  0.00  0.00    +0.054 C 
ATOM     11  C   UNL     1     -11.890   7.946  20.519  0.00  0.00    +0.077 C 
ATOM     12  C   UNL     1     -12.560   9.159  21.190  0.00  0.00    +0.041 C 
ATOM     13  C   UNL     1     -14.087   9.056  21.188  0.00  0.00    +0.112 C 
ATOM     14  C   UNL     1     -14.496   5.502  22.036  0.00  0.00    +0.244 C 
ATOM     15  C   UNL     1     -15.323   7.497  22.780  0.00  0.00    +0.312 C 
ENDROOT
BRANCH  11   7
ATOM      4  O   UNL     1     -10.189   9.197  18.650  0.00  0.00    -0.270 OA
ATOM      7  N   UNL     1     -12.083   7.974  19.087  0.00  0.00    -0.308 N 
ATOM     17  C   UNL     1     -11.192   8.616  18.231  0.00  0.00    +0.244 C 
ATOM     24  H   UNL     1     -12.910   7.515  18.721  0.00  0.00    +0.149 HD
BRANCH  17  19
ATOM      8  N   UNL     1     -12.102   8.361  14.088  0.00  0.00    -0.263 NA
ATOM     19  C   UNL     1     -11.506   8.528  16.797  0.00  0.00    +0.040 A 
ATOM     20  C   UNL     1     -10.478   8.456  15.876  0.00  0.00    +0.033 A 
ATOM     21  C   UNL     1     -12.827   8.519  16.389  0.00  0.00    +0.033 A 
ATOM     22  C   UNL     1     -10.827   8.374  14.537  0.00  0.00    +0.111 A 
ATOM     23  C   UNL     1     -13.071   8.435  15.027  0.00  0.00    +0.111 A 
ENDBRANCH  17  19
ENDBRANCH  11   7
BRANCH   6  16
ATOM     16  C   UNL     1     -16.049   5.434  23.998  0.00  0.00    +0.134 C 
BRANCH  16  18
ATOM      1 CL   UNL     1     -17.333   3.238  23.008  0.00  0.00    -0.124 Cl
ATOM     18  C   UNL     1     -17.408   4.939  23.532  0.00  0.00    +0.128 C 
ENDBRANCH  16  18
ENDBRANCH   6  16
TORSDOF 4
ENDMDL
MODEL 5
REMARK VINA RESULT:      -5.4     15.948     20.249
REMARK  Name = 7050317
REMARK  4 active torsions:
REMARK  status: ('A' for Active; 'I' for Inactive)
REMARK    1  A    between atoms: N_6  and  C_16
REMARK    2  A    between atoms: N_7  and  C_11
REMARK    3  A    between atoms: C_16  and  C_18
REMARK    4  A    between atoms: C_17  and  C_19
REMARK                            x       y       z     vdW  Elec       q    Type
REMARK                         _______ _______ _______ _____ _____    ______ ____
ROOT
ATOM      2  O   UNL     1       9.417   4.352   5.143  0.00  0.00    -0.273 OA
ATOM      3  O   UNL     1      12.819   7.450   4.912  0.00  0.00    -0.252 OA
ATOM      5  N   UNL     1      11.854   6.020   3.327  0.00  0.00    -0.273 N 
ATOM      6  N   UNL     1      11.029   6.026   5.393  0.00  0.00    -0.223 N 
ATOM      9  C   UNL     1      10.791   5.043   3.266  0.00  0.00    +0.166 C 
ATOM     10  C   UNL     1      11.331   3.684   2.834  0.00  0.00    +0.054 C 
ATOM     11  C   UNL     1      12.180   3.800   1.555  0.00  0.00    +0.077 C 
ATOM     12  C   UNL     1      13.273   4.874   1.707  0.00  0.00    +0.041 C 
ATOM     13  C   UNL     1      12.708   6.219   2.170  0.00  0.00    +0.112 C 
ATOM     14  C   UNL     1      10.306   5.071   4.708  0.00  0.00    +0.244 C 
ATOM     15  C   UNL     1      11.993   6.607   4.585  0.00  0.00    +0.312 C 
ENDROOT
BRANCH  11   7
ATOM      4  O   UNL     1      12.666   2.899  -1.073  0.00  0.00    -0.270 OA
ATOM      7  N   UNL     1      11.348   4.066   0.402  0.00  0.00    -0.308 N 
ATOM     17  C   UNL     1      11.661   3.581  -0.865  0.00  0.00    +0.244 C 
ATOM     24  H   UNL     1      10.524   4.638   0.547  0.00  0.00    +0.149 HD
BRANCH  17  19
ATOM      8  N   UNL     1       8.885   4.527  -3.940  0.00  0.00    -0.263 NA
ATOM     19  C   UNL     1      10.701   3.909  -1.929  0.00  0.00    +0.040 A 
ATOM     20  C   UNL     1      10.542   3.042  -2.995  0.00  0.00    +0.033 A 
ATOM     21  C   UNL     1       9.969   5.078  -1.850  0.00  0.00    +0.033 A 
ATOM     22  C   UNL     1       9.624   3.396  -3.971  0.00  0.00    +0.111 A 
ATOM     23  C   UNL     1       9.077   5.341  -2.878  0.00  0.00    +0.111 A 
ENDBRANCH  17  19
ENDBRANCH  11   7
BRANCH   6  16
ATOM     16  C   UNL     1      10.845   6.345   6.794  0.00  0.00    +0.134 C 
BRANCH  16  18
ATOM      1 CL   UNL     1       8.297   7.321   6.739  0.00  0.00    -0.124 Cl
ATOM     18  C   UNL     1      10.035   7.614   7.001  0.00  0.00    +0.128 C 
ENDBRANCH  16  18
ENDBRANCH   6  16
TORSDOF 4
ENDMDL
MODEL 6
REMARK VINA RESULT:      -5.4     27.576     29.620
REMARK  Name = 7050317
REMARK  4 active torsions:
REMARK  status: ('A' for Active; 'I' for Inactive)
REMARK    1  A    between atoms: N_6  and  C_16
REMARK    2  A    between atoms: N_7  and  C_11
REMARK    3  A    between atoms: C_16  and  C_18
REMARK    4  A    between atoms: C_17  and  C_19
REMARK                            x       y       z     vdW  Elec       q    Type
REMARK                         _______ _______ _______ _____ _____    ______ ____
ROOT
ATOM      2  O   UNL     1      -4.791  -8.978   8.776  0.00  0.00    -0.273 OA
ATOM      3  O   UNL     1      -4.106 -13.523   8.445  0.00  0.00    -0.252 OA
ATOM      5  N   UNL     1      -4.163 -12.046  10.264  0.00  0.00    -0.273 N 
ATOM      6  N   UNL     1      -4.550 -11.238   8.228  0.00  0.00    -0.223 N 
ATOM      9  C   UNL     1      -4.388 -10.639  10.499  0.00  0.00    +0.166 C 
ATOM     10  C   UNL     1      -3.180 -10.006  11.182  0.00  0.00    +0.054 C 
ATOM     11  C   UNL     1      -2.752 -10.810  12.422  0.00  0.00    +0.077 C 
ATOM     12  C   UNL     1      -2.553 -12.299  12.079  0.00  0.00    +0.041 C 
ATOM     13  C   UNL     1      -3.767 -12.901  11.368  0.00  0.00    +0.112 C 
ATOM     14  C   UNL     1      -4.602 -10.150   9.075  0.00  0.00    +0.244 C 
ATOM     15  C   UNL     1      -4.264 -12.404   8.919  0.00  0.00    +0.312 C 
ENDROOT
BRANCH  11   7
ATOM      4  O   UNL     1      -2.167 -10.965  15.177  0.00  0.00    -0.270 OA
ATOM      7  N   UNL     1      -3.703 -10.650  13.499  0.00  0.00    -0.308 N 
ATOM     17  C   UNL     1      -3.330 -10.742  14.838  0.00  0.00    +0.244 C 
ATOM     24  H   UNL     1      -4.670 -10.481  13.243  0.00  0.00    +0.149 HD
BRANCH  17  19
ATOM      8  N   UNL     1      -6.436 -10.111  17.668  0.00  0.00    -0.263 NA
ATOM     19  C   UNL     1      -4.405 -10.523  15.817  0.00  0.00    +0.040 A 
ATOM     20  C   UNL     1      -5.553  -9.854  15.433  0.00  0.00    +0.033 A 
ATOM     21  C   UNL     1      -4.255 -10.990  17.109  0.00  0.00    +0.033 A 
ATOM     22  C   UNL     1      -6.536  -9.674  16.393  0.00  0.00    +0.111 A 
ATOM     23  C   UNL     1      -5.295 -10.758  17.994  0.00  0.00    +0.111 A 
ENDBRANCH  17  19
ENDBRANCH  11   7
BRANCH   6  16
ATOM     16  C   UNL     1      -4.717 -11.167   6.790  0.00  0.00    +0.134 C 
BRANCH  16  18
ATOM      1 CL   UNL     1      -6.565  -9.403   5.831  0.00  0.00    -0.124 Cl
ATOM     18  C   UNL     1      -6.176 -11.053   6.378  0.00  0.00    +0.128 C 
ENDBRANCH  16  18
ENDBRANCH   6  16
TORSDOF 4
ENDMDL
MODEL 7
REMARK VINA RESULT:      -5.3     27.965     30.026
REMARK  Name = 7050317
REMARK  4 active torsions:
REMARK  status: ('A' for Active; 'I' for Inactive)
REMARK    1  A    between atoms: N_6  and  C_16
REMARK    2  A    between atoms: N_7  and  C_11
REMARK    3  A    between atoms: C_16  and  C_18
REMARK    4  A    between atoms: C_17  and  C_19
REMARK                            x       y       z     vdW  Elec       q    Type
REMARK                         _______ _______ _______ _____ _____    ______ ____
ROOT
ATOM      2  O   UNL     1     -13.138   2.084  32.365  0.00  0.00    -0.273 OA
ATOM      3  O   UNL     1     -17.170   3.137  30.400  0.00  0.00    -0.252 OA
ATOM      5  N   UNL     1     -15.555   4.419  31.513  0.00  0.00    -0.273 N 
ATOM      6  N   UNL     1     -15.176   2.245  31.231  0.00  0.00    -0.223 N 
ATOM      9  C   UNL     1     -14.268   4.219  32.137  0.00  0.00    +0.166 C 
ATOM     10  C   UNL     1     -14.307   4.641  33.602  0.00  0.00    +0.054 C 
ATOM     11  C   UNL     1     -14.893   6.055  33.762  0.00  0.00    +0.077 C 
ATOM     12  C   UNL     1     -16.255   6.177  33.052  0.00  0.00    +0.041 C 
ATOM     13  C   UNL     1     -16.194   5.720  31.593  0.00  0.00    +0.112 C 
ATOM     14  C   UNL     1     -14.095   2.721  31.944  0.00  0.00    +0.244 C 
ATOM     15  C   UNL     1     -16.092   3.251  30.970  0.00  0.00    +0.312 C 
ENDROOT
BRANCH  11   7
ATOM      4  O   UNL     1     -13.065   7.502  35.350  0.00  0.00    -0.270 OA
ATOM      7  N   UNL     1     -13.968   7.059  33.285  0.00  0.00    -0.308 N 
ATOM     17  C   UNL     1     -13.095   7.728  34.138  0.00  0.00    +0.244 C 
ATOM     24  H   UNL     1     -13.986   7.272  32.294  0.00  0.00    +0.149 HD
BRANCH  17  19
ATOM      8  N   UNL     1     -10.487  10.528  32.290  0.00  0.00    -0.263 NA
ATOM     19  C   UNL     1     -12.193   8.697  33.498  0.00  0.00    +0.040 A 
ATOM     20  C   UNL     1     -12.065   8.704  32.122  0.00  0.00    +0.033 A 
ATOM     21  C   UNL     1     -11.484   9.588  34.282  0.00  0.00    +0.033 A 
ATOM     22  C   UNL     1     -11.202   9.636  31.568  0.00  0.00    +0.111 A 
ATOM     23  C   UNL     1     -10.647  10.480  33.631  0.00  0.00    +0.111 A 
ENDBRANCH  17  19
ENDBRANCH  11   7
BRANCH   6  16
ATOM     16  C   UNL     1     -15.361   0.860  30.847  0.00  0.00    +0.134 C 
BRANCH  16  18
ATOM      1 CL   UNL     1     -13.318  -0.628  29.817  0.00  0.00    -0.124 Cl
ATOM     18  C   UNL     1     -14.655   0.517  29.545  0.00  0.00    +0.128 C 
ENDBRANCH  16  18
ENDBRANCH   6  16
TORSDOF 4
ENDMDL
MODEL 8
REMARK VINA RESULT:      -5.3     28.014     30.670
REMARK  Name = 7050317
REMARK  4 active torsions:
REMARK  status: ('A' for Active; 'I' for Inactive)
REMARK    1  A    between atoms: N_6  and  C_16
REMARK    2  A    between atoms: N_7  and  C_11
REMARK    3  A    between atoms: C_16  and  C_18
REMARK    4  A    between atoms: C_17  and  C_19
REMARK                            x       y       z     vdW  Elec       q    Type
REMARK                         _______ _______ _______ _____ _____    ______ ____
ROOT
ATOM      2  O   UNL     1      -9.401  -4.321   8.749  0.00  0.00    -0.273 OA
ATOM      3  O   UNL     1     -12.486  -7.739   8.588  0.00  0.00    -0.252 OA
ATOM      5  N   UNL     1     -10.145  -7.699   8.516  0.00  0.00    -0.273 N 
ATOM      6  N   UNL     1     -11.233  -5.774   8.759  0.00  0.00    -0.223 N 
ATOM      9  C   UNL     1      -9.084  -6.720   8.582  0.00  0.00    +0.166 C 
ATOM     10  C   UNL     1      -8.222  -6.774   7.325  0.00  0.00    +0.054 C 
ATOM     11  C   UNL     1      -7.761  -8.211   7.023  0.00  0.00    +0.077 C 
ATOM     12  C   UNL     1      -8.955  -9.183   6.989  0.00  0.00    +0.041 C 
ATOM     13  C   UNL     1      -9.820  -9.088   8.248  0.00  0.00    +0.112 C 
ATOM     14  C   UNL     1      -9.895  -5.440   8.705  0.00  0.00    +0.244 C 
ATOM     15  C   UNL     1     -11.419  -7.140   8.626  0.00  0.00    +0.312 C 
ENDROOT
BRANCH  11   7
ATOM      4  O   UNL     1      -5.706 -10.076   6.519  0.00  0.00    -0.270 OA
ATOM      7  N   UNL     1      -6.764  -8.648   7.974  0.00  0.00    -0.308 N 
ATOM     17  C   UNL     1      -5.780  -9.576   7.644  0.00  0.00    +0.244 C 
ATOM     24  H   UNL     1      -6.814  -8.260   8.910  0.00  0.00    +0.149 HD
BRANCH  17  19
ATOM      8  N   UNL     1      -2.997 -10.496  10.721  0.00  0.00    -0.263 NA
ATOM     19  C   UNL     1      -4.818  -9.894   8.709  0.00  0.00    +0.040 A 
ATOM     20  C   UNL     1      -4.669 -11.205   9.125  0.00  0.00    +0.033 A 
ATOM     21  C   UNL     1      -4.073  -8.879   9.280  0.00  0.00    +0.033 A 
ATOM     22  C   UNL     1      -3.748 -11.452  10.131  0.00  0.00    +0.111 A 
ATOM     23  C   UNL     1      -3.180  -9.231  10.280  0.00  0.00    +0.111 A 
ENDBRANCH  17  19
ENDBRANCH  11   7
BRANCH   6  16
ATOM     16  C   UNL     1     -12.313  -4.816   8.883  0.00  0.00    +0.134 C 
BRANCH  16  18
ATOM      1 CL   UNL     1     -12.040  -3.367  11.180  0.00  0.00    -0.124 Cl
ATOM     18  C   UNL     1     -12.831  -4.704  10.307  0.00  0.00    +0.128 C 
ENDBRANCH  16  18
ENDBRANCH   6  16
TORSDOF 4
ENDMDL
MODEL 9
REMARK VINA RESULT:      -5.3     16.536     21.710
REMARK  Name = 7050317
REMARK  4 active torsions:
REMARK  status: ('A' for Active; 'I' for Inactive)
REMARK    1  A    between atoms: N_6  and  C_16
REMARK    2  A    between atoms: N_7  and  C_11
REMARK    3  A    between atoms: C_16  and  C_18
REMARK    4  A    between atoms: C_17  and  C_19
REMARK                            x       y       z     vdW  Elec       q    Type
REMARK                         _______ _______ _______ _____ _____    ______ ____
ROOT
ATOM      2  O   UNL     1      10.230   6.481  -1.379  0.00  0.00    -0.273 OA
ATOM      3  O   UNL     1      12.355   2.413  -1.786  0.00  0.00    -0.252 OA
ATOM      5  N   UNL     1      12.041   3.875   0.017  0.00  0.00    -0.273 N 
ATOM      6  N   UNL     1      11.144   4.406  -1.948  0.00  0.00    -0.223 N 
ATOM      9  C   UNL     1      11.388   5.137   0.277  0.00  0.00    +0.166 C 
ATOM     10  C   UNL     1      12.391   6.169   0.783  0.00  0.00    +0.054 C 
ATOM     11  C   UNL     1      13.221   5.616   1.955  0.00  0.00    +0.077 C 
ATOM     12  C   UNL     1      13.863   4.263   1.592  0.00  0.00    +0.041 C 
ATOM     13  C   UNL     1      12.841   3.257   1.059  0.00  0.00    +0.112 C 
ATOM     14  C   UNL     1      10.839   5.455  -1.105  0.00  0.00    +0.244 C 
ATOM     15  C   UNL     1      11.893   3.437  -1.299  0.00  0.00    +0.312 C 
ENDROOT
BRANCH  11   7
ATOM      4  O   UNL     1      12.810   7.654   3.861  0.00  0.00    -0.270 OA
ATOM      7  N   UNL     1      12.419   5.504   3.153  0.00  0.00    -0.308 N 
ATOM     17  C   UNL     1      12.267   6.562   4.045  0.00  0.00    +0.244 C 
ATOM     24  H   UNL     1      11.976   4.610   3.332  0.00  0.00    +0.149 HD
BRANCH  17  19
ATOM      8  N   UNL     1       9.743   5.819   7.381  0.00  0.00    -0.263 NA
ATOM     19  C   UNL     1      11.394   6.305   5.199  0.00  0.00    +0.040 A 
ATOM     20  C   UNL     1      11.808   6.678   6.465  0.00  0.00    +0.033 A 
ATOM     21  C   UNL     1      10.170   5.694   5.005  0.00  0.00    +0.033 A 
ATOM     22  C   UNL     1      10.949   6.414   7.519  0.00  0.00    +0.111 A 
ATOM     23  C   UNL     1       9.384   5.473   6.125  0.00  0.00    +0.111 A 
ENDBRANCH  17  19
ENDBRANCH  11   7
BRANCH   6  16
ATOM     16  C   UNL     1      10.778   4.345  -3.348  0.00  0.00    +0.134 C 
BRANCH  16  18
ATOM      1 CL   UNL     1       9.327   2.091  -3.864  0.00  0.00    -0.124 Cl
ATOM     18  C   UNL     1       9.358   3.846  -3.558  0.00  0.00    +0.128 C 
ENDBRANCH  16  18
ENDBRANCH   6  16
TORSDOF 4
ENDMDL
MODEL 10
REMARK VINA RESULT:      -5.0     15.503     19.932
REMARK  Name = 7050317
REMARK  4 active torsions:
REMARK  status: ('A' for Active; 'I' for Inactive)
REMARK    1  A    between atoms: N_6  and  C_16
REMARK    2  A    between atoms: N_7  and  C_11
REMARK    3  A    between atoms: C_16  and  C_18
REMARK    4  A    between atoms: C_17  and  C_19
REMARK                            x       y       z     vdW  Elec       q    Type
REMARK                         _______ _______ _______ _____ _____    ______ ____
ROOT
ATOM      2  O   UNL     1      11.076   8.323   4.271  0.00  0.00    -0.273 OA
ATOM      3  O   UNL     1       9.815   4.081   5.554  0.00  0.00    -0.252 OA
ATOM      5  N   UNL     1      10.942   4.910   3.675  0.00  0.00    -0.273 N 
ATOM      6  N   UNL     1      10.341   6.340   5.269  0.00  0.00    -0.223 N 
ATOM      9  C   UNL     1      11.410   6.183   3.177  0.00  0.00    +0.166 C 
ATOM     10  C   UNL     1      10.788   6.493   1.820  0.00  0.00    +0.054 C 
ATOM     11  C   UNL     1      10.955   5.315   0.845  0.00  0.00    +0.077 C 
ATOM     12  C   UNL     1      10.446   4.001   1.467  0.00  0.00    +0.041 C 
ATOM     13  C   UNL     1      11.063   3.729   2.840  0.00  0.00    +0.112 C 
ATOM     14  C   UNL     1      10.933   7.107   4.287  0.00  0.00    +0.244 C 
ATOM     15  C   UNL     1      10.313   5.001   4.917  0.00  0.00    +0.312 C 
ENDROOT
BRANCH  11   7
ATOM      4  O   UNL     1      11.834   4.047  -1.517  0.00  0.00    -0.270 OA
ATOM      7  N   UNL     1      12.330   5.186   0.416  0.00  0.00    -0.308 N 
ATOM     17  C   UNL     1      12.680   4.542  -0.769  0.00  0.00    +0.244 C 
ATOM     24  H   UNL     1      13.044   5.573   1.023  0.00  0.00    +0.149 HD
BRANCH  17  19
ATOM      8  N   UNL     1      16.830   4.483  -1.681  0.00  0.00    -0.263 NA
ATOM     19  C   UNL     1      14.116   4.521  -1.085  0.00  0.00    +0.040 A 
ATOM     20  C   UNL     1      14.546   4.928  -2.335  0.00  0.00    +0.033 A 
ATOM     21  C   UNL     1      15.018   4.096  -0.128  0.00  0.00    +0.033 A 
ATOM     22  C   UNL     1      15.909   4.890  -2.582  0.00  0.00    +0.111 A 
ATOM     23  C   UNL     1      16.359   4.095  -0.475  0.00  0.00    +0.111 A 
ENDBRANCH  17  19
ENDBRANCH  11   7
BRANCH   6  16
ATOM     16  C   UNL     1       9.770   6.870   6.491  0.00  0.00    +0.134 C 
BRANCH  16  18
ATOM      1 CL   UNL     1       9.721   5.398   8.789  0.00  0.00    -0.124 Cl
ATOM     18  C   UNL     1      10.596   6.522   7.719  0.00  0.00    +0.128 C 
ENDBRANCH  16  18
ENDBRANCH   6  16
TORSDOF 4
ENDMDL
