MODEL 1
REMARK VINA RESULT:      -5.5      0.000      0.000
REMARK  Name = 75536533
REMARK  8 active torsions:
REMARK  status: ('A' for Active; 'I' for Inactive)
REMARK    1  A    between atoms: O_2  and  C_11
REMARK    2  A    between atoms: N_4  and  C_7
REMARK    3  A    between atoms: N_4  and  C_15
REMARK    4  A    between atoms: N_5  and  C_13
REMARK    5  A    between atoms: C_6  and  C_14
REMARK    6  A    between atoms: C_10  and  C_13
REMARK    7  A    between atoms: C_15  and  C_16
REMARK    8  A    between atoms: C_15  and  C_17
REMARK                            x       y       z     vdW  Elec       q    Type
REMARK                         _______ _______ _______ _____ _____    ______ ____
ROOT
ATOM      1  O   UNL     1       1.181   1.792  -7.723  0.00  0.00    -0.371 OA
ATOM      7  C   UNL     1      -0.818   1.033  -6.690  0.00  0.00    +0.111 C 
ATOM     10  C   UNL     1       1.114   2.332  -6.392  0.00  0.00    +0.165 C 
ATOM     11  C   UNL     1       0.181   1.415  -5.613  0.00  0.00    +0.164 C 
ATOM     12  C   UNL     1       0.088   0.873  -7.898  0.00  0.00    +0.181 C 
ENDROOT
BRANCH  11   2
ATOM      2  O   UNL     1      -0.422   2.082  -4.521  0.00  0.00    -0.388 OA
ATOM     20  H   UNL     1       0.124   1.930  -3.730  0.00  0.00    +0.210 HD
ENDBRANCH  11   2
BRANCH   7   4
ATOM      4  N   UNL     1      -1.573  -0.171  -6.385  0.00  0.00    -0.307 NA
ATOM     18  H   UNL     1      -2.300   0.034  -5.699  0.00  0.00    +0.123 HD
BRANCH   4  15
ATOM     15  C   UNL     1      -2.171  -0.736  -7.588  0.00  0.00    +0.048 C 
ATOM     16  C   UNL     1      -3.533  -0.100  -7.851  0.00  0.00    +0.023 C 
ATOM     17  C   UNL     1      -2.293  -2.249  -7.434  0.00  0.00    +0.023 C 
ENDBRANCH   4  15
ENDBRANCH   7   4
BRANCH  10  13
ATOM     13  C   UNL     1       2.511   2.409  -5.800  0.00  0.00    +0.138 C 
BRANCH  13   5
ATOM      3  O   UNL     1       1.527   4.315  -3.836  0.00  0.00    -0.276 OA
ATOM      5  N   UNL     1       2.925   3.770  -5.618  0.00  0.00    -0.313 N 
ATOM     14  C   UNL     1       2.396   4.609  -4.648  0.00  0.00    +0.216 C 
ATOM     19  H   UNL     1       3.647   4.129  -6.236  0.00  0.00    +0.149 HD
BRANCH  14   6
ATOM      6  C   UNL     1       2.977   5.984  -4.638  0.00  0.00    +0.075 C 
ATOM      8  C   UNL     1       4.167   6.249  -3.776  0.00  0.00    +0.013 C 
ATOM      9  C   UNL     1       4.313   6.197  -5.268  0.00  0.00    +0.013 C 
ENDBRANCH  14   6
ENDBRANCH  13   5
ENDBRANCH  10  13
TORSDOF 6
ENDMDL
MODEL 2
REMARK VINA RESULT:      -5.2     29.040     31.600
REMARK  Name = 75536533
REMARK  8 active torsions:
REMARK  status: ('A' for Active; 'I' for Inactive)
REMARK    1  A    between atoms: O_2  and  C_11
REMARK    2  A    between atoms: N_4  and  C_7
REMARK    3  A    between atoms: N_4  and  C_15
REMARK    4  A    between atoms: N_5  and  C_13
REMARK    5  A    between atoms: C_6  and  C_14
REMARK    6  A    between atoms: C_10  and  C_13
REMARK    7  A    between atoms: C_15  and  C_16
REMARK    8  A    between atoms: C_15  and  C_17
REMARK                            x       y       z     vdW  Elec       q    Type
REMARK                         _______ _______ _______ _____ _____    ______ ____
ROOT
ATOM      1  O   UNL     1      11.522   7.258  20.378  0.00  0.00    -0.371 OA
ATOM      7  C   UNL     1      13.861   7.661  20.416  0.00  0.00    +0.111 C 
ATOM     10  C   UNL     1      11.857   7.916  21.611  0.00  0.00    +0.165 C 
ATOM     11  C   UNL     1      13.177   8.633  21.360  0.00  0.00    +0.164 C 
ATOM     12  C   UNL     1      12.697   7.211  19.550  0.00  0.00    +0.181 C 
ENDROOT
BRANCH  11   2
ATOM      2  O   UNL     1      13.903   8.835  22.557  0.00  0.00    -0.388 OA
ATOM     20  H   UNL     1      14.460   9.625  22.447  0.00  0.00    +0.210 HD
ENDBRANCH  11   2
BRANCH   7   4
ATOM      4  N   UNL     1      14.942   8.257  19.647  0.00  0.00    -0.307 NA
ATOM     18  H   UNL     1      14.929   9.272  19.752  0.00  0.00    +0.123 HD
BRANCH   4  15
ATOM     15  C   UNL     1      16.236   7.731  20.063  0.00  0.00    +0.048 C 
ATOM     16  C   UNL     1      16.050   6.464  20.893  0.00  0.00    +0.023 C 
ATOM     17  C   UNL     1      16.989   8.798  20.852  0.00  0.00    +0.023 C 
ENDBRANCH   4  15
ENDBRANCH   7   4
BRANCH  10  13
ATOM     13  C   UNL     1      10.732   8.853  22.015  0.00  0.00    +0.138 C 
BRANCH  13   5
ATOM      3  O   UNL     1      10.896  11.689  22.637  0.00  0.00    -0.276 OA
ATOM      5  N   UNL     1      10.988   9.455  23.292  0.00  0.00    -0.313 N 
ATOM     14  C   UNL     1      11.048  10.826  23.494  0.00  0.00    +0.216 C 
ATOM     19  H   UNL     1      11.130   8.836  24.085  0.00  0.00    +0.149 HD
BRANCH  14   6
ATOM      6  C   UNL     1      11.324  11.230  24.904  0.00  0.00    +0.075 C 
ATOM      8  C   UNL     1      12.296  12.336  25.152  0.00  0.00    +0.013 C 
ATOM      9  C   UNL     1      10.829  12.558  25.374  0.00  0.00    +0.013 C 
ENDBRANCH  14   6
ENDBRANCH  13   5
ENDBRANCH  10  13
TORSDOF 6
ENDMDL
MODEL 3
REMARK VINA RESULT:      -5.1     27.350     30.285
REMARK  Name = 75536533
REMARK  8 active torsions:
REMARK  status: ('A' for Active; 'I' for Inactive)
REMARK    1  A    between atoms: O_2  and  C_11
REMARK    2  A    between atoms: N_4  and  C_7
REMARK    3  A    between atoms: N_4  and  C_15
REMARK    4  A    between atoms: N_5  and  C_13
REMARK    5  A    between atoms: C_6  and  C_14
REMARK    6  A    between atoms: C_10  and  C_13
REMARK    7  A    between atoms: C_15  and  C_16
REMARK    8  A    between atoms: C_15  and  C_17
REMARK                            x       y       z     vdW  Elec       q    Type
REMARK                         _______ _______ _______ _____ _____    ______ ____
ROOT
ATOM      1  O   UNL     1      13.617  10.728  20.850  0.00  0.00    -0.371 OA
ATOM      7  C   UNL     1      11.703   9.386  20.431  0.00  0.00    +0.111 C 
ATOM     10  C   UNL     1      13.380   9.891  21.995  0.00  0.00    +0.165 C 
ATOM     11  C   UNL     1      12.557   8.713  21.490  0.00  0.00    +0.164 C 
ATOM     12  C   UNL     1      12.700  10.349  19.809  0.00  0.00    +0.181 C 
ENDROOT
BRANCH  11   2
ATOM      2  O   UNL     1      11.787   8.128  22.522  0.00  0.00    -0.388 OA
ATOM     20  H   UNL     1      12.088   7.211  22.648  0.00  0.00    +0.210 HD
ENDBRANCH  11   2
BRANCH   7   4
ATOM      4  N   UNL     1      11.134   8.459  19.466  0.00  0.00    -0.307 NA
ATOM     18  H   UNL     1      10.149   8.677  19.309  0.00  0.00    +0.123 HD
BRANCH   4  15
ATOM     15  C   UNL     1      11.859   8.503  18.203  0.00  0.00    +0.048 C 
ATOM     16  C   UNL     1      10.882   8.596  17.035  0.00  0.00    +0.023 C 
ATOM     17  C   UNL     1      12.744   7.267  18.080  0.00  0.00    +0.023 C 
ENDBRANCH   4  15
ENDBRANCH   7   4
BRANCH  10  13
ATOM     13  C   UNL     1      14.705   9.477  22.611  0.00  0.00    +0.138 C 
BRANCH  13   5
ATOM      3  O   UNL     1      16.576   8.953  20.448  0.00  0.00    -0.276 OA
ATOM      5  N   UNL     1      15.134   8.201  22.117  0.00  0.00    -0.313 N 
ATOM     14  C   UNL     1      16.037   8.048  21.074  0.00  0.00    +0.216 C 
ATOM     19  H   UNL     1      14.753   7.371  22.561  0.00  0.00    +0.149 HD
BRANCH  14   6
ATOM      6  C   UNL     1      16.342   6.629  20.727  0.00  0.00    +0.075 C 
ATOM      8  C   UNL     1      16.437   6.252  19.285  0.00  0.00    +0.013 C 
ATOM      9  C   UNL     1      17.674   6.312  20.132  0.00  0.00    +0.013 C 
ENDBRANCH  14   6
ENDBRANCH  13   5
ENDBRANCH  10  13
TORSDOF 6
ENDMDL
MODEL 4
REMARK VINA RESULT:      -5.1     14.714     16.321
REMARK  Name = 75536533
REMARK  8 active torsions:
REMARK  status: ('A' for Active; 'I' for Inactive)
REMARK    1  A    between atoms: O_2  and  C_11
REMARK    2  A    between atoms: N_4  and  C_7
REMARK    3  A    between atoms: N_4  and  C_15
REMARK    4  A    between atoms: N_5  and  C_13
REMARK    5  A    between atoms: C_6  and  C_14
REMARK    6  A    between atoms: C_10  and  C_13
REMARK    7  A    between atoms: C_15  and  C_16
REMARK    8  A    between atoms: C_15  and  C_17
REMARK                            x       y       z     vdW  Elec       q    Type
REMARK                         _______ _______ _______ _____ _____    ______ ____
ROOT
ATOM      1  O   UNL     1      10.340   5.392   4.163  0.00  0.00    -0.371 OA
ATOM      7  C   UNL     1      10.472   5.763   6.505  0.00  0.00    +0.111 C 
ATOM     10  C   UNL     1      11.033   6.630   4.397  0.00  0.00    +0.165 C 
ATOM     11  C   UNL     1      11.575   6.546   5.817  0.00  0.00    +0.164 C 
ATOM     12  C   UNL     1      10.104   4.754   5.430  0.00  0.00    +0.181 C 
ENDROOT
BRANCH  11   2
ATOM      2  O   UNL     1      11.770   7.827   6.383  0.00  0.00    -0.388 OA
ATOM     20  H   UNL     1      11.434   8.493   5.758  0.00  0.00    +0.210 HD
ENDBRANCH  11   2
BRANCH   7   4
ATOM      4  N   UNL     1      10.889   5.138   7.750  0.00  0.00    -0.307 NA
ATOM     18  H   UNL     1      11.861   5.370   7.951  0.00  0.00    +0.123 HD
BRANCH   4  15
ATOM     15  C   UNL     1      10.039   5.555   8.858  0.00  0.00    +0.048 C 
ATOM     16  C   UNL     1       9.298   4.354   9.438  0.00  0.00    +0.023 C 
ATOM     17  C   UNL     1       9.062   6.623   8.377  0.00  0.00    +0.023 C 
ENDBRANCH   4  15
ENDBRANCH   7   4
BRANCH  10  13
ATOM     13  C   UNL     1      12.118   6.816   3.350  0.00  0.00    +0.138 C 
BRANCH  13   5
ATOM      3  O   UNL     1      11.879   5.517   0.760  0.00  0.00    -0.276 OA
ATOM      5  N   UNL     1      12.676   5.556   2.949  0.00  0.00    -0.313 N 
ATOM     14  C   UNL     1      12.508   5.014   1.683  0.00  0.00    +0.216 C 
ATOM     19  H   UNL     1      13.223   5.044   3.634  0.00  0.00    +0.149 HD
BRANCH  14   6
ATOM      6  C   UNL     1      13.179   3.695   1.484  0.00  0.00    +0.075 C 
ATOM      8  C   UNL     1      14.047   3.510   0.283  0.00  0.00    +0.013 C 
ATOM      9  C   UNL     1      14.660   3.617   1.648  0.00  0.00    +0.013 C 
ENDBRANCH  14   6
ENDBRANCH  13   5
ENDBRANCH  10  13
TORSDOF 6
ENDMDL
MODEL 5
REMARK VINA RESULT:      -5.0     13.417     16.000
REMARK  Name = 75536533
REMARK  8 active torsions:
REMARK  status: ('A' for Active; 'I' for Inactive)
REMARK    1  A    between atoms: O_2  and  C_11
REMARK    2  A    between atoms: N_4  and  C_7
REMARK    3  A    between atoms: N_4  and  C_15
REMARK    4  A    between atoms: N_5  and  C_13
REMARK    5  A    between atoms: C_6  and  C_14
REMARK    6  A    between atoms: C_10  and  C_13
REMARK    7  A    between atoms: C_15  and  C_16
REMARK    8  A    between atoms: C_15  and  C_17
REMARK                            x       y       z     vdW  Elec       q    Type
REMARK                         _______ _______ _______ _____ _____    ______ ____
ROOT
ATOM      1  O   UNL     1      12.349   7.100   4.180  0.00  0.00    -0.371 OA
ATOM      7  C   UNL     1      10.980   5.538   3.030  0.00  0.00    +0.111 C 
ATOM     10  C   UNL     1      11.314   6.649   5.070  0.00  0.00    +0.165 C 
ATOM     11  C   UNL     1      10.845   5.308   4.524  0.00  0.00    +0.164 C 
ATOM     12  C   UNL     1      12.270   6.337   2.964  0.00  0.00    +0.181 C 
ENDROOT
BRANCH  11   2
ATOM      2  O   UNL     1       9.517   5.015   4.914  0.00  0.00    -0.388 OA
ATOM     20  H   UNL     1       9.486   4.973   5.885  0.00  0.00    +0.210 HD
ENDBRANCH  11   2
BRANCH   7   4
ATOM      4  N   UNL     1      11.033   4.310   2.253  0.00  0.00    -0.307 NA
ATOM     18  H   UNL     1      10.162   4.182   1.738  0.00  0.00    +0.123 HD
BRANCH   4  15
ATOM     15  C   UNL     1      12.160   4.322   1.328  0.00  0.00    +0.048 C 
ATOM     16  C   UNL     1      11.661   4.399  -0.112  0.00  0.00    +0.023 C 
ATOM     17  C   UNL     1      13.011   3.076   1.547  0.00  0.00    +0.023 C 
ENDBRANCH   4  15
ENDBRANCH   7   4
BRANCH  10  13
ATOM     13  C   UNL     1      11.857   6.564   6.486  0.00  0.00    +0.138 C 
BRANCH  13   5
ATOM      3  O   UNL     1       9.577   7.592   7.970  0.00  0.00    -0.276 OA
ATOM      5  N   UNL     1      10.968   5.832   7.342  0.00  0.00    -0.313 N 
ATOM     14  C   UNL     1       9.900   6.411   8.012  0.00  0.00    +0.216 C 
ATOM     19  H   UNL     1      11.137   4.837   7.455  0.00  0.00    +0.149 HD
BRANCH  14   6
ATOM      6  C   UNL     1       9.107   5.460   8.845  0.00  0.00    +0.075 C 
ATOM      8  C   UNL     1       9.514   4.024   8.872  0.00  0.00    +0.013 C 
ATOM      9  C   UNL     1       9.737   4.893  10.074  0.00  0.00    +0.013 C 
ENDBRANCH  14   6
ENDBRANCH  13   5
ENDBRANCH  10  13
TORSDOF 6
ENDMDL
MODEL 6
REMARK VINA RESULT:      -5.0     25.124     26.483
REMARK  Name = 75536533
REMARK  8 active torsions:
REMARK  status: ('A' for Active; 'I' for Inactive)
REMARK    1  A    between atoms: O_2  and  C_11
REMARK    2  A    between atoms: N_4  and  C_7
REMARK    3  A    between atoms: N_4  and  C_15
REMARK    4  A    between atoms: N_5  and  C_13
REMARK    5  A    between atoms: C_6  and  C_14
REMARK    6  A    between atoms: C_10  and  C_13
REMARK    7  A    between atoms: C_15  and  C_16
REMARK    8  A    between atoms: C_15  and  C_17
REMARK                            x       y       z     vdW  Elec       q    Type
REMARK                         _______ _______ _______ _____ _____    ______ ____
ROOT
ATOM      1  O   UNL     1      -5.570 -11.238  18.197  0.00  0.00    -0.371 OA
ATOM      7  C   UNL     1      -7.399  -9.953  17.396  0.00  0.00    +0.111 C 
ATOM     10  C   UNL     1      -5.301 -10.845  16.840  0.00  0.00    +0.165 C 
ATOM     11  C   UNL     1      -6.165  -9.619  16.579  0.00  0.00    +0.164 C 
ATOM     12  C   UNL     1      -6.781 -10.592  18.628  0.00  0.00    +0.181 C 
ENDROOT
BRANCH  11   2
ATOM      2  O   UNL     1      -6.449  -9.459  15.202  0.00  0.00    -0.388 OA
ATOM     20  H   UNL     1      -6.067  -8.615  14.907  0.00  0.00    +0.210 HD
ENDBRANCH  11   2
BRANCH   7   4
ATOM      4  N   UNL     1      -8.221  -8.795  17.711  0.00  0.00    -0.307 NA
ATOM     18  H   UNL     1      -7.789  -7.947  17.344  0.00  0.00    +0.123 HD
BRANCH   4  15
ATOM     15  C   UNL     1      -9.566  -8.942  17.170  0.00  0.00    +0.048 C 
ATOM     16  C   UNL     1     -10.125  -7.580  16.767  0.00  0.00    +0.023 C 
ATOM     17  C   UNL     1     -10.461  -9.617  18.204  0.00  0.00    +0.023 C 
ENDBRANCH   4  15
ENDBRANCH   7   4
BRANCH  10  13
ATOM     13  C   UNL     1      -3.815 -10.580  16.669  0.00  0.00    +0.138 C 
BRANCH  13   5
ATOM      3  O   UNL     1      -1.205 -10.943  15.441  0.00  0.00    -0.276 OA
ATOM      5  N   UNL     1      -3.470 -10.421  15.286  0.00  0.00    -0.313 N 
ATOM     14  C   UNL     1      -2.190 -10.618  14.789  0.00  0.00    +0.216 C 
ATOM     19  H   UNL     1      -4.210 -10.153  14.644  0.00  0.00    +0.149 HD
BRANCH  14   6
ATOM      6  C   UNL     1      -2.059 -10.400  13.318  0.00  0.00    +0.075 C 
ATOM      8  C   UNL     1      -2.190 -11.577  12.408  0.00  0.00    +0.013 C 
ATOM      9  C   UNL     1      -3.276 -10.545  12.466  0.00  0.00    +0.013 C 
ENDBRANCH  14   6
ENDBRANCH  13   5
ENDBRANCH  10  13
TORSDOF 6
ENDMDL
MODEL 7
REMARK VINA RESULT:      -4.9     23.048     24.603
REMARK  Name = 75536533
REMARK  8 active torsions:
REMARK  status: ('A' for Active; 'I' for Inactive)
REMARK    1  A    between atoms: O_2  and  C_11
REMARK    2  A    between atoms: N_4  and  C_7
REMARK    3  A    between atoms: N_4  and  C_15
REMARK    4  A    between atoms: N_5  and  C_13
REMARK    5  A    between atoms: C_6  and  C_14
REMARK    6  A    between atoms: C_10  and  C_13
REMARK    7  A    between atoms: C_15  and  C_16
REMARK    8  A    between atoms: C_15  and  C_17
REMARK                            x       y       z     vdW  Elec       q    Type
REMARK                         _______ _______ _______ _____ _____    ______ ____
ROOT
ATOM      1  O   UNL     1      -1.217 -11.342  15.045  0.00  0.00    -0.371 OA
ATOM      7  C   UNL     1      -3.328 -10.925  16.050  0.00  0.00    +0.111 C 
ATOM     10  C   UNL     1      -2.250 -11.845  14.179  0.00  0.00    +0.165 C 
ATOM     11  C   UNL     1      -3.517 -11.088  14.553  0.00  0.00    +0.164 C 
ATOM     12  C   UNL     1      -1.838 -10.640  16.136  0.00  0.00    +0.181 C 
ENDROOT
BRANCH  11   2
ATOM      2  O   UNL     1      -4.683 -11.819  14.227  0.00  0.00    -0.388 OA
ATOM     20  H   UNL     1      -5.354 -11.647  14.910  0.00  0.00    +0.210 HD
ENDBRANCH  11   2
BRANCH   7   4
ATOM      4  N   UNL     1      -4.141  -9.867  16.629  0.00  0.00    -0.307 NA
ATOM     18  H   UNL     1      -4.651  -9.375  15.895  0.00  0.00    +0.123 HD
BRANCH   4  15
ATOM     15  C   UNL     1      -5.075 -10.399  17.613  0.00  0.00    +0.048 C 
ATOM     16  C   UNL     1      -4.619 -11.777  18.084  0.00  0.00    +0.023 C 
ATOM     17  C   UNL     1      -6.472 -10.462  17.005  0.00  0.00    +0.023 C 
ENDBRANCH   4  15
ENDBRANCH   7   4
BRANCH  10  13
ATOM     13  C   UNL     1      -1.841 -11.652  12.729  0.00  0.00    +0.138 C 
BRANCH  13   5
ATOM      3  O   UNL     1      -1.914  -9.402  10.888  0.00  0.00    -0.276 OA
ATOM      5  N   UNL     1      -2.948 -11.211  11.930  0.00  0.00    -0.313 N 
ATOM     14  C   UNL     1      -2.889 -10.121  11.075  0.00  0.00    +0.216 C 
ATOM     19  H   UNL     1      -3.816 -11.734  11.999  0.00  0.00    +0.149 HD
BRANCH  14   6
ATOM      6  C   UNL     1      -4.157  -9.845  10.339  0.00  0.00    +0.075 C 
ATOM      8  C   UNL     1      -4.120  -8.906   9.179  0.00  0.00    +0.013 C 
ATOM      9  C   UNL     1      -4.307 -10.377   8.953  0.00  0.00    +0.013 C 
ENDBRANCH  14   6
ENDBRANCH  13   5
ENDBRANCH  10  13
TORSDOF 6
ENDMDL
MODEL 8
REMARK VINA RESULT:      -4.9     15.425     17.707
REMARK  Name = 75536533
REMARK  8 active torsions:
REMARK  status: ('A' for Active; 'I' for Inactive)
REMARK    1  A    between atoms: O_2  and  C_11
REMARK    2  A    between atoms: N_4  and  C_7
REMARK    3  A    between atoms: N_4  and  C_15
REMARK    4  A    between atoms: N_5  and  C_13
REMARK    5  A    between atoms: C_6  and  C_14
REMARK    6  A    between atoms: C_10  and  C_13
REMARK    7  A    between atoms: C_15  and  C_16
REMARK    8  A    between atoms: C_15  and  C_17
REMARK                            x       y       z     vdW  Elec       q    Type
REMARK                         _______ _______ _______ _____ _____    ______ ____
ROOT
ATOM      1  O   UNL     1      10.346   8.316   5.260  0.00  0.00    -0.371 OA
ATOM      7  C   UNL     1      12.359   7.160   4.763  0.00  0.00    +0.111 C 
ATOM     10  C   UNL     1      10.026   6.958   4.912  0.00  0.00    +0.165 C 
ATOM     11  C   UNL     1      11.295   6.153   5.155  0.00  0.00    +0.164 C 
ATOM     12  C   UNL     1      11.776   8.447   5.322  0.00  0.00    +0.181 C 
ENDROOT
BRANCH  11   2
ATOM      2  O   UNL     1      11.334   4.981   4.364  0.00  0.00    -0.388 OA
ATOM     20  H   UNL     1      11.246   4.211   4.952  0.00  0.00    +0.210 HD
ENDBRANCH  11   2
BRANCH   7   4
ATOM      4  N   UNL     1      13.677   6.856   5.298  0.00  0.00    -0.307 NA
ATOM     18  H   UNL     1      13.986   5.941   4.969  0.00  0.00    +0.123 HD
BRANCH   4  15
ATOM     15  C   UNL     1      14.647   7.875   4.919  0.00  0.00    +0.048 C 
ATOM     16  C   UNL     1      15.460   7.409   3.714  0.00  0.00    +0.023 C 
ATOM     17  C   UNL     1      15.553   8.182   6.106  0.00  0.00    +0.023 C 
ENDBRANCH   4  15
ENDBRANCH   7   4
BRANCH  10  13
ATOM     13  C   UNL     1       8.845   6.482   5.741  0.00  0.00    +0.138 C 
BRANCH  13   5
ATOM      3  O   UNL     1       8.662   7.403   8.492  0.00  0.00    -0.276 OA
ATOM      5  N   UNL     1       9.280   5.796   6.923  0.00  0.00    -0.313 N 
ATOM     14  C   UNL     1       9.150   6.318   8.202  0.00  0.00    +0.216 C 
ATOM     19  H   UNL     1       9.703   4.880   6.807  0.00  0.00    +0.149 HD
BRANCH  14   6
ATOM      6  C   UNL     1       9.669   5.431   9.285  0.00  0.00    +0.075 C 
ATOM      8  C   UNL     1       8.689   4.774  10.199  0.00  0.00    +0.013 C 
ATOM      9  C   UNL     1       9.429   3.962   9.178  0.00  0.00    +0.013 C 
ENDBRANCH  14   6
ENDBRANCH  13   5
ENDBRANCH  10  13
TORSDOF 6
ENDMDL
MODEL 9
REMARK VINA RESULT:      -4.8     25.789     27.347
REMARK  Name = 75536533
REMARK  8 active torsions:
REMARK  status: ('A' for Active; 'I' for Inactive)
REMARK    1  A    between atoms: O_2  and  C_11
REMARK    2  A    between atoms: N_4  and  C_7
REMARK    3  A    between atoms: N_4  and  C_15
REMARK    4  A    between atoms: N_5  and  C_13
REMARK    5  A    between atoms: C_6  and  C_14
REMARK    6  A    between atoms: C_10  and  C_13
REMARK    7  A    between atoms: C_15  and  C_16
REMARK    8  A    between atoms: C_15  and  C_17
REMARK                            x       y       z     vdW  Elec       q    Type
REMARK                         _______ _______ _______ _____ _____    ______ ____
ROOT
ATOM      1  O   UNL     1      -5.531 -11.094  18.976  0.00  0.00    -0.371 OA
ATOM      7  C   UNL     1      -4.158 -10.748  17.070  0.00  0.00    +0.111 C 
ATOM     10  C   UNL     1      -6.263 -10.315  18.015  0.00  0.00    +0.165 C 
ATOM     11  C   UNL     1      -5.613 -10.594  16.666  0.00  0.00    +0.164 C 
ATOM     12  C   UNL     1      -4.288 -11.505  18.381  0.00  0.00    +0.181 C 
ENDROOT
BRANCH  11   2
ATOM      2  O   UNL     1      -5.817  -9.533  15.754  0.00  0.00    -0.388 OA
ATOM     20  H   UNL     1      -6.374  -9.858  15.025  0.00  0.00    +0.210 HD
ENDBRANCH  11   2
BRANCH   7   4
ATOM      4  N   UNL     1      -3.352 -11.454  16.086  0.00  0.00    -0.307 NA
ATOM     18  H   UNL     1      -3.951 -12.001  15.468  0.00  0.00    +0.123 HD
BRANCH   4  15
ATOM     15  C   UNL     1      -2.547 -10.525  15.303  0.00  0.00    +0.048 C 
ATOM     16  C   UNL     1      -2.636 -10.870  13.819  0.00  0.00    +0.023 C 
ATOM     17  C   UNL     1      -1.102 -10.568  15.790  0.00  0.00    +0.023 C 
ENDBRANCH   4  15
ENDBRANCH   7   4
BRANCH  10  13
ATOM     13  C   UNL     1      -7.733 -10.691  18.062  0.00  0.00    +0.138 C 
BRANCH  13   5
ATOM      3  O   UNL     1      -8.819  -9.268  15.771  0.00  0.00    -0.276 OA
ATOM      5  N   UNL     1      -8.570  -9.526  18.073  0.00  0.00    -0.313 N 
ATOM     14  C   UNL     1      -9.043  -8.913  16.922  0.00  0.00    +0.216 C 
ATOM     19  H   UNL     1      -8.826  -9.138  18.976  0.00  0.00    +0.149 HD
BRANCH  14   6
ATOM      6  C   UNL     1      -9.899  -7.716  17.169  0.00  0.00    +0.075 C 
ATOM      8  C   UNL     1     -10.370  -6.921  15.996  0.00  0.00    +0.013 C 
ATOM      9  C   UNL     1     -11.335  -7.772  16.766  0.00  0.00    +0.013 C 
ENDBRANCH  14   6
ENDBRANCH  13   5
ENDBRANCH  10  13
TORSDOF 6
ENDMDL
MODEL 10
REMARK VINA RESULT:      -4.7     39.925     42.355
REMARK  Name = 75536533
REMARK  8 active torsions:
REMARK  status: ('A' for Active; 'I' for Inactive)
REMARK    1  A    between atoms: O_2  and  C_11
REMARK    2  A    between atoms: N_4  and  C_7
REMARK    3  A    between atoms: N_4  and  C_15
REMARK    4  A    between atoms: N_5  and  C_13
REMARK    5  A    between atoms: C_6  and  C_14
REMARK    6  A    between atoms: C_10  and  C_13
REMARK    7  A    between atoms: C_15  and  C_16
REMARK    8  A    between atoms: C_15  and  C_17
REMARK                            x       y       z     vdW  Elec       q    Type
REMARK                         _______ _______ _______ _____ _____    ______ ____
ROOT
ATOM      1  O   UNL     1      -2.323  11.842  36.251  0.00  0.00    -0.371 OA
ATOM      7  C   UNL     1      -0.476  10.623  37.113  0.00  0.00    +0.111 C 
ATOM     10  C   UNL     1      -1.107  12.469  35.808  0.00  0.00    +0.165 C 
ATOM     11  C   UNL     1      -0.029  11.397  35.886  0.00  0.00    +0.164 C 
ATOM     12  C   UNL     1      -1.985  10.623  36.935  0.00  0.00    +0.181 C 
ENDROOT
BRANCH  11   2
ATOM      2  O   UNL     1       1.261  11.958  36.035  0.00  0.00    -0.388 OA
ATOM     20  H   UNL     1       1.770  11.773  35.227  0.00  0.00    +0.210 HD
ENDBRANCH  11   2
BRANCH   7   4
ATOM      4  N   UNL     1       0.084   9.284  37.194  0.00  0.00    -0.307 NA
ATOM     18  H   UNL     1       1.048   9.326  37.525  0.00  0.00    +0.123 HD
BRANCH   4  15
ATOM     15  C   UNL     1      -0.706   8.435  38.077  0.00  0.00    +0.048 C 
ATOM     16  C   UNL     1      -0.192   8.538  39.510  0.00  0.00    +0.023 C 
ATOM     17  C   UNL     1      -0.656   6.995  37.578  0.00  0.00    +0.023 C 
ENDBRANCH   4  15
ENDBRANCH   7   4
BRANCH  10  13
ATOM     13  C   UNL     1      -1.299  13.026  34.407  0.00  0.00    +0.138 C 
BRANCH  13   5
ATOM      3  O   UNL     1      -0.529  14.724  32.176  0.00  0.00    -0.276 OA
ATOM      5  N   UNL     1      -0.076  12.984  33.658  0.00  0.00    -0.313 N 
ATOM     14  C   UNL     1       0.204  13.841  32.603  0.00  0.00    +0.216 C 
ATOM     19  H   UNL     1       0.615  12.289  33.923  0.00  0.00    +0.149 HD
BRANCH  14   6
ATOM      6  C   UNL     1       1.537  13.621  31.969  0.00  0.00    +0.075 C 
ATOM      8  C   UNL     1       1.674  12.535  30.953  0.00  0.00    +0.013 C 
ATOM      9  C   UNL     1       1.708  13.973  30.529  0.00  0.00    +0.013 C 
ENDBRANCH  14   6
ENDBRANCH  13   5
ENDBRANCH  10  13
TORSDOF 6
ENDMDL
