MODEL 1
REMARK VINA RESULT:      -6.1      0.000      0.000
REMARK  Name = 75536883
REMARK  5 active torsions:
REMARK  status: ('A' for Active; 'I' for Inactive)
REMARK    1  A    between atoms: O_2  and  C_6
REMARK    2  A    between atoms: O_2  and  C_13
REMARK    3  A    between atoms: O_4  and  C_16
REMARK    4  A    between atoms: O_4  and  C_19
REMARK    5  A    between atoms: C_11  and  C_12
REMARK                            x       y       z     vdW  Elec       q    Type
REMARK                         _______ _______ _______ _____ _____    ______ ____
ROOT
ATOM      1  O   UNL     1      10.906   8.477  18.964  0.00  0.00    -0.376 OA
ATOM      3  O   UNL     1      14.276   7.559  22.296  0.00  0.00    -0.270 OA
ATOM      5  N   UNL     1      13.772   8.542  20.229  0.00  0.00    -0.293 N 
ATOM      6  C   UNL     1      12.995   9.084  17.859  0.00  0.00    +0.161 C 
ATOM      7  C   UNL     1      14.139   8.765  18.826  0.00  0.00    +0.142 C 
ATOM      8  C   UNL     1      12.505   9.092  20.712  0.00  0.00    +0.136 C 
ATOM      9  C   UNL     1      11.835   8.095  17.954  0.00  0.00    +0.193 C 
ATOM     10  C   UNL     1      11.332   8.214  20.296  0.00  0.00    +0.179 C 
ATOM     11  C   UNL     1      14.559   7.796  21.122  0.00  0.00    +0.247 C 
ENDROOT
BRANCH  11  12
ATOM     12  C   UNL     1      15.834   7.245  20.636  0.00  0.00    +0.040 A 
ATOM     14  C   UNL     1      17.032   7.621  21.242  0.00  0.00    +0.058 A 
ATOM     15  C   UNL     1      15.843   6.348  19.568  0.00  0.00    +0.013 A 
ATOM     16  C   UNL     1      18.241   7.098  20.781  0.00  0.00    +0.121 A 
ATOM     17  C   UNL     1      17.052   5.825  19.107  0.00  0.00    +0.004 A 
ATOM     18  C   UNL     1      18.251   6.200  19.714  0.00  0.00    +0.045 A 
BRANCH  16   4
ATOM      4  O   UNL     1      19.411   7.464  21.373  0.00  0.00    -0.495 OA
ATOM     19  C   UNL     1      19.844   6.686  22.488  0.00  0.00    +0.277 C 
ENDBRANCH  16   4
ENDBRANCH  11  12
BRANCH   6   2
ATOM      2  O   UNL     1      13.543   9.030  16.541  0.00  0.00    -0.376 OA
ATOM     13  C   UNL     1      12.644   9.574  15.588  0.00  0.00    +0.194 C 
ENDBRANCH   6   2
TORSDOF 3
ENDMDL
MODEL 2
REMARK VINA RESULT:      -6.1      3.936      5.620
REMARK  Name = 75536883
REMARK  5 active torsions:
REMARK  status: ('A' for Active; 'I' for Inactive)
REMARK    1  A    between atoms: O_2  and  C_6
REMARK    2  A    between atoms: O_2  and  C_13
REMARK    3  A    between atoms: O_4  and  C_16
REMARK    4  A    between atoms: O_4  and  C_19
REMARK    5  A    between atoms: C_11  and  C_12
REMARK                            x       y       z     vdW  Elec       q    Type
REMARK                         _______ _______ _______ _____ _____    ______ ____
ROOT
ATOM      1  O   UNL     1      11.221   9.570  23.003  0.00  0.00    -0.376 OA
ATOM      3  O   UNL     1      12.024   6.544  19.329  0.00  0.00    -0.270 OA
ATOM      5  N   UNL     1      12.503   8.620  20.306  0.00  0.00    -0.293 N 
ATOM      6  C   UNL     1      12.437  10.932  21.385  0.00  0.00    +0.161 C 
ATOM      7  C   UNL     1      12.685  10.067  20.146  0.00  0.00    +0.142 C 
ATOM      8  C   UNL     1      12.588   8.054  21.653  0.00  0.00    +0.136 C 
ATOM      9  C   UNL     1      11.103  10.637  22.067  0.00  0.00    +0.193 C 
ATOM     10  C   UNL     1      11.292   8.273  22.423  0.00  0.00    +0.179 C 
ATOM     11  C   UNL     1      12.215   7.756  19.236  0.00  0.00    +0.247 C 
ENDROOT
BRANCH  11  12
ATOM     12  C   UNL     1      12.131   8.326  17.883  0.00  0.00    +0.040 A 
ATOM     14  C   UNL     1      13.297   8.648  17.189  0.00  0.00    +0.058 A 
ATOM     15  C   UNL     1      10.886   8.546  17.294  0.00  0.00    +0.013 A 
ATOM     16  C   UNL     1      13.218   9.189  15.905  0.00  0.00    +0.121 A 
ATOM     17  C   UNL     1      10.807   9.087  16.010  0.00  0.00    +0.004 A 
ATOM     18  C   UNL     1      11.973   9.409  15.316  0.00  0.00    +0.045 A 
BRANCH  16   4
ATOM      4  O   UNL     1      14.356   9.503  15.227  0.00  0.00    -0.495 OA
ATOM     19  C   UNL     1      14.980  10.745  15.546  0.00  0.00    +0.277 C 
ENDBRANCH  16   4
ENDBRANCH  11  12
BRANCH   6   2
ATOM      2  O   UNL     1      12.443  12.292  20.946  0.00  0.00    -0.376 OA
ATOM     13  C   UNL     1      11.308  12.992  21.427  0.00  0.00    +0.194 C 
ENDBRANCH   6   2
TORSDOF 3
ENDMDL
MODEL 3
REMARK VINA RESULT:      -5.9      3.331      6.475
REMARK  Name = 75536883
REMARK  5 active torsions:
REMARK  status: ('A' for Active; 'I' for Inactive)
REMARK    1  A    between atoms: O_2  and  C_6
REMARK    2  A    between atoms: O_2  and  C_13
REMARK    3  A    between atoms: O_4  and  C_16
REMARK    4  A    between atoms: O_4  and  C_19
REMARK    5  A    between atoms: C_11  and  C_12
REMARK                            x       y       z     vdW  Elec       q    Type
REMARK                         _______ _______ _______ _____ _____    ______ ____
ROOT
ATOM      1  O   UNL     1      14.884   6.638  19.790  0.00  0.00    -0.376 OA
ATOM      3  O   UNL     1      15.403  10.667  22.397  0.00  0.00    -0.270 OA
ATOM      5  N   UNL     1      14.125   8.748  21.979  0.00  0.00    -0.293 N 
ATOM      6  C   UNL     1      12.756   6.846  20.966  0.00  0.00    +0.161 C 
ATOM      7  C   UNL     1      12.803   8.143  21.780  0.00  0.00    +0.142 C 
ATOM      8  C   UNL     1      15.307   7.895  21.847  0.00  0.00    +0.136 C 
ATOM      9  C   UNL     1      13.501   6.944  19.637  0.00  0.00    +0.193 C 
ATOM     10  C   UNL     1      15.661   7.672  20.383  0.00  0.00    +0.179 C 
ATOM     11  C   UNL     1      14.314  10.113  22.254  0.00  0.00    +0.247 C 
ENDROOT
BRANCH  11  12
ATOM     12  C   UNL     1      13.125  10.969  22.388  0.00  0.00    +0.040 A 
ATOM     14  C   UNL     1      12.468  11.062  23.614  0.00  0.00    +0.058 A 
ATOM     15  C   UNL     1      12.655  11.686  21.288  0.00  0.00    +0.013 A 
ATOM     16  C   UNL     1      11.340  11.874  23.741  0.00  0.00    +0.121 A 
ATOM     17  C   UNL     1      11.527  12.498  21.415  0.00  0.00    +0.004 A 
ATOM     18  C   UNL     1      10.870  12.592  22.641  0.00  0.00    +0.045 A 
BRANCH  16   4
ATOM      4  O   UNL     1      10.699  11.966  24.938  0.00  0.00    -0.495 OA
ATOM     19  C   UNL     1      10.508  13.276  25.472  0.00  0.00    +0.277 C 
ENDBRANCH  16   4
ENDBRANCH  11  12
BRANCH   6   2
ATOM      2  O   UNL     1      11.378   6.573  20.707  0.00  0.00    -0.376 OA
ATOM     13  C   UNL     1      10.562   6.970  21.797  0.00  0.00    +0.194 C 
ENDBRANCH   6   2
TORSDOF 3
ENDMDL
MODEL 4
REMARK VINA RESULT:      -5.7      2.534      5.662
REMARK  Name = 75536883
REMARK  5 active torsions:
REMARK  status: ('A' for Active; 'I' for Inactive)
REMARK    1  A    between atoms: O_2  and  C_6
REMARK    2  A    between atoms: O_2  and  C_13
REMARK    3  A    between atoms: O_4  and  C_16
REMARK    4  A    between atoms: O_4  and  C_19
REMARK    5  A    between atoms: C_11  and  C_12
REMARK                            x       y       z     vdW  Elec       q    Type
REMARK                         _______ _______ _______ _____ _____    ______ ____
ROOT
ATOM      1  O   UNL     1      14.836   6.925  17.786  0.00  0.00    -0.376 OA
ATOM      3  O   UNL     1      14.732   8.618  22.306  0.00  0.00    -0.270 OA
ATOM      5  N   UNL     1      13.504   7.803  20.484  0.00  0.00    -0.293 N 
ATOM      6  C   UNL     1      12.465   7.327  18.201  0.00  0.00    +0.161 C 
ATOM      7  C   UNL     1      12.337   7.930  19.603  0.00  0.00    +0.142 C 
ATOM      8  C   UNL     1      14.476   6.747  20.201  0.00  0.00    +0.136 C 
ATOM      9  C   UNL     1      13.732   7.768  17.471  0.00  0.00    +0.193 C 
ATOM     10  C   UNL     1      15.411   7.151  19.068  0.00  0.00    +0.179 C 
ATOM     11  C   UNL     1      13.753   8.668  21.562  0.00  0.00    +0.247 C 
ENDROOT
BRANCH  11  12
ATOM     12  C   UNL     1      12.774   9.729  21.846  0.00  0.00    +0.040 A 
ATOM     14  C   UNL     1      12.912  10.982  21.251  0.00  0.00    +0.058 A 
ATOM     15  C   UNL     1      11.709   9.482  22.713  0.00  0.00    +0.013 A 
ATOM     16  C   UNL     1      11.983  11.989  21.520  0.00  0.00    +0.121 A 
ATOM     17  C   UNL     1      10.781  10.488  22.982  0.00  0.00    +0.004 A 
ATOM     18  C   UNL     1      10.918  11.741  22.386  0.00  0.00    +0.045 A 
BRANCH  16   4
ATOM      4  O   UNL     1      12.116  13.212  20.938  0.00  0.00    -0.495 OA
ATOM     19  C   UNL     1      10.984  14.080  20.986  0.00  0.00    +0.277 C 
ENDBRANCH  16   4
ENDBRANCH  11  12
BRANCH   6   2
ATOM      2  O   UNL     1      11.326   7.764  17.459  0.00  0.00    -0.376 OA
ATOM     13  C   UNL     1      11.632   8.904  16.671  0.00  0.00    +0.194 C 
ENDBRANCH   6   2
TORSDOF 3
ENDMDL
MODEL 5
REMARK VINA RESULT:      -5.6      2.441      3.912
REMARK  Name = 75536883
REMARK  5 active torsions:
REMARK  status: ('A' for Active; 'I' for Inactive)
REMARK    1  A    between atoms: O_2  and  C_6
REMARK    2  A    between atoms: O_2  and  C_13
REMARK    3  A    between atoms: O_4  and  C_16
REMARK    4  A    between atoms: O_4  and  C_19
REMARK    5  A    between atoms: C_11  and  C_12
REMARK                            x       y       z     vdW  Elec       q    Type
REMARK                         _______ _______ _______ _____ _____    ______ ____
ROOT
ATOM      1  O   UNL     1      10.886  10.989  23.433  0.00  0.00    -0.376 OA
ATOM      3  O   UNL     1      14.462  11.315  20.207  0.00  0.00    -0.270 OA
ATOM      5  N   UNL     1      12.487  10.228  20.849  0.00  0.00    -0.293 N 
ATOM      6  C   UNL     1      10.616   8.987  22.064  0.00  0.00    +0.161 C 
ATOM      7  C   UNL     1      11.755   8.971  21.040  0.00  0.00    +0.142 C 
ATOM      8  C   UNL     1      11.831  11.479  21.228  0.00  0.00    +0.136 C 
ATOM      9  C   UNL     1      11.029   9.572  23.413  0.00  0.00    +0.193 C 
ATOM     10  C   UNL     1      11.901  11.701  22.734  0.00  0.00    +0.179 C 
ATOM     11  C   UNL     1      13.800  10.287  20.354  0.00  0.00    +0.247 C 
ENDROOT
BRANCH  11  12
ATOM     12  C   UNL     1      14.459   9.029  19.971  0.00  0.00    +0.040 A 
ATOM     14  C   UNL     1      15.276   8.364  20.885  0.00  0.00    +0.058 A 
ATOM     15  C   UNL     1      14.269   8.502  18.694  0.00  0.00    +0.013 A 
ATOM     16  C   UNL     1      15.901   7.170  20.522  0.00  0.00    +0.121 A 
ATOM     17  C   UNL     1      14.894   7.309  18.331  0.00  0.00    +0.004 A 
ATOM     18  C   UNL     1      15.710   6.643  19.245  0.00  0.00    +0.045 A 
BRANCH  16   4
ATOM      4  O   UNL     1      16.697   6.519  21.414  0.00  0.00    -0.495 OA
ATOM     19  C   UNL     1      18.107   6.691  21.271  0.00  0.00    +0.277 C 
ENDBRANCH  16   4
ENDBRANCH  11  12
BRANCH   6   2
ATOM      2  O   UNL     1      10.211   7.631  22.251  0.00  0.00    -0.376 OA
ATOM     13  C   UNL     1      11.108   6.734  21.616  0.00  0.00    +0.194 C 
ENDBRANCH   6   2
TORSDOF 3
ENDMDL
MODEL 6
REMARK VINA RESULT:      -5.4     26.262     28.255
REMARK  Name = 75536883
REMARK  5 active torsions:
REMARK  status: ('A' for Active; 'I' for Inactive)
REMARK    1  A    between atoms: O_2  and  C_6
REMARK    2  A    between atoms: O_2  and  C_13
REMARK    3  A    between atoms: O_4  and  C_16
REMARK    4  A    between atoms: O_4  and  C_19
REMARK    5  A    between atoms: C_11  and  C_12
REMARK                            x       y       z     vdW  Elec       q    Type
REMARK                         _______ _______ _______ _____ _____    ______ ____
ROOT
ATOM      1  O   UNL     1      -2.668 -12.478  11.861  0.00  0.00    -0.376 OA
ATOM      3  O   UNL     1      -1.916 -10.296  16.101  0.00  0.00    -0.270 OA
ATOM      5  N   UNL     1      -2.896 -12.096  14.963  0.00  0.00    -0.293 N 
ATOM      6  C   UNL     1      -4.187 -13.629  13.384  0.00  0.00    +0.161 C 
ATOM      7  C   UNL     1      -4.064 -12.958  14.755  0.00  0.00    +0.142 C 
ATOM      8  C   UNL     1      -1.723 -12.297  14.112  0.00  0.00    +0.136 C 
ATOM      9  C   UNL     1      -4.035 -12.652  12.220  0.00  0.00    +0.193 C 
ATOM     10  C   UNL     1      -1.919 -11.652  12.746  0.00  0.00    +0.179 C 
ATOM     11  C   UNL     1      -2.861 -11.062  15.914  0.00  0.00    +0.247 C 
ENDROOT
BRANCH  11  12
ATOM     12  C   UNL     1      -4.040 -10.862  16.770  0.00  0.00    +0.040 A 
ATOM     14  C   UNL     1      -5.114 -10.101  16.309  0.00  0.00    +0.058 A 
ATOM     15  C   UNL     1      -4.082 -11.430  18.043  0.00  0.00    +0.013 A 
ATOM     16  C   UNL     1      -6.233  -9.911  17.122  0.00  0.00    +0.121 A 
ATOM     17  C   UNL     1      -5.201 -11.239  18.855  0.00  0.00    +0.004 A 
ATOM     18  C   UNL     1      -6.276 -10.480  18.395  0.00  0.00    +0.045 A 
BRANCH  16   4
ATOM      4  O   UNL     1      -7.283  -9.170  16.672  0.00  0.00    -0.495 OA
ATOM     19  C   UNL     1      -8.475  -9.193  17.456  0.00  0.00    +0.277 C 
ENDBRANCH  16   4
ENDBRANCH  11  12
BRANCH   6   2
ATOM      2  O   UNL     1      -5.488 -14.217  13.328  0.00  0.00    -0.376 OA
ATOM     13  C   UNL     1      -6.293 -13.786  14.414  0.00  0.00    +0.194 C 
ENDBRANCH   6   2
TORSDOF 3
ENDMDL
MODEL 7
REMARK VINA RESULT:      -5.3     13.179     16.077
REMARK  Name = 75536883
REMARK  5 active torsions:
REMARK  status: ('A' for Active; 'I' for Inactive)
REMARK    1  A    between atoms: O_2  and  C_6
REMARK    2  A    between atoms: O_2  and  C_13
REMARK    3  A    between atoms: O_4  and  C_16
REMARK    4  A    between atoms: O_4  and  C_19
REMARK    5  A    between atoms: C_11  and  C_12
REMARK                            x       y       z     vdW  Elec       q    Type
REMARK                         _______ _______ _______ _____ _____    ______ ____
ROOT
ATOM      1  O   UNL     1      10.747   9.335   8.060  0.00  0.00    -0.376 OA
ATOM      3  O   UNL     1       8.234   5.966   5.686  0.00  0.00    -0.270 OA
ATOM      5  N   UNL     1      10.344   6.740   6.350  0.00  0.00    -0.293 N 
ATOM      6  C   UNL     1      12.454   8.091   6.839  0.00  0.00    +0.161 C 
ATOM      7  C   UNL     1      11.739   7.029   5.999  0.00  0.00    +0.142 C 
ATOM      8  C   UNL     1       9.883   7.073   7.698  0.00  0.00    +0.136 C 
ATOM      9  C   UNL     1      11.659   9.389   6.969  0.00  0.00    +0.193 C 
ATOM     10  C   UNL     1       9.577   8.561   7.821  0.00  0.00    +0.179 C 
ATOM     11  C   UNL     1       9.419   6.195   5.445  0.00  0.00    +0.247 C 
ENDROOT
BRANCH  11  12
ATOM     12  C   UNL     1       9.883   5.859   4.089  0.00  0.00    +0.040 A 
ATOM     14  C   UNL     1      10.582   4.674   3.866  0.00  0.00    +0.058 A 
ATOM     15  C   UNL     1       9.626   6.728   3.029  0.00  0.00    +0.013 A 
ATOM     16  C   UNL     1      11.023   4.355   2.581  0.00  0.00    +0.121 A 
ATOM     17  C   UNL     1      10.066   6.409   1.744  0.00  0.00    +0.004 A 
ATOM     18  C   UNL     1      10.765   5.223   1.520  0.00  0.00    +0.045 A 
BRANCH  16   4
ATOM      4  O   UNL     1      11.704   3.197   2.362  0.00  0.00    -0.495 OA
ATOM     19  C   UNL     1      12.937   3.295   1.649  0.00  0.00    +0.277 C 
ENDBRANCH  16   4
ENDBRANCH  11  12
BRANCH   6   2
ATOM      2  O   UNL     1      13.693   8.369   6.185  0.00  0.00    -0.376 OA
ATOM     13  C   UNL     1      14.677   7.403   6.518  0.00  0.00    +0.194 C 
ENDBRANCH   6   2
TORSDOF 3
ENDMDL
MODEL 8
REMARK VINA RESULT:      -5.3      3.843      6.070
REMARK  Name = 75536883
REMARK  5 active torsions:
REMARK  status: ('A' for Active; 'I' for Inactive)
REMARK    1  A    between atoms: O_2  and  C_6
REMARK    2  A    between atoms: O_2  and  C_13
REMARK    3  A    between atoms: O_4  and  C_16
REMARK    4  A    between atoms: O_4  and  C_19
REMARK    5  A    between atoms: C_11  and  C_12
REMARK                            x       y       z     vdW  Elec       q    Type
REMARK                         _______ _______ _______ _____ _____    ______ ____
ROOT
ATOM      1  O   UNL     1      12.056   6.187  20.031  0.00  0.00    -0.376 OA
ATOM      3  O   UNL     1      10.954   9.502  23.362  0.00  0.00    -0.270 OA
ATOM      5  N   UNL     1      11.242   9.023  21.086  0.00  0.00    -0.293 N 
ATOM      6  C   UNL     1      12.075   8.287  18.788  0.00  0.00    +0.161 C 
ATOM      7  C   UNL     1      11.794   9.415  19.784  0.00  0.00    +0.142 C 
ATOM      8  C   UNL     1      10.556   7.735  21.190  0.00  0.00    +0.136 C 
ATOM      9  C   UNL     1      12.892   7.145  19.389  0.00  0.00    +0.193 C 
ATOM     10  C   UNL     1      11.554   6.589  21.300  0.00  0.00    +0.179 C 
ATOM     11  C   UNL     1      11.373   9.805  22.245  0.00  0.00    +0.247 C 
ENDROOT
BRANCH  11  12
ATOM     12  C   UNL     1      12.062  11.101  22.139  0.00  0.00    +0.040 A 
ATOM     14  C   UNL     1      11.331  12.260  21.878  0.00  0.00    +0.058 A 
ATOM     15  C   UNL     1      13.446  11.170  22.298  0.00  0.00    +0.013 A 
ATOM     16  C   UNL     1      11.984  13.488  21.778  0.00  0.00    +0.121 A 
ATOM     17  C   UNL     1      14.099  12.399  22.197  0.00  0.00    +0.004 A 
ATOM     18  C   UNL     1      13.368  13.558  21.937  0.00  0.00    +0.045 A 
BRANCH  16   4
ATOM      4  O   UNL     1      11.271  14.620  21.524  0.00  0.00    -0.495 OA
ATOM     19  C   UNL     1       9.849  14.514  21.565  0.00  0.00    +0.277 C 
ENDBRANCH  16   4
ENDBRANCH  11  12
BRANCH   6   2
ATOM      2  O   UNL     1      12.809   8.864  17.707  0.00  0.00    -0.376 OA
ATOM     13  C   UNL     1      11.966   9.128  16.597  0.00  0.00    +0.194 C 
ENDBRANCH   6   2
TORSDOF 3
ENDMDL
MODEL 9
REMARK VINA RESULT:      -5.3      3.212      5.402
REMARK  Name = 75536883
REMARK  5 active torsions:
REMARK  status: ('A' for Active; 'I' for Inactive)
REMARK    1  A    between atoms: O_2  and  C_6
REMARK    2  A    between atoms: O_2  and  C_13
REMARK    3  A    between atoms: O_4  and  C_16
REMARK    4  A    between atoms: O_4  and  C_19
REMARK    5  A    between atoms: C_11  and  C_12
REMARK                            x       y       z     vdW  Elec       q    Type
REMARK                         _______ _______ _______ _____ _____    ______ ____
ROOT
ATOM      1  O   UNL     1      11.399   7.741  22.340  0.00  0.00    -0.376 OA
ATOM      3  O   UNL     1      11.691   7.325  17.539  0.00  0.00    -0.270 OA
ATOM      5  N   UNL     1      12.825   7.735  19.549  0.00  0.00    -0.293 N 
ATOM      6  C   UNL     1      13.631   8.577  21.819  0.00  0.00    +0.161 C 
ATOM      7  C   UNL     1      13.795   8.542  20.297  0.00  0.00    +0.142 C 
ATOM      8  C   UNL     1      12.113   6.670  20.257  0.00  0.00    +0.136 C 
ATOM      9  C   UNL     1      12.209   8.910  22.263  0.00  0.00    +0.193 C 
ATOM     10  C   UNL     1      10.964   7.235  21.083  0.00  0.00    +0.179 C 
ATOM     11  C   UNL     1      12.518   7.956  18.196  0.00  0.00    +0.247 C 
ENDROOT
BRANCH  11  12
ATOM     12  C   UNL     1      13.235   9.026  17.484  0.00  0.00    +0.040 A 
ATOM     14  C   UNL     1      13.193  10.334  17.966  0.00  0.00    +0.058 A 
ATOM     15  C   UNL     1      13.955   8.732  16.326  0.00  0.00    +0.013 A 
ATOM     16  C   UNL     1      13.872  11.348  17.291  0.00  0.00    +0.121 A 
ATOM     17  C   UNL     1      14.635   9.746  15.651  0.00  0.00    +0.004 A 
ATOM     18  C   UNL     1      14.594  11.054  16.134  0.00  0.00    +0.045 A 
BRANCH  16   4
ATOM      4  O   UNL     1      13.833  12.625  17.761  0.00  0.00    -0.495 OA
ATOM     19  C   UNL     1      13.327  12.814  19.083  0.00  0.00    +0.277 C 
ENDBRANCH  16   4
ENDBRANCH  11  12
BRANCH   6   2
ATOM      2  O   UNL     1      14.518   9.586  22.305  0.00  0.00    -0.376 OA
ATOM     13  C   UNL     1      13.843  10.822  22.480  0.00  0.00    +0.194 C 
ENDBRANCH   6   2
TORSDOF 3
ENDMDL
MODEL 10
REMARK VINA RESULT:      -5.3      2.116      5.869
REMARK  Name = 75536883
REMARK  5 active torsions:
REMARK  status: ('A' for Active; 'I' for Inactive)
REMARK    1  A    between atoms: O_2  and  C_6
REMARK    2  A    between atoms: O_2  and  C_13
REMARK    3  A    between atoms: O_4  and  C_16
REMARK    4  A    between atoms: O_4  and  C_19
REMARK    5  A    between atoms: C_11  and  C_12
REMARK                            x       y       z     vdW  Elec       q    Type
REMARK                         _______ _______ _______ _____ _____    ______ ____
ROOT
ATOM      1  O   UNL     1      13.306   7.211  21.929  0.00  0.00    -0.376 OA
ATOM      3  O   UNL     1      11.515   8.656  17.686  0.00  0.00    -0.270 OA
ATOM      5  N   UNL     1      13.407   7.981  18.893  0.00  0.00    -0.293 N 
ATOM      6  C   UNL     1      15.291   7.664  20.585  0.00  0.00    +0.161 C 
ATOM      7  C   UNL     1      14.820   8.193  19.228  0.00  0.00    +0.142 C 
ATOM      8  C   UNL     1      12.682   6.912  19.581  0.00  0.00    +0.136 C 
ATOM      9  C   UNL     1      14.399   8.104  21.744  0.00  0.00    +0.193 C 
ATOM     10  C   UNL     1      12.257   7.348  20.977  0.00  0.00    +0.179 C 
ATOM     11  C   UNL     1      12.705   8.778  17.973  0.00  0.00    +0.247 C 
ENDROOT
BRANCH  11  12
ATOM     12  C   UNL     1      13.435   9.852  17.281  0.00  0.00    +0.040 A 
ATOM     14  C   UNL     1      13.982   9.622  16.019  0.00  0.00    +0.058 A 
ATOM     15  C   UNL     1      13.581  11.099  17.888  0.00  0.00    +0.013 A 
ATOM     16  C   UNL     1      14.674  10.640  15.363  0.00  0.00    +0.121 A 
ATOM     17  C   UNL     1      14.273  12.117  17.232  0.00  0.00    +0.004 A 
ATOM     18  C   UNL     1      14.819  11.888  15.969  0.00  0.00    +0.045 A 
BRANCH  16   4
ATOM      4  O   UNL     1      15.207  10.417  14.130  0.00  0.00    -0.495 OA
ATOM     19  C   UNL     1      15.728  11.549  13.435  0.00  0.00    +0.277 C 
ENDBRANCH  16   4
ENDBRANCH  11  12
BRANCH   6   2
ATOM      2  O   UNL     1      16.608   8.177  20.792  0.00  0.00    -0.376 OA
ATOM     13  C   UNL     1      17.548   7.128  20.959  0.00  0.00    +0.194 C 
ENDBRANCH   6   2
TORSDOF 3
ENDMDL
