MODEL 1
REMARK VINA RESULT:      -8.4      0.000      0.000
REMARK  Name = 28961045
REMARK  6 active torsions:
REMARK  status: ('A' for Active; 'I' for Inactive)
REMARK    1  A    between atoms: S_1  and  N_8
REMARK    2  A    between atoms: S_1  and  C_17
REMARK    3  A    between atoms: N_7  and  C_16
REMARK    4  A    between atoms: N_8  and  C_11
REMARK    5  A    between atoms: C_12  and  C_15
REMARK    6  A    between atoms: C_18  and  C_19
REMARK                            x       y       z     vdW  Elec       q    Type
REMARK                         _______ _______ _______ _____ _____    ______ ____
ROOT
ATOM      7  N   UNL     1      11.468   7.166  21.769  0.00  0.00    -0.293 NA
ATOM     11  C   UNL     1      10.863   9.398  22.078  0.00  0.00    +0.092 C 
ATOM     12  C   UNL     1      11.773   7.802  20.472  0.00  0.00    +0.147 C 
ATOM     13  C   UNL     1      11.560   9.307  20.724  0.00  0.00    +0.050 C 
ATOM     14  C   UNL     1      10.406   7.978  22.371  0.00  0.00    +0.105 C 
ATOM     16  C   UNL     1      11.077   5.767  21.644  0.00  0.00    +0.105 C 
ENDROOT
BRANCH  12  15
ATOM      2  O   UNL     1      13.349   7.596  18.616  0.00  0.00    -0.336 OA
ATOM      9  N   UNL     1      14.231   7.125  20.620  0.00  0.00    -0.190 NA
ATOM     10  N   UNL     1      14.689   7.262  18.384  0.00  0.00    -0.056 NA
ATOM     15  C   UNL     1      13.162   7.489  19.958  0.00  0.00    +0.245 A 
ATOM     18  C   UNL     1      15.141   6.997  19.612  0.00  0.00    +0.202 A 
BRANCH  18  19
ATOM      5  O   UNL     1      19.241   7.012  22.270  0.00  0.00    -0.453 OA
ATOM      6  O   UNL     1      20.374   5.558  20.717  0.00  0.00    -0.453 OA
ATOM     19  C   UNL     1      16.498   6.605  19.868  0.00  0.00    +0.026 A 
ATOM     22  C   UNL     1      17.149   7.068  21.014  0.00  0.00    +0.061 A 
ATOM     23  C   UNL     1      17.159   5.757  18.962  0.00  0.00    +0.015 A 
ATOM     26  C   UNL     1      18.452   6.663  21.217  0.00  0.00    +0.167 A 
ATOM     28  C   UNL     1      19.100   5.833  20.331  0.00  0.00    +0.166 A 
ATOM     29  C   UNL     1      18.479   5.362  19.192  0.00  0.00    +0.050 A 
ATOM     30  C   UNL     1      20.458   6.307  21.946  0.00  0.00    +0.466 C 
ENDBRANCH  18  19
ENDBRANCH  12  15
BRANCH  11   8
ATOM      8  N   UNL     1      11.831   9.843  23.114  0.00  0.00    -0.186 NA
ATOM     31  H   UNL     1      12.412   9.123  23.559  0.00  0.00    +0.148 HD
BRANCH   8   1
ATOM      1  S   UNL     1      11.674  11.384  23.807  0.00  0.00    +0.059 S 
ATOM      3  O   UNL     1      12.799  11.637  24.687  0.00  0.00    -0.153 OA
ATOM      4  O   UNL     1      10.317  11.539  24.294  0.00  0.00    -0.153 OA
BRANCH   1  17
ATOM     17  C   UNL     1      11.839  12.437  22.396  0.00  0.00    +0.105 A 
ATOM     20  C   UNL     1      13.033  12.456  21.675  0.00  0.00    +0.028 A 
ATOM     21  C   UNL     1      10.776  13.250  22.004  0.00  0.00    +0.028 A 
ATOM     24  C   UNL     1      13.163  13.287  20.562  0.00  0.00    +0.002 A 
ATOM     25  C   UNL     1      10.904  14.081  20.892  0.00  0.00    +0.002 A 
ATOM     27  C   UNL     1      12.099  14.099  20.170  0.00  0.00    +0.000 A 
ENDBRANCH   1  17
ENDBRANCH   8   1
ENDBRANCH  11   8
TORSDOF 5
ENDMDL
MODEL 2
REMARK VINA RESULT:      -7.6     27.436     30.950
REMARK  Name = 28961045
REMARK  6 active torsions:
REMARK  status: ('A' for Active; 'I' for Inactive)
REMARK    1  A    between atoms: S_1  and  N_8
REMARK    2  A    between atoms: S_1  and  C_17
REMARK    3  A    between atoms: N_7  and  C_16
REMARK    4  A    between atoms: N_8  and  C_11
REMARK    5  A    between atoms: C_12  and  C_15
REMARK    6  A    between atoms: C_18  and  C_19
REMARK                            x       y       z     vdW  Elec       q    Type
REMARK                         _______ _______ _______ _____ _____    ______ ____
ROOT
ATOM      7  N   UNL     1     -17.892   1.645  26.924  0.00  0.00    -0.293 NA
ATOM     11  C   UNL     1     -16.569   1.701  28.845  0.00  0.00    +0.092 C 
ATOM     12  C   UNL     1     -17.269   2.983  26.890  0.00  0.00    +0.147 C 
ATOM     13  C   UNL     1     -16.249   2.961  28.045  0.00  0.00    +0.050 C 
ATOM     14  C   UNL     1     -17.933   1.260  28.338  0.00  0.00    +0.105 C 
ATOM     16  C   UNL     1     -19.215   1.613  26.313  0.00  0.00    +0.105 C 
ENDROOT
BRANCH  12  15
ATOM      2  O   UNL     1     -16.445   2.285  24.698  0.00  0.00    -0.336 OA
ATOM      9  N   UNL     1     -16.225   4.477  25.101  0.00  0.00    -0.190 NA
ATOM     10  N   UNL     1     -15.850   2.834  23.555  0.00  0.00    -0.056 NA
ATOM     15  C   UNL     1     -16.632   3.320  25.559  0.00  0.00    +0.245 A 
ATOM     18  C   UNL     1     -15.753   4.128  23.870  0.00  0.00    +0.202 A 
BRANCH  18  19
ATOM      5  O   UNL     1     -12.079   6.033  21.273  0.00  0.00    -0.453 OA
ATOM      6  O   UNL     1     -13.465   7.813  20.425  0.00  0.00    -0.453 OA
ATOM     19  C   UNL     1     -15.192   5.100  22.975  0.00  0.00    +0.026 A 
ATOM     22  C   UNL     1     -13.849   5.006  22.603  0.00  0.00    +0.061 A 
ATOM     23  C   UNL     1     -16.001   6.139  22.481  0.00  0.00    +0.015 A 
ATOM     26  C   UNL     1     -13.355   5.963  21.741  0.00  0.00    +0.167 A 
ATOM     28  C   UNL     1     -14.146   6.979  21.257  0.00  0.00    +0.166 A 
ATOM     29  C   UNL     1     -15.475   7.095  21.609  0.00  0.00    +0.050 A 
ATOM     30  C   UNL     1     -12.157   7.209  20.439  0.00  0.00    +0.466 C 
ENDBRANCH  18  19
ENDBRANCH  12  15
BRANCH  11   8
ATOM      8  N   UNL     1     -15.558   0.652  28.559  0.00  0.00    -0.186 NA
ATOM     31  H   UNL     1     -15.527   0.272  27.606  0.00  0.00    +0.148 HD
BRANCH   8   1
ATOM      1  S   UNL     1     -14.796  -0.156  29.841  0.00  0.00    +0.059 S 
ATOM      3  O   UNL     1     -13.559  -0.751  29.374  0.00  0.00    -0.153 OA
ATOM      4  O   UNL     1     -15.782  -0.967  30.531  0.00  0.00    -0.153 OA
BRANCH   1  17
ATOM     17  C   UNL     1     -14.382   1.182  30.921  0.00  0.00    +0.105 A 
ATOM     20  C   UNL     1     -14.893   1.215  32.218  0.00  0.00    +0.028 A 
ATOM     21  C   UNL     1     -13.545   2.205  30.475  0.00  0.00    +0.028 A 
ATOM     24  C   UNL     1     -14.567   2.271  33.069  0.00  0.00    +0.002 A 
ATOM     25  C   UNL     1     -13.219   3.260  31.325  0.00  0.00    +0.002 A 
ATOM     27  C   UNL     1     -13.730   3.293  32.623  0.00  0.00    +0.000 A 
ENDBRANCH   1  17
ENDBRANCH   8   1
ENDBRANCH  11   8
TORSDOF 5
ENDMDL
MODEL 3
REMARK VINA RESULT:      -7.1     27.026     29.853
REMARK  Name = 28961045
REMARK  6 active torsions:
REMARK  status: ('A' for Active; 'I' for Inactive)
REMARK    1  A    between atoms: S_1  and  N_8
REMARK    2  A    between atoms: S_1  and  C_17
REMARK    3  A    between atoms: N_7  and  C_16
REMARK    4  A    between atoms: N_8  and  C_11
REMARK    5  A    between atoms: C_12  and  C_15
REMARK    6  A    between atoms: C_18  and  C_19
REMARK                            x       y       z     vdW  Elec       q    Type
REMARK                         _______ _______ _______ _____ _____    ______ ____
ROOT
ATOM      7  N   UNL     1      -5.877 -11.938  17.641  0.00  0.00    -0.293 NA
ATOM     11  C   UNL     1      -3.809 -11.178  16.873  0.00  0.00    +0.092 C 
ATOM     12  C   UNL     1      -6.059 -10.479  17.510  0.00  0.00    +0.147 C 
ATOM     13  C   UNL     1      -4.768  -9.992  16.825  0.00  0.00    +0.050 C 
ATOM     14  C   UNL     1      -4.443 -12.144  17.863  0.00  0.00    +0.105 C 
ATOM     16  C   UNL     1      -6.681 -12.524  18.707  0.00  0.00    +0.105 C 
ENDROOT
BRANCH  12  15
ATOM      2  O   UNL     1      -7.757 -10.987  15.828  0.00  0.00    -0.336 OA
ATOM      9  N   UNL     1      -8.029  -9.004  16.832  0.00  0.00    -0.190 NA
ATOM     10  N   UNL     1      -8.901 -10.415  15.257  0.00  0.00    -0.056 NA
ATOM     15  C   UNL     1      -7.306 -10.091  16.745  0.00  0.00    +0.245 A 
ATOM     18  C   UNL     1      -8.996  -9.248  15.900  0.00  0.00    +0.202 A 
BRANCH  18  19
ATOM      5  O   UNL     1     -12.703  -7.502  13.240  0.00  0.00    -0.453 OA
ATOM      6  O   UNL     1     -13.078  -5.680  14.773  0.00  0.00    -0.453 OA
ATOM     19  C   UNL     1     -10.045  -8.306  15.638  0.00  0.00    +0.026 A 
ATOM     22  C   UNL     1     -10.840  -8.452  14.499  0.00  0.00    +0.061 A 
ATOM     23  C   UNL     1     -10.264  -7.243  16.532  0.00  0.00    +0.015 A 
ATOM     26  C   UNL     1     -11.836  -7.522  14.290  0.00  0.00    +0.167 A 
ATOM     28  C   UNL     1     -12.051  -6.481  15.164  0.00  0.00    +0.166 A 
ATOM     29  C   UNL     1     -11.280  -6.314  16.296  0.00  0.00    +0.050 A 
ATOM     30  C   UNL     1     -13.487  -6.332  13.553  0.00  0.00    +0.466 C 
ENDBRANCH  18  19
ENDBRANCH  12  15
BRANCH  11   8
ATOM      8  N   UNL     1      -3.722 -11.811  15.532  0.00  0.00    -0.186 NA
ATOM     31  H   UNL     1      -4.403 -12.546  15.311  0.00  0.00    +0.148 HD
BRANCH   8   1
ATOM      1  S   UNL     1      -2.318 -11.618  14.599  0.00  0.00    +0.059 S 
ATOM      3  O   UNL     1      -1.814 -12.920  14.207  0.00  0.00    -0.153 OA
ATOM      4  O   UNL     1      -1.446 -10.667  15.262  0.00  0.00    -0.153 OA
BRANCH   1  17
ATOM     17  C   UNL     1      -2.948 -10.820  13.153  0.00  0.00    +0.105 A 
ATOM     20  C   UNL     1      -2.089 -10.500  12.102  0.00  0.00    +0.028 A 
ATOM     21  C   UNL     1      -4.305 -10.507  13.063  0.00  0.00    +0.028 A 
ATOM     24  C   UNL     1      -2.586  -9.870  10.961  0.00  0.00    +0.002 A 
ATOM     25  C   UNL     1      -4.802  -9.877  11.923  0.00  0.00    +0.002 A 
ATOM     27  C   UNL     1      -3.942  -9.559  10.872  0.00  0.00    +0.000 A 
ENDBRANCH   1  17
ENDBRANCH   8   1
ENDBRANCH  11   8
TORSDOF 5
ENDMDL
MODEL 4
REMARK VINA RESULT:      -7.0     27.545     30.724
REMARK  Name = 28961045
REMARK  6 active torsions:
REMARK  status: ('A' for Active; 'I' for Inactive)
REMARK    1  A    between atoms: S_1  and  N_8
REMARK    2  A    between atoms: S_1  and  C_17
REMARK    3  A    between atoms: N_7  and  C_16
REMARK    4  A    between atoms: N_8  and  C_11
REMARK    5  A    between atoms: C_12  and  C_15
REMARK    6  A    between atoms: C_18  and  C_19
REMARK                            x       y       z     vdW  Elec       q    Type
REMARK                         _______ _______ _______ _____ _____    ______ ____
ROOT
ATOM      7  N   UNL     1     -17.771   4.476  23.089  0.00  0.00    -0.293 NA
ATOM     11  C   UNL     1     -15.976   5.244  21.811  0.00  0.00    +0.092 C 
ATOM     12  C   UNL     1     -16.614   3.721  23.608  0.00  0.00    +0.147 C 
ATOM     13  C   UNL     1     -15.397   4.355  22.908  0.00  0.00    +0.050 C 
ATOM     14  C   UNL     1     -17.433   4.822  21.705  0.00  0.00    +0.105 C 
ATOM     16  C   UNL     1     -19.024   3.736  23.172  0.00  0.00    +0.105 C 
ENDROOT
BRANCH  12  15
ATOM      2  O   UNL     1     -16.959   4.873  25.736  0.00  0.00    -0.336 OA
ATOM      9  N   UNL     1     -16.014   2.852  25.933  0.00  0.00    -0.190 NA
ATOM     10  N   UNL     1     -16.748   4.673  27.106  0.00  0.00    -0.056 NA
ATOM     15  C   UNL     1     -16.499   3.754  25.117  0.00  0.00    +0.245 A 
ATOM     18  C   UNL     1     -16.188   3.461  27.141  0.00  0.00    +0.202 A 
BRANCH  18  19
ATOM      5  O   UNL     1     -15.696  -0.423  30.064  0.00  0.00    -0.453 OA
ATOM      6  O   UNL     1     -14.709   0.897  31.822  0.00  0.00    -0.453 OA
ATOM     19  C   UNL     1     -15.794   2.828  28.367  0.00  0.00    +0.026 A 
ATOM     22  C   UNL     1     -15.984   1.454  28.531  0.00  0.00    +0.061 A 
ATOM     23  C   UNL     1     -15.218   3.599  29.393  0.00  0.00    +0.015 A 
ATOM     26  C   UNL     1     -15.589   0.891  29.726  0.00  0.00    +0.167 A 
ATOM     28  C   UNL     1     -15.025   1.644  30.731  0.00  0.00    +0.166 A 
ATOM     29  C   UNL     1     -14.826   3.003  30.594  0.00  0.00    +0.050 A 
ATOM     30  C   UNL     1     -15.137  -0.411  31.394  0.00  0.00    +0.466 C 
ENDBRANCH  18  19
ENDBRANCH  12  15
BRANCH  11   8
ATOM      8  N   UNL     1     -15.889   6.670  22.219  0.00  0.00    -0.186 NA
ATOM     31  H   UNL     1     -16.164   6.904  23.181  0.00  0.00    +0.148 HD
BRANCH   8   1
ATOM      1  S   UNL     1     -15.750   7.878  21.037  0.00  0.00    +0.059 S 
ATOM      3  O   UNL     1     -15.817   9.183  21.665  0.00  0.00    -0.153 OA
ATOM      4  O   UNL     1     -16.633   7.553  19.933  0.00  0.00    -0.153 OA
BRANCH   1  17
ATOM     17  C   UNL     1     -14.095   7.635  20.461  0.00  0.00    +0.105 A 
ATOM     20  C   UNL     1     -13.771   7.909  19.132  0.00  0.00    +0.028 A 
ATOM     21  C   UNL     1     -13.114   7.169  21.335  0.00  0.00    +0.028 A 
ATOM     24  C   UNL     1     -12.467   7.717  18.678  0.00  0.00    +0.002 A 
ATOM     25  C   UNL     1     -11.809   6.977  20.883  0.00  0.00    +0.002 A 
ATOM     27  C   UNL     1     -11.485   7.251  19.553  0.00  0.00    +0.000 A 
ENDBRANCH   1  17
ENDBRANCH   8   1
ENDBRANCH  11   8
TORSDOF 5
ENDMDL
MODEL 5
REMARK VINA RESULT:      -7.0     26.585     30.346
REMARK  Name = 28961045
REMARK  6 active torsions:
REMARK  status: ('A' for Active; 'I' for Inactive)
REMARK    1  A    between atoms: S_1  and  N_8
REMARK    2  A    between atoms: S_1  and  C_17
REMARK    3  A    between atoms: N_7  and  C_16
REMARK    4  A    between atoms: N_8  and  C_11
REMARK    5  A    between atoms: C_12  and  C_15
REMARK    6  A    between atoms: C_18  and  C_19
REMARK                            x       y       z     vdW  Elec       q    Type
REMARK                         _______ _______ _______ _____ _____    ______ ____
ROOT
ATOM      7  N   UNL     1     -17.827   3.454  23.990  0.00  0.00    -0.293 NA
ATOM     11  C   UNL     1     -17.771   3.920  26.275  0.00  0.00    +0.092 C 
ATOM     12  C   UNL     1     -17.381   4.860  24.057  0.00  0.00    +0.147 C 
ATOM     13  C   UNL     1     -17.157   5.119  25.559  0.00  0.00    +0.050 C 
ATOM     14  C   UNL     1     -18.604   3.223  25.211  0.00  0.00    +0.105 C 
ATOM     16  C   UNL     1     -18.598   3.153  22.790  0.00  0.00    +0.105 C 
ENDROOT
BRANCH  12  15
ATOM      2  O   UNL     1     -15.506   4.064  22.707  0.00  0.00    -0.336 OA
ATOM      9  N   UNL     1     -15.593   6.291  22.928  0.00  0.00    -0.190 NA
ATOM     10  N   UNL     1     -14.413   4.569  21.991  0.00  0.00    -0.056 NA
ATOM     15  C   UNL     1     -16.148   5.143  23.227  0.00  0.00    +0.245 A 
ATOM     18  C   UNL     1     -14.533   5.888  22.169  0.00  0.00    +0.202 A 
BRANCH  18  19
ATOM      5  O   UNL     1     -13.152  10.408  20.932  0.00  0.00    -0.453 OA
ATOM      6  O   UNL     1     -11.067   9.628  20.008  0.00  0.00    -0.453 OA
ATOM     19  C   UNL     1     -13.612   6.830  21.601  0.00  0.00    +0.026 A 
ATOM     22  C   UNL     1     -13.931   8.190  21.589  0.00  0.00    +0.061 A 
ATOM     23  C   UNL     1     -12.396   6.375  21.062  0.00  0.00    +0.015 A 
ATOM     26  C   UNL     1     -13.014   9.058  21.033  0.00  0.00    +0.167 A 
ATOM     28  C   UNL     1     -11.824   8.613  20.505  0.00  0.00    +0.166 A 
ATOM     29  C   UNL     1     -11.485   7.276  20.504  0.00  0.00    +0.050 A 
ATOM     30  C   UNL     1     -11.914  10.763  20.281  0.00  0.00    +0.466 C 
ENDBRANCH  18  19
ENDBRANCH  12  15
BRANCH  11   8
ATOM      8  N   UNL     1     -16.696   3.013  26.753  0.00  0.00    -0.186 NA
ATOM     31  H   UNL     1     -15.818   2.998  26.221  0.00  0.00    +0.148 HD
BRANCH   8   1
ATOM      1  S   UNL     1     -17.065   1.778  27.855  0.00  0.00    +0.059 S 
ATOM      3  O   UNL     1     -16.992   0.493  27.187  0.00  0.00    -0.153 OA
ATOM      4  O   UNL     1     -18.257   2.152  28.592  0.00  0.00    -0.153 OA
BRANCH   1  17
ATOM     17  C   UNL     1     -15.708   1.881  28.985  0.00  0.00    +0.105 A 
ATOM     20  C   UNL     1     -15.233   3.127  29.394  0.00  0.00    +0.028 A 
ATOM     21  C   UNL     1     -15.111   0.715  29.466  0.00  0.00    +0.028 A 
ATOM     24  C   UNL     1     -14.163   3.208  30.285  0.00  0.00    +0.002 A 
ATOM     25  C   UNL     1     -14.041   0.796  30.357  0.00  0.00    +0.002 A 
ATOM     27  C   UNL     1     -13.567   2.043  30.767  0.00  0.00    +0.000 A 
ENDBRANCH   1  17
ENDBRANCH   8   1
ENDBRANCH  11   8
TORSDOF 5
ENDMDL
MODEL 6
REMARK VINA RESULT:      -7.0     26.931     29.402
REMARK  Name = 28961045
REMARK  6 active torsions:
REMARK  status: ('A' for Active; 'I' for Inactive)
REMARK    1  A    between atoms: S_1  and  N_8
REMARK    2  A    between atoms: S_1  and  C_17
REMARK    3  A    between atoms: N_7  and  C_16
REMARK    4  A    between atoms: N_8  and  C_11
REMARK    5  A    between atoms: C_12  and  C_15
REMARK    6  A    between atoms: C_18  and  C_19
REMARK                            x       y       z     vdW  Elec       q    Type
REMARK                         _______ _______ _______ _____ _____    ______ ____
ROOT
ATOM      7  N   UNL     1      -4.405 -12.696  15.880  0.00  0.00    -0.293 NA
ATOM     11  C   UNL     1      -2.717 -11.343  15.005  0.00  0.00    +0.092 C 
ATOM     12  C   UNL     1      -4.161 -11.698  16.940  0.00  0.00    +0.147 C 
ATOM     13  C   UNL     1      -3.190 -10.688  16.300  0.00  0.00    +0.050 C 
ATOM     14  C   UNL     1      -3.150 -12.795  15.129  0.00  0.00    +0.105 C 
ATOM     16  C   UNL     1      -4.832 -13.990  16.397  0.00  0.00    +0.105 C 
ENDROOT
BRANCH  12  15
ATOM      2  O   UNL     1      -5.537 -10.921  18.804  0.00  0.00    -0.336 OA
ATOM      9  N   UNL     1      -6.445 -10.566  16.788  0.00  0.00    -0.190 NA
ATOM     10  N   UNL     1      -6.769 -10.297  19.036  0.00  0.00    -0.056 NA
ATOM     15  C   UNL     1      -5.425 -11.042  17.455  0.00  0.00    +0.245 A 
ATOM     18  C   UNL     1      -7.244 -10.120  17.800  0.00  0.00    +0.202 A 
BRANCH  18  19
ATOM      5  O   UNL     1     -10.093  -6.806  15.615  0.00  0.00    -0.453 OA
ATOM      6  O   UNL     1     -12.072  -7.633  16.714  0.00  0.00    -0.453 OA
ATOM     19  C   UNL     1      -8.511  -9.498  17.541  0.00  0.00    +0.026 A 
ATOM     22  C   UNL     1      -8.587  -8.421  16.655  0.00  0.00    +0.061 A 
ATOM     23  C   UNL     1      -9.666  -9.980  18.183  0.00  0.00    +0.015 A 
ATOM     26  C   UNL     1      -9.827  -7.857  16.438  0.00  0.00    +0.167 A 
ATOM     28  C   UNL     1     -10.957  -8.328  17.065  0.00  0.00    +0.166 A 
ATOM     29  C   UNL     1     -10.910  -9.391  17.945  0.00  0.00    +0.050 A 
ATOM     30  C   UNL     1     -11.518  -6.670  15.795  0.00  0.00    +0.466 C 
ENDBRANCH  18  19
ENDBRANCH  12  15
BRANCH  11   8
ATOM      8  N   UNL     1      -3.395 -10.710  13.844  0.00  0.00    -0.186 NA
ATOM     31  H   UNL     1      -4.394 -10.495  13.939  0.00  0.00    +0.148 HD
BRANCH   8   1
ATOM      1  S   UNL     1      -2.653 -10.737  12.318  0.00  0.00    +0.059 S 
ATOM      3  O   UNL     1      -2.588 -12.102  11.834  0.00  0.00    -0.153 OA
ATOM      4  O   UNL     1      -1.453  -9.922  12.370  0.00  0.00    -0.153 OA
BRANCH   1  17
ATOM     17  C   UNL     1      -3.827  -9.862  11.327  0.00  0.00    +0.105 A 
ATOM     20  C   UNL     1      -3.498  -9.487  10.024  0.00  0.00    +0.028 A 
ATOM     21  C   UNL     1      -5.082  -9.547  11.847  0.00  0.00    +0.028 A 
ATOM     24  C   UNL     1      -4.424  -8.797   9.242  0.00  0.00    +0.002 A 
ATOM     25  C   UNL     1      -6.009  -8.857  11.066  0.00  0.00    +0.002 A 
ATOM     27  C   UNL     1      -5.680  -8.482   9.762  0.00  0.00    +0.000 A 
ENDBRANCH   1  17
ENDBRANCH   8   1
ENDBRANCH  11   8
TORSDOF 5
ENDMDL
MODEL 7
REMARK VINA RESULT:      -6.9      2.057      2.965
REMARK  Name = 28961045
REMARK  6 active torsions:
REMARK  status: ('A' for Active; 'I' for Inactive)
REMARK    1  A    between atoms: S_1  and  N_8
REMARK    2  A    between atoms: S_1  and  C_17
REMARK    3  A    between atoms: N_7  and  C_16
REMARK    4  A    between atoms: N_8  and  C_11
REMARK    5  A    between atoms: C_12  and  C_15
REMARK    6  A    between atoms: C_18  and  C_19
REMARK                            x       y       z     vdW  Elec       q    Type
REMARK                         _______ _______ _______ _____ _____    ______ ____
ROOT
ATOM      7  N   UNL     1      12.817   7.856  20.509  0.00  0.00    -0.293 NA
ATOM     11  C   UNL     1      12.732  10.117  19.941  0.00  0.00    +0.092 C 
ATOM     12  C   UNL     1      13.634   7.947  19.283  0.00  0.00    +0.147 C 
ATOM     13  C   UNL     1      13.743   9.459  19.007  0.00  0.00    +0.050 C 
ATOM     14  C   UNL     1      11.867   8.970  20.440  0.00  0.00    +0.105 C 
ATOM     16  C   UNL     1      12.140   6.573  20.654  0.00  0.00    +0.105 C 
ENDROOT
BRANCH  12  15
ATOM      2  O   UNL     1      15.255   6.287  18.517  0.00  0.00    -0.336 OA
ATOM      9  N   UNL     1      15.956   7.514  20.255  0.00  0.00    -0.190 NA
ATOM     10  N   UNL     1      16.542   5.828  18.825  0.00  0.00    -0.056 NA
ATOM     15  C   UNL     1      14.987   7.279  19.406  0.00  0.00    +0.245 A 
ATOM     18  C   UNL     1      16.888   6.600  19.859  0.00  0.00    +0.202 A 
BRANCH  18  19
ATOM      5  O   UNL     1      21.295   4.585  20.478  0.00  0.00    -0.453 OA
ATOM      6  O   UNL     1      21.822   6.055  22.314  0.00  0.00    -0.453 OA
ATOM     19  C   UNL     1      18.157   6.486  20.518  0.00  0.00    +0.026 A 
ATOM     22  C   UNL     1      19.076   5.525  20.089  0.00  0.00    +0.061 A 
ATOM     23  C   UNL     1      18.465   7.343  21.589  0.00  0.00    +0.015 A 
ATOM     26  C   UNL     1      20.284   5.453  20.753  0.00  0.00    +0.167 A 
ATOM     28  C   UNL     1      20.585   6.292  21.801  0.00  0.00    +0.166 A 
ATOM     29  C   UNL     1      19.695   7.249  22.244  0.00  0.00    +0.050 A 
ATOM     30  C   UNL     1      22.267   4.972  21.472  0.00  0.00    +0.466 C 
ENDBRANCH  18  19
ENDBRANCH  12  15
BRANCH  11   8
ATOM      8  N   UNL     1      13.439  10.753  21.083  0.00  0.00    -0.186 NA
ATOM     31  H   UNL     1      13.811  10.134  21.813  0.00  0.00    +0.148 HD
BRANCH   8   1
ATOM      1  S   UNL     1      13.264  12.417  21.361  0.00  0.00    +0.059 S 
ATOM      3  O   UNL     1      12.425  12.996  20.329  0.00  0.00    -0.153 OA
ATOM      4  O   UNL     1      14.570  12.982  21.643  0.00  0.00    -0.153 OA
BRANCH   1  17
ATOM     17  C   UNL     1      12.354  12.439  22.877  0.00  0.00    +0.105 A 
ATOM     20  C   UNL     1      12.939  11.961  24.049  0.00  0.00    +0.028 A 
ATOM     21  C   UNL     1      11.050  12.935  22.901  0.00  0.00    +0.028 A 
ATOM     24  C   UNL     1      12.221  11.978  25.245  0.00  0.00    +0.002 A 
ATOM     25  C   UNL     1      10.332  12.952  24.096  0.00  0.00    +0.002 A 
ATOM     27  C   UNL     1      10.918  12.474  25.269  0.00  0.00    +0.000 A 
ENDBRANCH   1  17
ENDBRANCH   8   1
ENDBRANCH  11   8
TORSDOF 5
ENDMDL
MODEL 8
REMARK VINA RESULT:      -6.9      3.478      4.988
REMARK  Name = 28961045
REMARK  6 active torsions:
REMARK  status: ('A' for Active; 'I' for Inactive)
REMARK    1  A    between atoms: S_1  and  N_8
REMARK    2  A    between atoms: S_1  and  C_17
REMARK    3  A    between atoms: N_7  and  C_16
REMARK    4  A    between atoms: N_8  and  C_11
REMARK    5  A    between atoms: C_12  and  C_15
REMARK    6  A    between atoms: C_18  and  C_19
REMARK                            x       y       z     vdW  Elec       q    Type
REMARK                         _______ _______ _______ _____ _____    ______ ____
ROOT
ATOM      7  N   UNL     1      12.566   8.557  20.144  0.00  0.00    -0.293 NA
ATOM     11  C   UNL     1      12.201   8.268  17.858  0.00  0.00    +0.092 C 
ATOM     12  C   UNL     1      13.427   7.413  19.787  0.00  0.00    +0.147 C 
ATOM     13  C   UNL     1      13.343   7.334  18.251  0.00  0.00    +0.050 C 
ATOM     14  C   UNL     1      11.477   8.559  19.163  0.00  0.00    +0.105 C 
ATOM     16  C   UNL     1      12.064   8.494  21.512  0.00  0.00    +0.105 C 
ENDROOT
BRANCH  12  15
ATOM      2  O   UNL     1      15.171   8.723  20.890  0.00  0.00    -0.336 OA
ATOM      9  N   UNL     1      15.839   6.694  20.220  0.00  0.00    -0.190 NA
ATOM     10  N   UNL     1      16.518   8.615  21.258  0.00  0.00    -0.056 NA
ATOM     15  C   UNL     1      14.850   7.549  20.285  0.00  0.00    +0.245 A 
ATOM     18  C   UNL     1      16.840   7.392  20.829  0.00  0.00    +0.202 A 
BRANCH  18  19
ATOM      5  O   UNL     1      21.158   7.048  23.089  0.00  0.00    -0.453 OA
ATOM      6  O   UNL     1      21.925   5.331  21.582  0.00  0.00    -0.453 OA
ATOM     19  C   UNL     1      18.152   6.836  20.996  0.00  0.00    +0.026 A 
ATOM     22  C   UNL     1      18.973   7.294  22.030  0.00  0.00    +0.061 A 
ATOM     23  C   UNL     1      18.600   5.835  20.116  0.00  0.00    +0.015 A 
ATOM     26  C   UNL     1      20.226   6.730  22.150  0.00  0.00    +0.167 A 
ATOM     28  C   UNL     1      20.665   5.749  21.290  0.00  0.00    +0.166 A 
ATOM     29  C   UNL     1      19.874   5.279  20.261  0.00  0.00    +0.050 A 
ATOM     30  C   UNL     1      22.232   6.157  22.723  0.00  0.00    +0.466 C 
ENDBRANCH  18  19
ENDBRANCH  12  15
BRANCH  11   8
ATOM      8  N   UNL     1      12.752   9.526  17.292  0.00  0.00    -0.186 NA
ATOM     31  H   UNL     1      12.595  10.392  17.821  0.00  0.00    +0.148 HD
BRANCH   8   1
ATOM      1  S   UNL     1      13.236   9.578  15.667  0.00  0.00    +0.059 S 
ATOM      3  O   UNL     1      12.195  10.198  14.870  0.00  0.00    -0.153 OA
ATOM      4  O   UNL     1      13.763   8.278  15.297  0.00  0.00    -0.153 OA
BRANCH   1  17
ATOM     17  C   UNL     1      14.608  10.691  15.731  0.00  0.00    +0.105 A 
ATOM     20  C   UNL     1      14.784  11.520  16.839  0.00  0.00    +0.028 A 
ATOM     21  C   UNL     1      15.516  10.742  14.672  0.00  0.00    +0.028 A 
ATOM     24  C   UNL     1      15.866  12.398  16.889  0.00  0.00    +0.002 A 
ATOM     25  C   UNL     1      16.598  11.619  14.722  0.00  0.00    +0.002 A 
ATOM     27  C   UNL     1      16.774  12.448  15.831  0.00  0.00    +0.000 A 
ENDBRANCH   1  17
ENDBRANCH   8   1
ENDBRANCH  11   8
TORSDOF 5
ENDMDL
MODEL 9
REMARK VINA RESULT:      -6.9     27.581     29.268
REMARK  Name = 28961045
REMARK  6 active torsions:
REMARK  status: ('A' for Active; 'I' for Inactive)
REMARK    1  A    between atoms: S_1  and  N_8
REMARK    2  A    between atoms: S_1  and  C_17
REMARK    3  A    between atoms: N_7  and  C_16
REMARK    4  A    between atoms: N_8  and  C_11
REMARK    5  A    between atoms: C_12  and  C_15
REMARK    6  A    between atoms: C_18  and  C_19
REMARK                            x       y       z     vdW  Elec       q    Type
REMARK                         _______ _______ _______ _____ _____    ______ ____
ROOT
ATOM      7  N   UNL     1      -4.344 -11.240   9.955  0.00  0.00    -0.293 NA
ATOM     11  C   UNL     1      -4.456  -9.170   8.885  0.00  0.00    +0.092 C 
ATOM     12  C   UNL     1      -3.340 -10.419  10.659  0.00  0.00    +0.147 C 
ATOM     13  C   UNL     1      -3.539  -9.000  10.092  0.00  0.00    +0.050 C 
ATOM     14  C   UNL     1      -4.458 -10.665   8.611  0.00  0.00    +0.105 C 
ATOM     16  C   UNL     1      -4.000 -12.656   9.912  0.00  0.00    +0.105 C 
ENDROOT
BRANCH  12  15
ATOM      2  O   UNL     1      -2.320 -10.656  12.867  0.00  0.00    -0.336 OA
ATOM      9  N   UNL     1      -4.539 -10.351  12.912  0.00  0.00    -0.190 NA
ATOM     10  N   UNL     1      -2.688 -10.665  14.219  0.00  0.00    -0.056 NA
ATOM     15  C   UNL     1      -3.469 -10.466  12.166  0.00  0.00    +0.245 A 
ATOM     18  C   UNL     1      -4.010 -10.480  14.163  0.00  0.00    +0.202 A 
BRANCH  18  19
ATOM      5  O   UNL     1      -4.819 -11.127  18.938  0.00  0.00    -0.453 OA
ATOM      6  O   UNL     1      -7.071 -10.285  18.774  0.00  0.00    -0.453 OA
ATOM     19  C   UNL     1      -4.830 -10.416  15.339  0.00  0.00    +0.026 A 
ATOM     22  C   UNL     1      -4.317 -10.841  16.566  0.00  0.00    +0.061 A 
ATOM     23  C   UNL     1      -6.144  -9.925  15.243  0.00  0.00    +0.015 A 
ATOM     26  C   UNL     1      -5.143 -10.760  17.668  0.00  0.00    +0.167 A 
ATOM     28  C   UNL     1      -6.429 -10.280  17.575  0.00  0.00    +0.166 A 
ATOM     29  C   UNL     1      -6.960  -9.854  16.375  0.00  0.00    +0.050 A 
ATOM     30  C   UNL     1      -6.046 -10.823  19.633  0.00  0.00    +0.466 C 
ENDBRANCH  18  19
ENDBRANCH  12  15
BRANCH  11   8
ATOM      8  N   UNL     1      -5.829  -8.715   9.227  0.00  0.00    -0.186 NA
ATOM     31  H   UNL     1      -5.982  -8.342  10.171  0.00  0.00    +0.148 HD
BRANCH   8   1
ATOM      1  S   UNL     1      -7.138  -9.183   8.255  0.00  0.00    +0.059 S 
ATOM      3  O   UNL     1      -7.753 -10.373   8.809  0.00  0.00    -0.153 OA
ATOM      4  O   UNL     1      -6.719  -9.156   6.866  0.00  0.00    -0.153 OA
BRANCH   1  17
ATOM     17  C   UNL     1      -8.259  -7.835   8.481  0.00  0.00    +0.105 A 
ATOM     20  C   UNL     1      -9.519  -8.060   9.037  0.00  0.00    +0.028 A 
ATOM     21  C   UNL     1      -7.886  -6.545   8.101  0.00  0.00    +0.028 A 
ATOM     24  C   UNL     1     -10.403  -6.997   9.215  0.00  0.00    +0.002 A 
ATOM     25  C   UNL     1      -8.770  -5.482   8.279  0.00  0.00    +0.002 A 
ATOM     27  C   UNL     1     -10.029  -5.707   8.836  0.00  0.00    +0.000 A 
ENDBRANCH   1  17
ENDBRANCH   8   1
ENDBRANCH  11   8
TORSDOF 5
ENDMDL
MODEL 10
REMARK VINA RESULT:      -6.8     27.972     31.480
REMARK  Name = 28961045
REMARK  6 active torsions:
REMARK  status: ('A' for Active; 'I' for Inactive)
REMARK    1  A    between atoms: S_1  and  N_8
REMARK    2  A    between atoms: S_1  and  C_17
REMARK    3  A    between atoms: N_7  and  C_16
REMARK    4  A    between atoms: N_8  and  C_11
REMARK    5  A    between atoms: C_12  and  C_15
REMARK    6  A    between atoms: C_18  and  C_19
REMARK                            x       y       z     vdW  Elec       q    Type
REMARK                         _______ _______ _______ _____ _____    ______ ____
ROOT
ATOM      7  N   UNL     1     -10.800 -11.053  17.251  0.00  0.00    -0.293 NA
ATOM     11  C   UNL     1      -9.680 -10.897  19.292  0.00  0.00    +0.092 C 
ATOM     12  C   UNL     1     -11.547 -10.016  17.990  0.00  0.00    +0.147 C 
ATOM     13  C   UNL     1     -10.706  -9.767  19.257  0.00  0.00    +0.050 C 
ATOM     14  C   UNL     1     -10.185 -11.906  18.273  0.00  0.00    +0.105 C 
ATOM     16  C   UNL     1     -11.636 -11.820  16.335  0.00  0.00    +0.105 C 
ENDROOT
BRANCH  12  15
ATOM      2  O   UNL     1     -10.821  -7.792  17.281  0.00  0.00    -0.336 OA
ATOM      9  N   UNL     1     -12.780  -8.436  16.407  0.00  0.00    -0.190 NA
ATOM     10  N   UNL     1     -11.251  -6.736  16.468  0.00  0.00    -0.056 NA
ATOM     15  C   UNL     1     -11.779  -8.752  17.189  0.00  0.00    +0.245 A 
ATOM     18  C   UNL     1     -12.412  -7.191  15.988  0.00  0.00    +0.202 A 
BRANCH  18  19
ATOM      5  O   UNL     1     -13.143  -3.541  12.824  0.00  0.00    -0.453 OA
ATOM      6  O   UNL     1     -15.446  -4.164  12.481  0.00  0.00    -0.453 OA
ATOM     19  C   UNL     1     -13.226  -6.428  15.086  0.00  0.00    +0.026 A 
ATOM     22  C   UNL     1     -12.678  -5.333  14.415  0.00  0.00    +0.061 A 
ATOM     23  C   UNL     1     -14.570  -6.791  14.887  0.00  0.00    +0.015 A 
ATOM     26  C   UNL     1     -13.500  -4.630  13.558  0.00  0.00    +0.167 A 
ATOM     28  C   UNL     1     -14.815  -4.985  13.362  0.00  0.00    +0.166 A 
ATOM     29  C   UNL     1     -15.381  -6.062  14.013  0.00  0.00    +0.050 A 
ATOM     30  C   UNL     1     -14.382  -3.251  12.144  0.00  0.00    +0.466 C 
ENDBRANCH  18  19
ENDBRANCH  12  15
BRANCH  11   8
ATOM      8  N   UNL     1      -8.349 -10.381  18.879  0.00  0.00    -0.186 NA
ATOM     31  H   UNL     1      -8.324  -9.687  18.123  0.00  0.00    +0.148 HD
BRANCH   8   1
ATOM      1  S   UNL     1      -6.944 -11.210  19.345  0.00  0.00    +0.059 S 
ATOM      3  O   UNL     1      -7.215 -12.633  19.400  0.00  0.00    -0.153 OA
ATOM      4  O   UNL     1      -6.362 -10.532  20.489  0.00  0.00    -0.153 OA
BRANCH   1  17
ATOM     17  C   UNL     1      -5.873 -10.912  17.970  0.00  0.00    +0.105 A 
ATOM     20  C   UNL     1      -4.550 -11.353  18.008  0.00  0.00    +0.028 A 
ATOM     21  C   UNL     1      -6.350 -10.235  16.847  0.00  0.00    +0.028 A 
ATOM     24  C   UNL     1      -3.705 -11.118  16.923  0.00  0.00    +0.002 A 
ATOM     25  C   UNL     1      -5.506 -10.000  15.763  0.00  0.00    +0.002 A 
ATOM     27  C   UNL     1      -4.183 -10.442  15.801  0.00  0.00    +0.000 A 
ENDBRANCH   1  17
ENDBRANCH   8   1
ENDBRANCH  11   8
TORSDOF 5
ENDMDL
