MODEL 1
REMARK VINA RESULT:      -5.8      0.000      0.000
REMARK  Name = 75537104
REMARK  3 active torsions:
REMARK  status: ('A' for Active; 'I' for Inactive)
REMARK    1  A    between atoms: N_3  and  C_12
REMARK    2  A    between atoms: N_4  and  C_13
REMARK    3  A    between atoms: C_12  and  C_14
REMARK                            x       y       z     vdW  Elec       q    Type
REMARK                         _______ _______ _______ _____ _____    ______ ____
ROOT
ATOM      1  O   UNL     1      10.968  10.983  25.330  0.00  0.00    -0.252 OA
ATOM      2  N   UNL     1      11.120  10.547  23.027  0.00  0.00    -0.278 N 
ATOM      3  N   UNL     1      11.785   9.202  20.649  0.00  0.00    -0.293 NA
ATOM      4  N   UNL     1      11.551  12.632  23.746  0.00  0.00    -0.287 N 
ATOM      6  C   UNL     1      11.315  11.316  21.815  0.00  0.00    +0.109 C 
ATOM      7  C   UNL     1      12.261  10.583  20.866  0.00  0.00    +0.109 C 
ATOM      8  C   UNL     1      11.829  12.664  22.320  0.00  0.00    +0.132 C 
ATOM      9  C   UNL     1      10.795   9.140  22.928  0.00  0.00    +0.125 C 
ATOM     10  C   UNL     1      11.728   8.458  21.923  0.00  0.00    +0.104 C 
ATOM     11  C   UNL     1      11.180  11.342  24.179  0.00  0.00    +0.305 C 
ATOM     13  C   UNL     1      11.787  13.774  24.599  0.00  0.00    +0.133 C 
ENDROOT
BRANCH   3  12
ATOM     12  C   UNL     1      12.650   8.510  19.693  0.00  0.00    +0.140 C 
BRANCH  12  14
ATOM      5  N   UNL     1      10.985   8.380  17.925  0.00  0.00    -0.259 NA
ATOM     14  C   UNL     1      12.233   8.766  18.270  0.00  0.00    +0.055 A 
ATOM     15  C   UNL     1      13.126   9.372  17.401  0.00  0.00    +0.024 A 
ATOM     16  C   UNL     1      12.710   9.596  16.093  0.00  0.00    +0.003 A 
ATOM     17  C   UNL     1      10.616   8.613  16.646  0.00  0.00    +0.111 A 
ATOM     18  C   UNL     1      11.432   9.213  15.700  0.00  0.00    +0.020 A 
ENDBRANCH  12  14
ENDBRANCH   3  12
TORSDOF 2
ENDMDL
MODEL 2
REMARK VINA RESULT:      -5.8      4.824      6.649
REMARK  Name = 75537104
REMARK  3 active torsions:
REMARK  status: ('A' for Active; 'I' for Inactive)
REMARK    1  A    between atoms: N_3  and  C_12
REMARK    2  A    between atoms: N_4  and  C_13
REMARK    3  A    between atoms: C_12  and  C_14
REMARK                            x       y       z     vdW  Elec       q    Type
REMARK                         _______ _______ _______ _____ _____    ______ ____
ROOT
ATOM      1  O   UNL     1      10.800   8.364  19.095  0.00  0.00    -0.252 OA
ATOM      2  N   UNL     1      13.075   8.039  19.577  0.00  0.00    -0.278 N 
ATOM      3  N   UNL     1      15.710   7.095  19.294  0.00  0.00    -0.293 NA
ATOM      4  N   UNL     1      11.600   7.895  21.264  0.00  0.00    -0.287 N 
ATOM      6  C   UNL     1      13.893   7.872  20.760  0.00  0.00    +0.109 C 
ATOM      7  C   UNL     1      14.953   6.796  20.527  0.00  0.00    +0.109 C 
ATOM      8  C   UNL     1      12.880   7.547  21.857  0.00  0.00    +0.132 C 
ATOM      9  C   UNL     1      13.718   8.191  18.288  0.00  0.00    +0.125 C 
ATOM     10  C   UNL     1      14.812   7.132  18.122  0.00  0.00    +0.104 C 
ATOM     11  C   UNL     1      11.711   8.134  19.879  0.00  0.00    +0.305 C 
ATOM     13  C   UNL     1      10.366   7.840  22.016  0.00  0.00    +0.133 C 
ENDROOT
BRANCH   3  12
ATOM     12  C   UNL     1      16.768   6.105  19.094  0.00  0.00    +0.140 C 
BRANCH  12  14
ATOM      5  N   UNL     1      17.956   7.536  20.661  0.00  0.00    -0.259 NA
ATOM     14  C   UNL     1      17.964   6.378  19.965  0.00  0.00    +0.055 A 
ATOM     15  C   UNL     1      18.993   5.451  20.014  0.00  0.00    +0.024 A 
ATOM     16  C   UNL     1      20.084   5.733  20.829  0.00  0.00    +0.003 A 
ATOM     17  C   UNL     1      19.033   7.776  21.442  0.00  0.00    +0.111 A 
ATOM     18  C   UNL     1      20.112   6.915  21.561  0.00  0.00    +0.020 A 
ENDBRANCH  12  14
ENDBRANCH   3  12
TORSDOF 2
ENDMDL
MODEL 3
REMARK VINA RESULT:      -5.4      5.558      7.013
REMARK  Name = 75537104
REMARK  3 active torsions:
REMARK  status: ('A' for Active; 'I' for Inactive)
REMARK    1  A    between atoms: N_3  and  C_12
REMARK    2  A    between atoms: N_4  and  C_13
REMARK    3  A    between atoms: C_12  and  C_14
REMARK                            x       y       z     vdW  Elec       q    Type
REMARK                         _______ _______ _______ _____ _____    ______ ____
ROOT
ATOM      1  O   UNL     1      20.598   6.215  20.451  0.00  0.00    -0.252 OA
ATOM      2  N   UNL     1      18.301   6.700  20.539  0.00  0.00    -0.278 N 
ATOM      3  N   UNL     1      15.647   7.004  19.660  0.00  0.00    -0.293 NA
ATOM      4  N   UNL     1      19.727   8.121  21.536  0.00  0.00    -0.287 N 
ATOM      6  C   UNL     1      17.448   7.666  21.200  0.00  0.00    +0.109 C 
ATOM      7  C   UNL     1      16.361   8.157  20.244  0.00  0.00    +0.109 C 
ATOM      8  C   UNL     1      18.422   8.744  21.673  0.00  0.00    +0.132 C 
ATOM      9  C   UNL     1      17.698   5.607  19.806  0.00  0.00    +0.125 C 
ATOM     10  C   UNL     1      16.576   6.136  18.908  0.00  0.00    +0.104 C 
ATOM     11  C   UNL     1      19.660   6.919  20.801  0.00  0.00    +0.305 C 
ATOM     13  C   UNL     1      20.939   8.771  21.983  0.00  0.00    +0.133 C 
ENDROOT
BRANCH   3  12
ATOM     12  C   UNL     1      14.564   7.464  18.790  0.00  0.00    +0.140 C 
BRANCH  12  14
ATOM      5  N   UNL     1      13.070   6.750  20.572  0.00  0.00    -0.259 NA
ATOM     14  C   UNL     1      13.264   7.596  19.536  0.00  0.00    +0.055 A 
ATOM     15  C   UNL     1      12.347   8.555  19.136  0.00  0.00    +0.024 A 
ATOM     16  C   UNL     1      11.155   8.652  19.846  0.00  0.00    +0.003 A 
ATOM     17  C   UNL     1      11.900   6.874  21.238  0.00  0.00    +0.111 A 
ATOM     18  C   UNL     1      10.920   7.799  20.919  0.00  0.00    +0.020 A 
ENDBRANCH  12  14
ENDBRANCH   3  12
TORSDOF 2
ENDMDL
MODEL 4
REMARK VINA RESULT:      -5.1     28.369     29.825
REMARK  Name = 75537104
REMARK  3 active torsions:
REMARK  status: ('A' for Active; 'I' for Inactive)
REMARK    1  A    between atoms: N_3  and  C_12
REMARK    2  A    between atoms: N_4  and  C_13
REMARK    3  A    between atoms: C_12  and  C_14
REMARK                            x       y       z     vdW  Elec       q    Type
REMARK                         _______ _______ _______ _____ _____    ______ ____
ROOT
ATOM      1  O   UNL     1     -14.968  -0.214  29.416  0.00  0.00    -0.252 OA
ATOM      2  N   UNL     1     -14.734   1.922  30.364  0.00  0.00    -0.278 N 
ATOM      3  N   UNL     1     -14.600   3.916  32.343  0.00  0.00    -0.293 NA
ATOM      4  N   UNL     1     -16.019   1.705  28.534  0.00  0.00    -0.287 N 
ATOM      6  C   UNL     1     -15.113   3.278  30.023  0.00  0.00    +0.109 C 
ATOM      7  C   UNL     1     -15.603   4.021  31.265  0.00  0.00    +0.109 C 
ATOM      8  C   UNL     1     -16.162   3.096  28.927  0.00  0.00    +0.132 C 
ATOM      9  C   UNL     1     -13.869   1.693  31.502  0.00  0.00    +0.125 C 
ATOM     10  C   UNL     1     -14.363   2.503  32.704  0.00  0.00    +0.104 C 
ATOM     11  C   UNL     1     -15.205   0.986  29.434  0.00  0.00    +0.305 C 
ATOM     13  C   UNL     1     -16.763   1.139  27.431  0.00  0.00    +0.133 C 
ENDROOT
BRANCH   3  12
ATOM     12  C   UNL     1     -15.032   4.675  33.516  0.00  0.00    +0.140 C 
BRANCH  12  14
ATOM      5  N   UNL     1     -13.860   6.216  34.988  0.00  0.00    -0.259 NA
ATOM     14  C   UNL     1     -14.205   5.916  33.717  0.00  0.00    +0.055 A 
ATOM     15  C   UNL     1     -13.844   6.676  32.615  0.00  0.00    +0.024 A 
ATOM     16  C   UNL     1     -13.079   7.816  32.834  0.00  0.00    +0.003 A 
ATOM     17  C   UNL     1     -13.116   7.332  35.162  0.00  0.00    +0.111 A 
ATOM     18  C   UNL     1     -12.703   8.158  34.129  0.00  0.00    +0.020 A 
ENDBRANCH  12  14
ENDBRANCH   3  12
TORSDOF 2
ENDMDL
MODEL 5
REMARK VINA RESULT:      -5.1     28.021     29.561
REMARK  Name = 75537104
REMARK  3 active torsions:
REMARK  status: ('A' for Active; 'I' for Inactive)
REMARK    1  A    between atoms: N_3  and  C_12
REMARK    2  A    between atoms: N_4  and  C_13
REMARK    3  A    between atoms: C_12  and  C_14
REMARK                            x       y       z     vdW  Elec       q    Type
REMARK                         _______ _______ _______ _____ _____    ______ ____
ROOT
ATOM      1  O   UNL     1     -15.145  -0.526  32.134  0.00  0.00    -0.252 OA
ATOM      2  N   UNL     1     -14.664   1.772  32.098  0.00  0.00    -0.278 N 
ATOM      3  N   UNL     1     -15.061   4.542  32.382  0.00  0.00    -0.293 NA
ATOM      4  N   UNL     1     -14.005   0.520  30.353  0.00  0.00    -0.287 N 
ATOM      6  C   UNL     1     -13.903   2.681  31.266  0.00  0.00    +0.109 C 
ATOM      7  C   UNL     1     -14.666   3.990  31.071  0.00  0.00    +0.109 C 
ATOM      8  C   UNL     1     -13.660   1.883  29.986  0.00  0.00    +0.132 C 
ATOM      9  C   UNL     1     -15.228   2.254  33.341  0.00  0.00    +0.125 C 
ATOM     10  C   UNL     1     -15.930   3.596  33.111  0.00  0.00    +0.104 C 
ATOM     11  C   UNL     1     -14.662   0.463  31.600  0.00  0.00    +0.305 C 
ATOM     13  C   UNL     1     -13.812  -0.591  29.449  0.00  0.00    +0.133 C 
ENDROOT
BRANCH   3  12
ATOM     12  C   UNL     1     -15.739   5.827  32.210  0.00  0.00    +0.140 C 
BRANCH  12  14
ATOM      5  N   UNL     1     -15.159   8.083  31.510  0.00  0.00    -0.259 NA
ATOM     14  C   UNL     1     -14.767   6.975  32.176  0.00  0.00    +0.055 A 
ATOM     15  C   UNL     1     -13.543   6.845  32.814  0.00  0.00    +0.024 A 
ATOM     16  C   UNL     1     -12.667   7.924  32.764  0.00  0.00    +0.003 A 
ATOM     17  C   UNL     1     -14.281   9.111  31.483  0.00  0.00    +0.111 A 
ATOM     18  C   UNL     1     -13.035   9.083  32.088  0.00  0.00    +0.020 A 
ENDBRANCH  12  14
ENDBRANCH   3  12
TORSDOF 2
ENDMDL
MODEL 6
REMARK VINA RESULT:      -5.1      1.831      2.183
REMARK  Name = 75537104
REMARK  3 active torsions:
REMARK  status: ('A' for Active; 'I' for Inactive)
REMARK    1  A    between atoms: N_3  and  C_12
REMARK    2  A    between atoms: N_4  and  C_13
REMARK    3  A    between atoms: C_12  and  C_14
REMARK                            x       y       z     vdW  Elec       q    Type
REMARK                         _______ _______ _______ _____ _____    ______ ____
ROOT
ATOM      1  O   UNL     1      11.452  11.822  25.620  0.00  0.00    -0.252 OA
ATOM      2  N   UNL     1      11.961  10.927  23.509  0.00  0.00    -0.278 N 
ATOM      3  N   UNL     1      11.947   9.126  21.349  0.00  0.00    -0.293 NA
ATOM      4  N   UNL     1      13.634  11.806  24.722  0.00  0.00    -0.287 N 
ATOM      6  C   UNL     1      13.113  10.872  22.633  0.00  0.00    +0.109 C 
ATOM      7  C   UNL     1      13.226   9.489  21.991  0.00  0.00    +0.109 C 
ATOM      8  C   UNL     1      14.279  11.254  23.543  0.00  0.00    +0.132 C 
ATOM      9  C   UNL     1      10.681  10.453  23.026  0.00  0.00    +0.125 C 
ATOM     10  C   UNL     1      10.852   9.096  22.339  0.00  0.00    +0.104 C 
ATOM     11  C   UNL     1      12.246  11.557  24.727  0.00  0.00    +0.305 C 
ATOM     13  C   UNL     1      14.390  12.398  25.804  0.00  0.00    +0.133 C 
ENDROOT
BRANCH   3  12
ATOM     12  C   UNL     1      12.064   7.831  20.679  0.00  0.00    +0.140 C 
BRANCH  12  14
ATOM      5  N   UNL     1      13.883   7.304  19.152  0.00  0.00    -0.259 NA
ATOM     14  C   UNL     1      12.711   7.956  19.326  0.00  0.00    +0.055 A 
ATOM     15  C   UNL     1      12.092   8.714  18.345  0.00  0.00    +0.024 A 
ATOM     16  C   UNL     1      12.715   8.808  17.106  0.00  0.00    +0.003 A 
ATOM     17  C   UNL     1      14.459   7.420  17.934  0.00  0.00    +0.111 A 
ATOM     18  C   UNL     1      13.922   8.152  16.887  0.00  0.00    +0.020 A 
ENDBRANCH  12  14
ENDBRANCH   3  12
TORSDOF 2
ENDMDL
MODEL 7
REMARK VINA RESULT:      -5.0     26.256     27.601
REMARK  Name = 75537104
REMARK  3 active torsions:
REMARK  status: ('A' for Active; 'I' for Inactive)
REMARK    1  A    between atoms: N_3  and  C_12
REMARK    2  A    between atoms: N_4  and  C_13
REMARK    3  A    between atoms: C_12  and  C_14
REMARK                            x       y       z     vdW  Elec       q    Type
REMARK                         _______ _______ _______ _____ _____    ______ ____
ROOT
ATOM      1  O   UNL     1      -8.040 -11.187  20.088  0.00  0.00    -0.252 OA
ATOM      2  N   UNL     1      -6.583 -11.399  18.258  0.00  0.00    -0.278 N 
ATOM      3  N   UNL     1      -4.170 -11.419  16.813  0.00  0.00    -0.293 NA
ATOM      4  N   UNL     1      -8.503 -10.271  17.963  0.00  0.00    -0.287 N 
ATOM      6  C   UNL     1      -6.608 -11.090  16.844  0.00  0.00    +0.109 C 
ATOM      7  C   UNL     1      -5.263 -10.516  16.400  0.00  0.00    +0.109 C 
ATOM      8  C   UNL     1      -7.792 -10.134  16.703  0.00  0.00    +0.132 C 
ATOM      9  C   UNL     1      -5.473 -12.156  18.798  0.00  0.00    +0.125 C 
ATOM     10  C   UNL     1      -4.150 -11.584  18.280  0.00  0.00    +0.104 C 
ATOM     11  C   UNL     1      -7.747 -10.983  18.917  0.00  0.00    +0.305 C 
ATOM     13  C   UNL     1      -9.764  -9.608  18.208  0.00  0.00    +0.133 C 
ENDROOT
BRANCH   3  12
ATOM     12  C   UNL     1      -2.883 -10.910  16.339  0.00  0.00    +0.140 C 
BRANCH  12  14
ATOM      5  N   UNL     1      -2.950 -12.517  14.515  0.00  0.00    -0.259 NA
ATOM     14  C   UNL     1      -2.638 -11.258  14.896  0.00  0.00    +0.055 A 
ATOM     15  C   UNL     1      -2.117 -10.296  14.046  0.00  0.00    +0.024 A 
ATOM     16  C   UNL     1      -1.903 -10.650  12.718  0.00  0.00    +0.003 A 
ATOM     17  C   UNL     1      -2.727 -12.824  13.217  0.00  0.00    +0.111 A 
ATOM     18  C   UNL     1      -2.212 -11.936  12.287  0.00  0.00    +0.020 A 
ENDBRANCH  12  14
ENDBRANCH   3  12
TORSDOF 2
ENDMDL
MODEL 8
REMARK VINA RESULT:      -5.0     25.922     27.877
REMARK  Name = 75537104
REMARK  3 active torsions:
REMARK  status: ('A' for Active; 'I' for Inactive)
REMARK    1  A    between atoms: N_3  and  C_12
REMARK    2  A    between atoms: N_4  and  C_13
REMARK    3  A    between atoms: C_12  and  C_14
REMARK                            x       y       z     vdW  Elec       q    Type
REMARK                         _______ _______ _______ _____ _____    ______ ____
ROOT
ATOM      1  O   UNL     1      -9.945  -9.580  17.986  0.00  0.00    -0.252 OA
ATOM      2  N   UNL     1      -7.742 -10.394  17.954  0.00  0.00    -0.278 N 
ATOM      3  N   UNL     1      -5.303 -11.326  16.909  0.00  0.00    -0.293 NA
ATOM      4  N   UNL     1      -9.185 -11.286  19.427  0.00  0.00    -0.287 N 
ATOM      6  C   UNL     1      -6.937 -11.299  18.748  0.00  0.00    +0.109 C 
ATOM      7  C   UNL     1      -6.071 -12.174  17.843  0.00  0.00    +0.109 C 
ATOM      8  C   UNL     1      -7.965 -12.061  19.583  0.00  0.00    +0.132 C 
ATOM      9  C   UNL     1      -7.112  -9.621  16.905  0.00  0.00    +0.125 C 
ATOM     10  C   UNL     1      -6.208 -10.524  16.061  0.00  0.00    +0.104 C 
ATOM     11  C   UNL     1      -9.066 -10.322  18.405  0.00  0.00    +0.305 C 
ATOM     13  C   UNL     1     -10.394 -11.605  20.152  0.00  0.00    +0.133 C 
ENDROOT
BRANCH   3  12
ATOM     12  C   UNL     1      -4.424 -12.150  16.079  0.00  0.00    +0.140 C 
BRANCH  12  14
ATOM      5  N   UNL     1      -3.312 -11.150  14.160  0.00  0.00    -0.259 NA
ATOM     14  C   UNL     1      -3.290 -11.350  15.497  0.00  0.00    +0.055 A 
ATOM     15  C   UNL     1      -2.300 -10.867  16.337  0.00  0.00    +0.024 A 
ATOM     16  C   UNL     1      -1.266 -10.131  15.769  0.00  0.00    +0.003 A 
ATOM     17  C   UNL     1      -2.291 -10.430  13.644  0.00  0.00    +0.111 A 
ATOM     18  C   UNL     1      -1.254  -9.903  14.396  0.00  0.00    +0.020 A 
ENDBRANCH  12  14
ENDBRANCH   3  12
TORSDOF 2
ENDMDL
MODEL 9
REMARK VINA RESULT:      -4.9      1.616      2.323
REMARK  Name = 75537104
REMARK  3 active torsions:
REMARK  status: ('A' for Active; 'I' for Inactive)
REMARK    1  A    between atoms: N_3  and  C_12
REMARK    2  A    between atoms: N_4  and  C_13
REMARK    3  A    between atoms: C_12  and  C_14
REMARK                            x       y       z     vdW  Elec       q    Type
REMARK                         _______ _______ _______ _____ _____    ______ ____
ROOT
ATOM      1  O   UNL     1      13.690  11.412  23.089  0.00  0.00    -0.252 OA
ATOM      2  N   UNL     1      13.047   9.363  22.139  0.00  0.00    -0.278 N 
ATOM      3  N   UNL     1      12.929   7.250  20.287  0.00  0.00    -0.293 NA
ATOM      4  N   UNL     1      11.452  10.668  23.034  0.00  0.00    -0.287 N 
ATOM      6  C   UNL     1      11.838   8.570  22.053  0.00  0.00    +0.109 C 
ATOM      7  C   UNL     1      11.694   7.969  20.655  0.00  0.00    +0.109 C 
ATOM      8  C   UNL     1      10.734   9.548  22.449  0.00  0.00    +0.132 C 
ATOM      9  C   UNL     1      14.295   8.805  21.663  0.00  0.00    +0.125 C 
ATOM     10  C   UNL     1      14.091   8.162  20.288  0.00  0.00    +0.104 C 
ATOM     11  C   UNL     1      12.840  10.583  22.795  0.00  0.00    +0.305 C 
ATOM     13  C   UNL     1      10.767  11.784  23.645  0.00  0.00    +0.133 C 
ENDROOT
BRANCH   3  12
ATOM     12  C   UNL     1      12.779   6.620  18.975  0.00  0.00    +0.140 C 
BRANCH  12  14
ATOM      5  N   UNL     1      11.312   7.852  17.476  0.00  0.00    -0.259 NA
ATOM     14  C   UNL     1      12.583   7.637  17.883  0.00  0.00    +0.055 A 
ATOM     15  C   UNL     1      13.687   8.290  17.358  0.00  0.00    +0.024 A 
ATOM     16  C   UNL     1      13.472   9.225  16.351  0.00  0.00    +0.003 A 
ATOM     17  C   UNL     1      11.142   8.767  16.496  0.00  0.00    +0.111 A 
ATOM     18  C   UNL     1      12.178   9.475  15.906  0.00  0.00    +0.020 A 
ENDBRANCH  12  14
ENDBRANCH   3  12
TORSDOF 2
ENDMDL
MODEL 10
REMARK VINA RESULT:      -4.9     26.573     28.565
REMARK  Name = 75537104
REMARK  3 active torsions:
REMARK  status: ('A' for Active; 'I' for Inactive)
REMARK    1  A    between atoms: N_3  and  C_12
REMARK    2  A    between atoms: N_4  and  C_13
REMARK    3  A    between atoms: C_12  and  C_14
REMARK                            x       y       z     vdW  Elec       q    Type
REMARK                         _______ _______ _______ _____ _____    ______ ____
ROOT
ATOM      1  O   UNL     1      -4.780 -11.811  18.727  0.00  0.00    -0.252 OA
ATOM      2  N   UNL     1      -6.505 -10.446  17.905  0.00  0.00    -0.278 N 
ATOM      3  N   UNL     1      -9.102  -9.652  17.174  0.00  0.00    -0.293 NA
ATOM      4  N   UNL     1      -4.581 -10.539  16.750  0.00  0.00    -0.287 N 
ATOM      6  C   UNL     1      -6.671  -9.474  16.845  0.00  0.00    +0.109 C 
ATOM      7  C   UNL     1      -8.026  -9.656  16.163  0.00  0.00    +0.109 C 
ATOM      8  C   UNL     1      -5.461  -9.712  15.942  0.00  0.00    +0.132 C 
ATOM      9  C   UNL     1      -7.570 -10.630  18.869  0.00  0.00    +0.125 C 
ATOM     10  C   UNL     1      -8.915 -10.748  18.146  0.00  0.00    +0.104 C 
ATOM     11  C   UNL     1      -5.231 -11.027  17.902  0.00  0.00    +0.305 C 
ATOM     13  C   UNL     1      -3.256 -10.911  16.306  0.00  0.00    +0.133 C 
ENDROOT
BRANCH   3  12
ATOM     12  C   UNL     1     -10.410  -9.765  16.526  0.00  0.00    +0.140 C 
BRANCH  12  14
ATOM      5  N   UNL     1     -11.439  -8.401  14.795  0.00  0.00    -0.259 NA
ATOM     14  C   UNL     1     -10.911  -8.433  16.039  0.00  0.00    +0.055 A 
ATOM     15  C   UNL     1     -10.810  -7.326  16.867  0.00  0.00    +0.024 A 
ATOM     16  C   UNL     1     -11.283  -6.109  16.387  0.00  0.00    +0.003 A 
ATOM     17  C   UNL     1     -11.888  -7.201  14.363  0.00  0.00    +0.111 A 
ATOM     18  C   UNL     1     -11.835  -6.037  15.112  0.00  0.00    +0.020 A 
ENDBRANCH  12  14
ENDBRANCH   3  12
TORSDOF 2
ENDMDL
