MODEL 1
REMARK VINA RESULT:      -7.2      0.000      0.000
REMARK  Name = 26744523
REMARK  7 active torsions:
REMARK  status: ('A' for Active; 'I' for Inactive)
REMARK    1  A    between atoms: O_1  and  C_11
REMARK    2  A    between atoms: O_3  and  C_25
REMARK    3  A    between atoms: N_5  and  C_13
REMARK    4  A    between atoms: C_9  and  C_14
REMARK    5  A    between atoms: C_13  and  C_15
REMARK    6  A    between atoms: C_18  and  C_22
REMARK    7  A    between atoms: C_21  and  C_25
REMARK                            x       y       z     vdW  Elec       q    Type
REMARK                         _______ _______ _______ _____ _____    ______ ____
ROOT
ATOM      5  N   UNL     1      13.503   8.457  19.663  0.00  0.00    -0.285 NA
ATOM      9  C   UNL     1      14.071   7.466  18.726  0.00  0.00    +0.149 C 
ATOM     10  C   UNL     1      14.027   8.155  17.350  0.00  0.00    +0.061 C 
ATOM     11  C   UNL     1      13.378   9.508  17.607  0.00  0.00    +0.130 C 
ATOM     12  C   UNL     1      12.587   9.287  18.883  0.00  0.00    +0.116 C 
ENDROOT
BRANCH   9  14
ATOM      2  O   UNL     1      16.010   6.017  18.390  0.00  0.00    -0.336 OA
ATOM      6  N   UNL     1      16.243   7.480  20.069  0.00  0.00    -0.190 NA
ATOM      7  N   UNL     1      17.282   5.789  18.931  0.00  0.00    -0.056 NA
ATOM     14  C   UNL     1      15.466   7.027  19.118  0.00  0.00    +0.245 A 
ATOM     18  C   UNL     1      17.345   6.691  19.915  0.00  0.00    +0.204 A 
BRANCH  18  22
ATOM      8  N   UNL     1      19.626   8.032  22.528  0.00  0.00    -0.263 NA
ATOM     22  C   UNL     1      18.495   6.829  20.762  0.00  0.00    +0.041 A 
ATOM     23  C   UNL     1      19.568   5.950  20.663  0.00  0.00    +0.014 A 
ATOM     24  C   UNL     1      18.573   7.845  21.702  0.00  0.00    +0.122 A 
ATOM     26  C   UNL     1      20.670   6.111  21.496  0.00  0.00    +0.020 A 
ATOM     27  C   UNL     1      20.650   7.158  22.403  0.00  0.00    +0.111 A 
ENDBRANCH  18  22
ENDBRANCH   9  14
BRANCH  11   1
ATOM      1  O   UNL     1      12.541   9.876  16.528  0.00  0.00    -0.390 OA
ATOM     28  H   UNL     1      13.075   9.835  15.716  0.00  0.00    +0.210 HD
ENDBRANCH  11   1
BRANCH   5  13
ATOM     13  C   UNL     1      12.846   7.850  20.814  0.00  0.00    +0.120 C 
BRANCH  13  15
ATOM     15  C   UNL     1      12.316   8.886  21.768  0.00  0.00    -0.033 A 
ATOM     16  C   UNL     1      10.994   8.817  22.208  0.00  0.00    +0.006 A 
ATOM     17  C   UNL     1      13.147   9.915  22.214  0.00  0.00    +0.006 A 
ATOM     19  C   UNL     1      10.503   9.778  23.092  0.00  0.00    +0.015 A 
ATOM     20  C   UNL     1      12.655  10.875  23.099  0.00  0.00    +0.015 A 
ATOM     21  C   UNL     1      11.332  10.806  23.538  0.00  0.00    +0.059 A 
BRANCH  21  25
ATOM      4  O   UNL     1      10.081  12.748  24.157  0.00  0.00    -0.245 OA
ATOM     25  C   UNL     1      10.821  11.807  24.461  0.00  0.00    +0.337 C 
BRANCH  25   3
ATOM      3  O   UNL     1      11.248  11.604  25.738  0.00  0.00    -0.477 OA
ATOM     29  H   UNL     1      11.310  12.445  26.239  0.00  0.00    +0.295 HD
ENDBRANCH  25   3
ENDBRANCH  21  25
ENDBRANCH  13  15
ENDBRANCH   5  13
TORSDOF 7
ENDMDL
MODEL 2
REMARK VINA RESULT:      -6.8     14.985     18.379
REMARK  Name = 26744523
REMARK  7 active torsions:
REMARK  status: ('A' for Active; 'I' for Inactive)
REMARK    1  A    between atoms: O_1  and  C_11
REMARK    2  A    between atoms: O_3  and  C_25
REMARK    3  A    between atoms: N_5  and  C_13
REMARK    4  A    between atoms: C_9  and  C_14
REMARK    5  A    between atoms: C_13  and  C_15
REMARK    6  A    between atoms: C_18  and  C_22
REMARK    7  A    between atoms: C_21  and  C_25
REMARK                            x       y       z     vdW  Elec       q    Type
REMARK                         _______ _______ _______ _____ _____    ______ ____
ROOT
ATOM      5  N   UNL     1      11.716   6.740   4.727  0.00  0.00    -0.285 NA
ATOM      9  C   UNL     1      12.016   7.064   3.317  0.00  0.00    +0.149 C 
ATOM     10  C   UNL     1      13.473   7.561   3.328  0.00  0.00    +0.061 C 
ATOM     11  C   UNL     1      13.891   7.524   4.793  0.00  0.00    +0.130 C 
ATOM     12  C   UNL     1      12.573   7.600   5.541  0.00  0.00    +0.116 C 
ENDROOT
BRANCH   9  14
ATOM      2  O   UNL     1      11.586   4.681   2.982  0.00  0.00    -0.336 OA
ATOM      6  N   UNL     1      11.805   5.846   1.082  0.00  0.00    -0.190 NA
ATOM      7  N   UNL     1      11.425   3.759   1.940  0.00  0.00    -0.056 NA
ATOM     14  C   UNL     1      11.806   5.884   2.391  0.00  0.00    +0.245 A 
ATOM     18  C   UNL     1      11.568   4.523   0.852  0.00  0.00    +0.204 A 
BRANCH  18  22
ATOM      8  N   UNL     1      10.217   3.771  -2.530  0.00  0.00    -0.263 NA
ATOM     22  C   UNL     1      11.477   3.994  -0.478  0.00  0.00    +0.041 A 
ATOM     23  C   UNL     1      12.498   3.216  -1.013  0.00  0.00    +0.014 A 
ATOM     24  C   UNL     1      10.367   4.239  -1.271  0.00  0.00    +0.122 A 
ATOM     26  C   UNL     1      12.380   2.716  -2.305  0.00  0.00    +0.020 A 
ATOM     27  C   UNL     1      11.231   3.019  -3.015  0.00  0.00    +0.111 A 
ENDBRANCH  18  22
ENDBRANCH   9  14
BRANCH  11   1
ATOM      1  O   UNL     1      14.734   8.616   5.102  0.00  0.00    -0.390 OA
ATOM     28  H   UNL     1      15.544   8.520   4.573  0.00  0.00    +0.210 HD
ENDBRANCH  11   1
BRANCH   5  13
ATOM     13  C   UNL     1      10.307   6.894   5.064  0.00  0.00    +0.120 C 
BRANCH  13  15
ATOM     15  C   UNL     1       9.990   6.322   6.421  0.00  0.00    -0.033 A 
ATOM     16  C   UNL     1      10.175   4.961   6.664  0.00  0.00    +0.006 A 
ATOM     17  C   UNL     1       9.514   7.153   7.435  0.00  0.00    +0.006 A 
ATOM     19  C   UNL     1       9.881   4.431   7.920  0.00  0.00    +0.015 A 
ATOM     20  C   UNL     1       9.221   6.623   8.691  0.00  0.00    +0.015 A 
ATOM     21  C   UNL     1       9.405   5.261   8.934  0.00  0.00    +0.059 A 
BRANCH  21  25
ATOM      4  O   UNL     1       7.966   4.550  10.708  0.00  0.00    -0.245 OA
ATOM     25  C   UNL     1       9.100   4.709  10.245  0.00  0.00    +0.337 C 
BRANCH  25   3
ATOM      3  O   UNL     1      10.220   4.370  10.940  0.00  0.00    -0.477 OA
ATOM     29  H   UNL     1      10.013   3.795  11.707  0.00  0.00    +0.295 HD
ENDBRANCH  25   3
ENDBRANCH  21  25
ENDBRANCH  13  15
ENDBRANCH   5  13
TORSDOF 7
ENDMDL
MODEL 3
REMARK VINA RESULT:      -6.8     27.234     29.230
REMARK  Name = 26744523
REMARK  7 active torsions:
REMARK  status: ('A' for Active; 'I' for Inactive)
REMARK    1  A    between atoms: O_1  and  C_11
REMARK    2  A    between atoms: O_3  and  C_25
REMARK    3  A    between atoms: N_5  and  C_13
REMARK    4  A    between atoms: C_9  and  C_14
REMARK    5  A    between atoms: C_13  and  C_15
REMARK    6  A    between atoms: C_18  and  C_22
REMARK    7  A    between atoms: C_21  and  C_25
REMARK                            x       y       z     vdW  Elec       q    Type
REMARK                         _______ _______ _______ _____ _____    ______ ____
ROOT
ATOM      5  N   UNL     1      -9.124  -9.149  17.091  0.00  0.00    -0.285 NA
ATOM      9  C   UNL     1      -9.290  -9.698  15.730  0.00  0.00    +0.149 C 
ATOM     10  C   UNL     1      -9.880  -8.540  14.905  0.00  0.00    +0.061 C 
ATOM     11  C   UNL     1     -10.053  -7.398  15.899  0.00  0.00    +0.130 C 
ATOM     12  C   UNL     1     -10.134  -8.102  17.240  0.00  0.00    +0.116 C 
ENDROOT
BRANCH   9  14
ATOM      2  O   UNL     1      -8.097 -11.246  14.261  0.00  0.00    -0.336 OA
ATOM      6  N   UNL     1      -6.763  -9.845  15.388  0.00  0.00    -0.190 NA
ATOM      7  N   UNL     1      -6.788 -11.560  13.874  0.00  0.00    -0.056 NA
ATOM     14  C   UNL     1      -7.992 -10.227  15.153  0.00  0.00    +0.245 A 
ATOM     18  C   UNL     1      -6.060 -10.691  14.582  0.00  0.00    +0.204 A 
BRANCH  18  22
ATOM      8  N   UNL     1      -2.640 -10.448  13.141  0.00  0.00    -0.263 NA
ATOM     22  C   UNL     1      -4.628 -10.641  14.504  0.00  0.00    +0.041 A 
ATOM     23  C   UNL     1      -3.843 -10.734  15.648  0.00  0.00    +0.014 A 
ATOM     24  C   UNL     1      -3.982 -10.500  13.285  0.00  0.00    +0.122 A 
ATOM     26  C   UNL     1      -2.458 -10.684  15.540  0.00  0.00    +0.020 A 
ATOM     27  C   UNL     1      -1.911 -10.541  14.276  0.00  0.00    +0.111 A 
ENDBRANCH  18  22
ENDBRANCH   9  14
BRANCH  11   1
ATOM      1  O   UNL     1     -11.228  -6.664  15.619  0.00  0.00    -0.390 OA
ATOM     28  H   UNL     1     -11.874  -7.281  15.235  0.00  0.00    +0.210 HD
ENDBRANCH  11   1
BRANCH   5  13
ATOM     13  C   UNL     1      -9.225 -10.160  18.135  0.00  0.00    +0.120 C 
BRANCH  13  15
ATOM     15  C   UNL     1      -7.899 -10.821  18.406  0.00  0.00    -0.033 A 
ATOM     16  C   UNL     1      -6.840 -10.073  18.922  0.00  0.00    +0.006 A 
ATOM     17  C   UNL     1      -7.729 -12.180  18.142  0.00  0.00    +0.006 A 
ATOM     19  C   UNL     1      -5.612 -10.684  19.172  0.00  0.00    +0.015 A 
ATOM     20  C   UNL     1      -6.501 -12.791  18.392  0.00  0.00    +0.015 A 
ATOM     21  C   UNL     1      -5.442 -12.043  18.908  0.00  0.00    +0.059 A 
BRANCH  21  25
ATOM      4  O   UNL     1      -3.273 -12.230  19.900  0.00  0.00    -0.245 OA
ATOM     25  C   UNL     1      -4.162 -12.681  19.170  0.00  0.00    +0.337 C 
BRANCH  25   3
ATOM      3  O   UNL     1      -4.027 -13.867  18.515  0.00  0.00    -0.477 OA
ATOM     29  H   UNL     1      -4.737 -14.499  18.755  0.00  0.00    +0.295 HD
ENDBRANCH  25   3
ENDBRANCH  21  25
ENDBRANCH  13  15
ENDBRANCH   5  13
TORSDOF 7
ENDMDL
MODEL 4
REMARK VINA RESULT:      -6.7     26.827     29.303
REMARK  Name = 26744523
REMARK  7 active torsions:
REMARK  status: ('A' for Active; 'I' for Inactive)
REMARK    1  A    between atoms: O_1  and  C_11
REMARK    2  A    between atoms: O_3  and  C_25
REMARK    3  A    between atoms: N_5  and  C_13
REMARK    4  A    between atoms: C_9  and  C_14
REMARK    5  A    between atoms: C_13  and  C_15
REMARK    6  A    between atoms: C_18  and  C_22
REMARK    7  A    between atoms: C_21  and  C_25
REMARK                            x       y       z     vdW  Elec       q    Type
REMARK                         _______ _______ _______ _____ _____    ______ ____
ROOT
ATOM      5  N   UNL     1      -3.330 -10.862  14.407  0.00  0.00    -0.285 NA
ATOM      9  C   UNL     1      -3.595 -11.311  15.789  0.00  0.00    +0.149 C 
ATOM     10  C   UNL     1      -2.388 -10.813  16.604  0.00  0.00    +0.061 C 
ATOM     11  C   UNL     1      -1.478 -10.135  15.586  0.00  0.00    +0.130 C 
ATOM     12  C   UNL     1      -1.877 -10.776  14.270  0.00  0.00    +0.116 C 
ENDROOT
BRANCH   9  14
ATOM      2  O   UNL     1      -5.343  -9.604  15.843  0.00  0.00    -0.336 OA
ATOM      6  N   UNL     1      -5.723 -11.344  17.200  0.00  0.00    -0.190 NA
ATOM      7  N   UNL     1      -6.565  -9.343  16.476  0.00  0.00    -0.056 NA
ATOM     14  C   UNL     1      -4.916 -10.800  16.325  0.00  0.00    +0.245 A 
ATOM     18  C   UNL     1      -6.720 -10.415  17.260  0.00  0.00    +0.204 A 
BRANCH  18  22
ATOM      8  N   UNL     1      -8.840 -11.621  20.067  0.00  0.00    -0.263 NA
ATOM     22  C   UNL     1      -7.860 -10.588  18.113  0.00  0.00    +0.041 A 
ATOM     23  C   UNL     1      -9.059  -9.933  17.849  0.00  0.00    +0.014 A 
ATOM     24  C   UNL     1      -7.804 -11.414  19.224  0.00  0.00    +0.122 A 
ATOM     26  C   UNL     1     -10.148 -10.122  18.693  0.00  0.00    +0.020 A 
ATOM     27  C   UNL     1      -9.988 -10.968  19.778  0.00  0.00    +0.111 A 
ENDBRANCH  18  22
ENDBRANCH   9  14
BRANCH  11   1
ATOM      1  O   UNL     1      -0.118 -10.371  15.893  0.00  0.00    -0.390 OA
ATOM     28  H   UNL     1      -0.060 -10.549  16.848  0.00  0.00    +0.210 HD
ENDBRANCH  11   1
BRANCH   5  13
ATOM     13  C   UNL     1      -3.925 -11.727  13.397  0.00  0.00    +0.120 C 
BRANCH  13  15
ATOM     15  C   UNL     1      -4.448 -10.942  12.223  0.00  0.00    -0.033 A 
ATOM     16  C   UNL     1      -3.954 -11.192  10.942  0.00  0.00    +0.006 A 
ATOM     17  C   UNL     1      -5.427  -9.967  12.415  0.00  0.00    +0.006 A 
ATOM     19  C   UNL     1      -4.437 -10.465   9.855  0.00  0.00    +0.015 A 
ATOM     20  C   UNL     1      -5.910  -9.240  11.327  0.00  0.00    +0.015 A 
ATOM     21  C   UNL     1      -5.415  -9.489  10.046  0.00  0.00    +0.059 A 
BRANCH  21  25
ATOM      4  O   UNL     1      -6.818  -7.885   8.961  0.00  0.00    -0.245 OA
ATOM     25  C   UNL     1      -5.920  -8.732   8.913  0.00  0.00    +0.337 C 
BRANCH  25   3
ATOM      3  O   UNL     1      -5.290  -9.052   7.749  0.00  0.00    -0.477 OA
ATOM     29  H   UNL     1      -4.558  -8.431   7.549  0.00  0.00    +0.295 HD
ENDBRANCH  25   3
ENDBRANCH  21  25
ENDBRANCH  13  15
ENDBRANCH   5  13
TORSDOF 7
ENDMDL
MODEL 5
REMARK VINA RESULT:      -6.5     27.158     28.778
REMARK  Name = 26744523
REMARK  7 active torsions:
REMARK  status: ('A' for Active; 'I' for Inactive)
REMARK    1  A    between atoms: O_1  and  C_11
REMARK    2  A    between atoms: O_3  and  C_25
REMARK    3  A    between atoms: N_5  and  C_13
REMARK    4  A    between atoms: C_9  and  C_14
REMARK    5  A    between atoms: C_13  and  C_15
REMARK    6  A    between atoms: C_18  and  C_22
REMARK    7  A    between atoms: C_21  and  C_25
REMARK                            x       y       z     vdW  Elec       q    Type
REMARK                         _______ _______ _______ _____ _____    ______ ____
ROOT
ATOM      5  N   UNL     1      -3.309 -11.801  14.151  0.00  0.00    -0.285 NA
ATOM      9  C   UNL     1      -2.422 -11.863  12.972  0.00  0.00    +0.149 C 
ATOM     10  C   UNL     1      -2.393 -13.351  12.577  0.00  0.00    +0.061 C 
ATOM     11  C   UNL     1      -3.255 -14.052  13.620  0.00  0.00    +0.130 C 
ATOM     12  C   UNL     1      -3.219 -13.106  14.806  0.00  0.00    +0.116 C 
ENDROOT
BRANCH   9  14
ATOM      2  O   UNL     1      -2.038  -9.980  11.462  0.00  0.00    -0.336 OA
ATOM      6  N   UNL     1      -4.010 -10.999  11.168  0.00  0.00    -0.190 NA
ATOM      7  N   UNL     1      -2.679  -9.294  10.422  0.00  0.00    -0.056 NA
ATOM     14  C   UNL     1      -2.890 -10.967  11.844  0.00  0.00    +0.245 A 
ATOM     18  C   UNL     1      -3.836  -9.955  10.308  0.00  0.00    +0.204 A 
BRANCH  18  22
ATOM      8  N   UNL     1      -6.790  -8.288   8.784  0.00  0.00    -0.263 NA
ATOM     22  C   UNL     1      -4.836  -9.598   9.344  0.00  0.00    +0.041 A 
ATOM     23  C   UNL     1      -4.852 -10.175   8.079  0.00  0.00    +0.014 A 
ATOM     24  C   UNL     1      -5.819  -8.668   9.644  0.00  0.00    +0.122 A 
ATOM     26  C   UNL     1      -5.835  -9.810   7.166  0.00  0.00    +0.020 A 
ATOM     27  C   UNL     1      -6.772  -8.871   7.564  0.00  0.00    +0.111 A 
ENDBRANCH  18  22
ENDBRANCH   9  14
BRANCH  11   1
ATOM      1  O   UNL     1      -2.719 -15.320  13.944  0.00  0.00    -0.390 OA
ATOM     28  H   UNL     1      -1.952 -15.470  13.365  0.00  0.00    +0.210 HD
ENDBRANCH  11   1
BRANCH   5  13
ATOM     13  C   UNL     1      -2.982 -10.710  15.059  0.00  0.00    +0.120 C 
BRANCH  13  15
ATOM     15  C   UNL     1      -3.830 -10.743  16.304  0.00  0.00    -0.033 A 
ATOM     16  C   UNL     1      -5.093 -10.152  16.302  0.00  0.00    +0.006 A 
ATOM     17  C   UNL     1      -3.353 -11.366  17.457  0.00  0.00    +0.006 A 
ATOM     19  C   UNL     1      -5.879 -10.182  17.454  0.00  0.00    +0.015 A 
ATOM     20  C   UNL     1      -4.139 -11.397  18.609  0.00  0.00    +0.015 A 
ATOM     21  C   UNL     1      -5.403 -10.804  18.607  0.00  0.00    +0.059 A 
BRANCH  21  25
ATOM      4  O   UNL     1      -5.891 -11.343  20.886  0.00  0.00    -0.245 OA
ATOM     25  C   UNL     1      -6.221 -10.838  19.808  0.00  0.00    +0.337 C 
BRANCH  25   3
ATOM      3  O   UNL     1      -7.431 -10.239  19.631  0.00  0.00    -0.477 OA
ATOM     29  H   UNL     1      -7.713 -10.258  18.692  0.00  0.00    +0.295 HD
ENDBRANCH  25   3
ENDBRANCH  21  25
ENDBRANCH  13  15
ENDBRANCH   5  13
TORSDOF 7
ENDMDL
MODEL 6
REMARK VINA RESULT:      -6.5     26.980     29.121
REMARK  Name = 26744523
REMARK  7 active torsions:
REMARK  status: ('A' for Active; 'I' for Inactive)
REMARK    1  A    between atoms: O_1  and  C_11
REMARK    2  A    between atoms: O_3  and  C_25
REMARK    3  A    between atoms: N_5  and  C_13
REMARK    4  A    between atoms: C_9  and  C_14
REMARK    5  A    between atoms: C_13  and  C_15
REMARK    6  A    between atoms: C_18  and  C_22
REMARK    7  A    between atoms: C_21  and  C_25
REMARK                            x       y       z     vdW  Elec       q    Type
REMARK                         _______ _______ _______ _____ _____    ______ ____
ROOT
ATOM      5  N   UNL     1      -8.018  -9.732  16.297  0.00  0.00    -0.285 NA
ATOM      9  C   UNL     1      -8.850  -9.814  15.079  0.00  0.00    +0.149 C 
ATOM     10  C   UNL     1      -9.864  -8.664  15.215  0.00  0.00    +0.061 C 
ATOM     11  C   UNL     1      -9.554  -8.022  16.562  0.00  0.00    +0.130 C 
ATOM     12  C   UNL     1      -8.858  -9.129  17.331  0.00  0.00    +0.116 C 
ENDROOT
BRANCH   9  14
ATOM      2  O   UNL     1      -8.727  -9.650  12.643  0.00  0.00    -0.336 OA
ATOM      6  N   UNL     1      -6.731  -9.711  13.657  0.00  0.00    -0.190 NA
ATOM      7  N   UNL     1      -7.770  -9.579  11.623  0.00  0.00    -0.056 NA
ATOM     14  C   UNL     1      -8.031  -9.726  13.808  0.00  0.00    +0.245 A 
ATOM     18  C   UNL     1      -6.619  -9.620  12.300  0.00  0.00    +0.204 A 
BRANCH  18  22
ATOM      8  N   UNL     1      -3.987  -8.776   9.813  0.00  0.00    -0.263 NA
ATOM     22  C   UNL     1      -5.340  -9.571  11.652  0.00  0.00    +0.041 A 
ATOM     23  C   UNL     1      -4.240 -10.234  12.184  0.00  0.00    +0.014 A 
ATOM     24  C   UNL     1      -5.162  -8.863  10.474  0.00  0.00    +0.122 A 
ATOM     26  C   UNL     1      -3.014 -10.169  11.532  0.00  0.00    +0.020 A 
ATOM     27  C   UNL     1      -2.940  -9.434  10.360  0.00  0.00    +0.111 A 
ENDBRANCH  18  22
ENDBRANCH   9  14
BRANCH  11   1
ATOM      1  O   UNL     1     -10.742  -7.604  17.204  0.00  0.00    -0.390 OA
ATOM     28  H   UNL     1     -10.489  -7.008  17.929  0.00  0.00    +0.210 HD
ENDBRANCH  11   1
BRANCH   5  13
ATOM     13  C   UNL     1      -7.477 -11.020  16.712  0.00  0.00    +0.120 C 
BRANCH  13  15
ATOM     15  C   UNL     1      -6.021 -11.157  16.355  0.00  0.00    -0.033 A 
ATOM     16  C   UNL     1      -5.109 -10.181  16.760  0.00  0.00    +0.006 A 
ATOM     17  C   UNL     1      -5.583 -12.260  15.622  0.00  0.00    +0.006 A 
ATOM     19  C   UNL     1      -3.760 -10.308  16.429  0.00  0.00    +0.015 A 
ATOM     20  C   UNL     1      -4.233 -12.386  15.292  0.00  0.00    +0.015 A 
ATOM     21  C   UNL     1      -3.322 -11.410  15.696  0.00  0.00    +0.059 A 
BRANCH  21  25
ATOM      4  O   UNL     1      -1.477 -12.038  14.309  0.00  0.00    -0.245 OA
ATOM     25  C   UNL     1      -1.915 -11.543  15.353  0.00  0.00    +0.337 C 
BRANCH  25   3
ATOM      3  O   UNL     1      -1.093 -11.055  16.322  0.00  0.00    -0.477 OA
ATOM     29  H   UNL     1      -0.379 -10.497  15.947  0.00  0.00    +0.295 HD
ENDBRANCH  25   3
ENDBRANCH  21  25
ENDBRANCH  13  15
ENDBRANCH   5  13
TORSDOF 7
ENDMDL
MODEL 7
REMARK VINA RESULT:      -6.4     26.718     29.290
REMARK  Name = 26744523
REMARK  7 active torsions:
REMARK  status: ('A' for Active; 'I' for Inactive)
REMARK    1  A    between atoms: O_1  and  C_11
REMARK    2  A    between atoms: O_3  and  C_25
REMARK    3  A    between atoms: N_5  and  C_13
REMARK    4  A    between atoms: C_9  and  C_14
REMARK    5  A    between atoms: C_13  and  C_15
REMARK    6  A    between atoms: C_18  and  C_22
REMARK    7  A    between atoms: C_21  and  C_25
REMARK                            x       y       z     vdW  Elec       q    Type
REMARK                         _______ _______ _______ _____ _____    ______ ____
ROOT
ATOM      5  N   UNL     1      -3.268 -10.977  14.400  0.00  0.00    -0.285 NA
ATOM      9  C   UNL     1      -3.545 -11.324  15.809  0.00  0.00    +0.149 C 
ATOM     10  C   UNL     1      -2.355 -10.748  16.599  0.00  0.00    +0.061 C 
ATOM     11  C   UNL     1      -1.441 -10.138  15.544  0.00  0.00    +0.130 C 
ATOM     12  C   UNL     1      -1.814 -10.882  14.276  0.00  0.00    +0.116 C 
ENDROOT
BRANCH   9  14
ATOM      2  O   UNL     1      -5.116 -10.865  17.624  0.00  0.00    -0.336 OA
ATOM      6  N   UNL     1      -5.857 -10.261  15.599  0.00  0.00    -0.190 NA
ATOM      7  N   UNL     1      -6.392 -10.322  17.823  0.00  0.00    -0.056 NA
ATOM     14  C   UNL     1      -4.879 -10.791  16.289  0.00  0.00    +0.245 A 
ATOM     18  C   UNL     1      -6.763  -9.989  16.583  0.00  0.00    +0.204 A 
BRANCH  18  22
ATOM      8  N   UNL     1      -9.824  -8.997  14.720  0.00  0.00    -0.263 NA
ATOM     22  C   UNL     1      -8.030  -9.381  16.294  0.00  0.00    +0.041 A 
ATOM     23  C   UNL     1      -8.689  -8.610  17.245  0.00  0.00    +0.014 A 
ATOM     24  C   UNL     1      -8.635  -9.542  15.057  0.00  0.00    +0.122 A 
ATOM     26  C   UNL     1      -9.915  -8.033  16.935  0.00  0.00    +0.020 A 
ATOM     27  C   UNL     1     -10.435  -8.254  15.670  0.00  0.00    +0.111 A 
ENDBRANCH  18  22
ENDBRANCH   9  14
BRANCH  11   1
ATOM      1  O   UNL     1      -0.082 -10.332  15.885  0.00  0.00    -0.390 OA
ATOM     28  H   UNL     1      -0.001 -11.220  16.272  0.00  0.00    +0.210 HD
ENDBRANCH  11   1
BRANCH   5  13
ATOM     13  C   UNL     1      -3.838 -11.925  13.452  0.00  0.00    +0.120 C 
BRANCH  13  15
ATOM     15  C   UNL     1      -4.198 -11.265  12.147  0.00  0.00    -0.033 A 
ATOM     16  C   UNL     1      -3.730 -11.796  10.945  0.00  0.00    +0.006 A 
ATOM     17  C   UNL     1      -5.001 -10.124  12.141  0.00  0.00    +0.006 A 
ATOM     19  C   UNL     1      -4.063 -11.185   9.737  0.00  0.00    +0.015 A 
ATOM     20  C   UNL     1      -5.333  -9.513  10.931  0.00  0.00    +0.015 A 
ATOM     21  C   UNL     1      -4.864 -10.044   9.729  0.00  0.00    +0.059 A 
BRANCH  21  25
ATOM      4  O   UNL     1      -5.127  -9.931   7.354  0.00  0.00    -0.245 OA
ATOM     25  C   UNL     1      -5.213  -9.407   8.469  0.00  0.00    +0.337 C 
BRANCH  25   3
ATOM      3  O   UNL     1      -5.661  -8.132   8.637  0.00  0.00    -0.477 OA
ATOM     29  H   UNL     1      -5.093  -7.482   8.172  0.00  0.00    +0.295 HD
ENDBRANCH  25   3
ENDBRANCH  21  25
ENDBRANCH  13  15
ENDBRANCH   5  13
TORSDOF 7
ENDMDL
MODEL 8
REMARK VINA RESULT:      -6.4     14.392     17.183
REMARK  Name = 26744523
REMARK  7 active torsions:
REMARK  status: ('A' for Active; 'I' for Inactive)
REMARK    1  A    between atoms: O_1  and  C_11
REMARK    2  A    between atoms: O_3  and  C_25
REMARK    3  A    between atoms: N_5  and  C_13
REMARK    4  A    between atoms: C_9  and  C_14
REMARK    5  A    between atoms: C_13  and  C_15
REMARK    6  A    between atoms: C_18  and  C_22
REMARK    7  A    between atoms: C_21  and  C_25
REMARK                            x       y       z     vdW  Elec       q    Type
REMARK                         _______ _______ _______ _____ _____    ______ ____
ROOT
ATOM      5  N   UNL     1       9.599   9.489   4.995  0.00  0.00    -0.285 NA
ATOM      9  C   UNL     1       9.349   8.119   4.502  0.00  0.00    +0.149 C 
ATOM     10  C   UNL     1       8.001   8.205   3.764  0.00  0.00    +0.061 C 
ATOM     11  C   UNL     1       7.550   9.650   3.935  0.00  0.00    +0.130 C 
ATOM     12  C   UNL     1       8.287  10.108   5.179  0.00  0.00    +0.116 C 
ENDROOT
BRANCH   9  14
ATOM      2  O   UNL     1      11.054   8.509   2.795  0.00  0.00    -0.336 OA
ATOM      6  N   UNL     1      10.966   6.397   3.532  0.00  0.00    -0.190 NA
ATOM      7  N   UNL     1      12.042   7.810   2.090  0.00  0.00    -0.056 NA
ATOM     14  C   UNL     1      10.468   7.604   3.621  0.00  0.00    +0.245 A 
ATOM     18  C   UNL     1      11.928   6.572   2.581  0.00  0.00    +0.204 A 
BRANCH  18  22
ATOM      8  N   UNL     1      14.935   4.721   1.414  0.00  0.00    -0.263 NA
ATOM     22  C   UNL     1      12.762   5.490   2.144  0.00  0.00    +0.041 A 
ATOM     23  C   UNL     1      12.255   4.200   2.017  0.00  0.00    +0.014 A 
ATOM     24  C   UNL     1      14.096   5.695   1.832  0.00  0.00    +0.122 A 
ATOM     26  C   UNL     1      13.087   3.172   1.589  0.00  0.00    +0.020 A 
ATOM     27  C   UNL     1      14.407   3.481   1.303  0.00  0.00    +0.111 A 
ENDBRANCH  18  22
ENDBRANCH   9  14
BRANCH  11   1
ATOM      1  O   UNL     1       6.147   9.721   4.101  0.00  0.00    -0.390 OA
ATOM     28  H   UNL     1       5.754   9.834   3.219  0.00  0.00    +0.210 HD
ENDBRANCH  11   1
BRANCH   5  13
ATOM     13  C   UNL     1      10.397   9.524   6.214  0.00  0.00    +0.120 C 
BRANCH  13  15
ATOM     15  C   UNL     1      10.267   8.251   7.007  0.00  0.00    -0.033 A 
ATOM     16  C   UNL     1       9.079   7.970   7.682  0.00  0.00    +0.006 A 
ATOM     17  C   UNL     1      11.332   7.352   7.065  0.00  0.00    +0.006 A 
ATOM     19  C   UNL     1       8.957   6.790   8.417  0.00  0.00    +0.015 A 
ATOM     20  C   UNL     1      11.210   6.172   7.800  0.00  0.00    +0.015 A 
ATOM     21  C   UNL     1      10.022   5.892   8.476  0.00  0.00    +0.059 A 
BRANCH  21  25
ATOM      4  O   UNL     1      10.042   4.560  10.463  0.00  0.00    -0.245 OA
ATOM     25  C   UNL     1       9.895   4.661   9.241  0.00  0.00    +0.337 C 
BRANCH  25   3
ATOM      3  O   UNL     1       9.588   3.591   8.458  0.00  0.00    -0.477 OA
ATOM     29  H   UNL     1       8.648   3.327   8.554  0.00  0.00    +0.295 HD
ENDBRANCH  25   3
ENDBRANCH  21  25
ENDBRANCH  13  15
ENDBRANCH   5  13
TORSDOF 7
ENDMDL
MODEL 9
REMARK VINA RESULT:      -6.4     12.120     15.089
REMARK  Name = 26744523
REMARK  7 active torsions:
REMARK  status: ('A' for Active; 'I' for Inactive)
REMARK    1  A    between atoms: O_1  and  C_11
REMARK    2  A    between atoms: O_3  and  C_25
REMARK    3  A    between atoms: N_5  and  C_13
REMARK    4  A    between atoms: C_9  and  C_14
REMARK    5  A    between atoms: C_13  and  C_15
REMARK    6  A    between atoms: C_18  and  C_22
REMARK    7  A    between atoms: C_21  and  C_25
REMARK                            x       y       z     vdW  Elec       q    Type
REMARK                         _______ _______ _______ _____ _____    ______ ____
ROOT
ATOM      5  N   UNL     1      10.691   7.325   4.517  0.00  0.00    -0.285 NA
ATOM      9  C   UNL     1      11.603   7.460   5.670  0.00  0.00    +0.149 C 
ATOM     10  C   UNL     1      13.016   7.330   5.072  0.00  0.00    +0.061 C 
ATOM     11  C   UNL     1      12.794   7.079   3.586  0.00  0.00    +0.130 C 
ATOM     12  C   UNL     1      11.390   6.505   3.528  0.00  0.00    +0.116 C 
ENDROOT
BRANCH   9  14
ATOM      2  O   UNL     1      11.329   9.888   5.672  0.00  0.00    -0.336 OA
ATOM      6  N   UNL     1      11.289   8.963   7.711  0.00  0.00    -0.190 NA
ATOM      7  N   UNL     1      11.147  10.944   6.575  0.00  0.00    -0.056 NA
ATOM     14  C   UNL     1      11.403   8.759   6.423  0.00  0.00    +0.245 A 
ATOM     18  C   UNL     1      11.134  10.317   7.756  0.00  0.00    +0.204 A 
BRANCH  18  22
ATOM      8  N   UNL     1      11.946  12.312  10.787  0.00  0.00    -0.263 NA
ATOM     22  C   UNL     1      10.965  11.015   8.998  0.00  0.00    +0.041 A 
ATOM     23  C   UNL     1       9.723  11.084   9.619  0.00  0.00    +0.014 A 
ATOM     24  C   UNL     1      12.035  11.640   9.618  0.00  0.00    +0.122 A 
ATOM     26  C   UNL     1       9.591  11.767  10.823  0.00  0.00    +0.020 A 
ATOM     27  C   UNL     1      10.722  12.358  11.360  0.00  0.00    +0.111 A 
ENDBRANCH  18  22
ENDBRANCH   9  14
BRANCH  11   1
ATOM      1  O   UNL     1      13.753   6.170   3.082  0.00  0.00    -0.390 OA
ATOM     28  H   UNL     1      13.558   6.032   2.139  0.00  0.00    +0.210 HD
ENDBRANCH  11   1
BRANCH   5  13
ATOM     13  C   UNL     1       9.393   6.765   4.873  0.00  0.00    +0.120 C 
BRANCH  13  15
ATOM     15  C   UNL     1       9.380   6.233   6.281  0.00  0.00    -0.033 A 
ATOM     16  C   UNL     1       9.929   4.980   6.557  0.00  0.00    +0.006 A 
ATOM     17  C   UNL     1       8.821   6.992   7.309  0.00  0.00    +0.006 A 
ATOM     19  C   UNL     1       9.917   4.486   7.862  0.00  0.00    +0.015 A 
ATOM     20  C   UNL     1       8.809   6.497   8.614  0.00  0.00    +0.015 A 
ATOM     21  C   UNL     1       9.358   5.244   8.890  0.00  0.00    +0.059 A 
BRANCH  21  25
ATOM      4  O   UNL     1      10.332   4.313  10.866  0.00  0.00    -0.245 OA
ATOM     25  C   UNL     1       9.346   4.730  10.250  0.00  0.00    +0.337 C 
BRANCH  25   3
ATOM      3  O   UNL     1       8.103   4.752  10.805  0.00  0.00    -0.477 OA
ATOM     29  H   UNL     1       7.771   5.668  10.919  0.00  0.00    +0.295 HD
ENDBRANCH  25   3
ENDBRANCH  21  25
ENDBRANCH  13  15
ENDBRANCH   5  13
TORSDOF 7
ENDMDL
MODEL 10
REMARK VINA RESULT:      -6.4     14.355     17.395
REMARK  Name = 26744523
REMARK  7 active torsions:
REMARK  status: ('A' for Active; 'I' for Inactive)
REMARK    1  A    between atoms: O_1  and  C_11
REMARK    2  A    between atoms: O_3  and  C_25
REMARK    3  A    between atoms: N_5  and  C_13
REMARK    4  A    between atoms: C_9  and  C_14
REMARK    5  A    between atoms: C_13  and  C_15
REMARK    6  A    between atoms: C_18  and  C_22
REMARK    7  A    between atoms: C_21  and  C_25
REMARK                            x       y       z     vdW  Elec       q    Type
REMARK                         _______ _______ _______ _____ _____    ______ ____
ROOT
ATOM      5  N   UNL     1      10.483   5.718   5.995  0.00  0.00    -0.285 NA
ATOM      9  C   UNL     1      10.257   6.898   6.855  0.00  0.00    +0.149 C 
ATOM     10  C   UNL     1      10.049   6.323   8.268  0.00  0.00    +0.061 C 
ATOM     11  C   UNL     1      10.130   4.811   8.094  0.00  0.00    +0.130 C 
ATOM     12  C   UNL     1       9.784   4.603   6.631  0.00  0.00    +0.116 C 
ENDROOT
BRANCH   9  14
ATOM      2  O   UNL     1      11.080   9.193   7.029  0.00  0.00    -0.336 OA
ATOM      6  N   UNL     1      12.663   7.690   6.532  0.00  0.00    -0.190 NA
ATOM      7  N   UNL     1      12.276   9.912   6.913  0.00  0.00    -0.056 NA
ATOM     14  C   UNL     1      11.396   7.894   6.789  0.00  0.00    +0.245 A 
ATOM     18  C   UNL     1      13.163   8.956   6.619  0.00  0.00    +0.204 A 
BRANCH  18  22
ATOM      8  N   UNL     1      16.372  10.827   6.448  0.00  0.00    -0.263 NA
ATOM     22  C   UNL     1      14.554   9.233   6.408  0.00  0.00    +0.041 A 
ATOM     23  C   UNL     1      15.426   8.240   5.973  0.00  0.00    +0.014 A 
ATOM     24  C   UNL     1      15.073  10.499   6.628  0.00  0.00    +0.122 A 
ATOM     26  C   UNL     1      16.769   8.539   5.777  0.00  0.00    +0.020 A 
ATOM     27  C   UNL     1      17.188   9.835   6.026  0.00  0.00    +0.111 A 
ENDBRANCH  18  22
ENDBRANCH   9  14
BRANCH  11   1
ATOM      1  O   UNL     1       9.213   4.158   8.948  0.00  0.00    -0.390 OA
ATOM     28  H   UNL     1       8.896   3.364   8.486  0.00  0.00    +0.210 HD
ENDBRANCH  11   1
BRANCH   5  13
ATOM     13  C   UNL     1      10.053   5.920   4.617  0.00  0.00    +0.120 C 
BRANCH  13  15
ATOM     15  C   UNL     1      11.054   5.377   3.633  0.00  0.00    -0.033 A 
ATOM     16  C   UNL     1      12.112   6.178   3.202  0.00  0.00    +0.006 A 
ATOM     17  C   UNL     1      10.926   4.073   3.153  0.00  0.00    +0.006 A 
ATOM     19  C   UNL     1      13.040   5.676   2.289  0.00  0.00    +0.015 A 
ATOM     20  C   UNL     1      11.854   3.572   2.241  0.00  0.00    +0.015 A 
ATOM     21  C   UNL     1      12.912   4.373   1.809  0.00  0.00    +0.059 A 
BRANCH  21  25
ATOM      4  O   UNL     1      13.811   3.962  -0.369  0.00  0.00    -0.245 OA
ATOM     25  C   UNL     1      13.880   3.848   0.859  0.00  0.00    +0.337 C 
BRANCH  25   3
ATOM      3  O   UNL     1      14.907   3.196   1.469  0.00  0.00    -0.477 OA
ATOM     29  H   UNL     1      15.766   3.377   1.030  0.00  0.00    +0.295 HD
ENDBRANCH  25   3
ENDBRANCH  21  25
ENDBRANCH  13  15
ENDBRANCH   5  13
TORSDOF 7
ENDMDL
