MODEL 1
REMARK VINA RESULT:      -7.6      0.000      0.000
REMARK  Name = 11886439
REMARK  4 active torsions:
REMARK  status: ('A' for Active; 'I' for Inactive)
REMARK    1  A    between atoms: N_4  and  C_14
REMARK    2  A    between atoms: N_6  and  C_17
REMARK    3  A    between atoms: C_14  and  C_19
REMARK    4  A    between atoms: C_24  and  C_26
REMARK                            x       y       z     vdW  Elec       q    Type
REMARK                         _______ _______ _______ _____ _____    ______ ____
ROOT
ATOM      2  O   UNL     1      -6.450 -11.164  11.093  0.00  0.00    -0.266 OA
ATOM      4  N   UNL     1      -3.152 -11.214  14.868  0.00  0.00    -0.297 NA
ATOM      5  N   UNL     1      -4.271 -11.444  11.889  0.00  0.00    -0.310 N 
ATOM      7  C   UNL     1      -3.618 -13.291  13.542  0.00  0.00    +0.024 C 
ATOM      8  C   UNL     1      -1.921 -11.712  12.752  0.00  0.00    +0.050 C 
ATOM      9  C   UNL     1      -2.251 -13.197  12.877  0.00  0.00    +0.017 C 
ATOM     10  C   UNL     1      -3.578 -12.618  14.930  0.00  0.00    +0.090 C 
ATOM     11  C   UNL     1      -1.871 -11.073  14.158  0.00  0.00    +0.094 C 
ATOM     12  C   UNL     1      -4.665 -12.661  12.612  0.00  0.00    +0.130 C 
ATOM     13  C   UNL     1      -2.943 -11.004  11.882  0.00  0.00    +0.026 A 
ATOM     15  C   UNL     1      -2.583  -9.953  11.126  0.00  0.00    +0.024 A 
ATOM     16  C   UNL     1      -5.272 -10.804  11.131  0.00  0.00    +0.273 A 
ATOM     17  C   UNL     1      -4.834  -9.624  10.321  0.00  0.00    +0.099 A 
ATOM     18  C   UNL     1      -3.551  -9.250  10.332  0.00  0.00    +0.030 A 
ENDROOT
BRANCH  17   6
ATOM      3  O   UNL     1      -5.506 -10.149   7.596  0.00  0.00    -0.270 OA
ATOM      6  N   UNL     1      -5.777  -8.969   9.583  0.00  0.00    -0.277 N 
ATOM     24  C   UNL     1      -6.058  -9.273   8.258  0.00  0.00    +0.248 C 
ATOM     32  H   UNL     1      -6.166  -8.140  10.018  0.00  0.00    +0.155 HD
BRANCH  24  26
ATOM     26  C   UNL     1      -7.135  -8.467   7.626  0.00  0.00    +0.037 A 
ATOM     27  C   UNL     1      -7.440  -8.687   6.299  0.00  0.00    +0.013 A 
ATOM     28  C   UNL     1      -7.795  -7.525   8.387  0.00  0.00    +0.013 A 
ATOM     29  C   UNL     1      -8.450  -7.931   5.706  0.00  0.00    +0.001 A 
ATOM     30  C   UNL     1      -8.806  -6.769   7.795  0.00  0.00    +0.001 A 
ATOM     31  C   UNL     1      -9.134  -6.972   6.454  0.00  0.00    +0.000 A 
ENDBRANCH  24  26
ENDBRANCH  17   6
BRANCH   4  14
ATOM     14  C   UNL     1      -3.075 -10.630  16.204  0.00  0.00    +0.119 C 
BRANCH  14  19
ATOM      1  F   UNL     1      -8.162  -9.993  18.507  0.00  0.00    -0.205 F 
ATOM     19  C   UNL     1      -4.438 -10.458  16.821  0.00  0.00    -0.033 A 
ATOM     20  C   UNL     1      -5.428  -9.791  16.115  0.00  0.00    +0.008 A 
ATOM     21  C   UNL     1      -4.684 -10.972  18.087  0.00  0.00    +0.008 A 
ATOM     22  C   UNL     1      -6.691  -9.633  16.687  0.00  0.00    +0.038 A 
ATOM     23  C   UNL     1      -5.946 -10.815  18.659  0.00  0.00    +0.038 A 
ATOM     25  C   UNL     1      -6.950 -10.145  17.958  0.00  0.00    +0.123 A 
ENDBRANCH  14  19
ENDBRANCH   4  14
TORSDOF 4
ENDMDL
MODEL 2
REMARK VINA RESULT:      -7.3      5.623     10.793
REMARK  Name = 11886439
REMARK  4 active torsions:
REMARK  status: ('A' for Active; 'I' for Inactive)
REMARK    1  A    between atoms: N_4  and  C_14
REMARK    2  A    between atoms: N_6  and  C_17
REMARK    3  A    between atoms: C_14  and  C_19
REMARK    4  A    between atoms: C_24  and  C_26
REMARK                            x       y       z     vdW  Elec       q    Type
REMARK                         _______ _______ _______ _____ _____    ______ ____
ROOT
ATOM      2  O   UNL     1     -10.591  -9.482  13.980  0.00  0.00    -0.266 OA
ATOM      4  N   UNL     1     -13.170  -5.751  11.844  0.00  0.00    -0.297 NA
ATOM      5  N   UNL     1     -12.189  -7.781  14.101  0.00  0.00    -0.310 N 
ATOM      7  C   UNL     1     -14.342  -7.791  12.712  0.00  0.00    +0.024 C 
ATOM      8  C   UNL     1     -13.885  -5.925  14.232  0.00  0.00    +0.050 C 
ATOM      9  C   UNL     1     -14.918  -6.990  13.873  0.00  0.00    +0.017 C 
ATOM     10  C   UNL     1     -14.072  -6.860  11.511  0.00  0.00    +0.090 C 
ATOM     11  C   UNL     1     -13.651  -5.001  13.015  0.00  0.00    +0.094 C 
ATOM     12  C   UNL     1     -13.077  -8.517  13.191  0.00  0.00    +0.130 C 
ATOM     13  C   UNL     1     -12.582  -6.566  14.672  0.00  0.00    +0.026 A 
ATOM     15  C   UNL     1     -11.803  -5.964  15.586  0.00  0.00    +0.024 A 
ATOM     16  C   UNL     1     -10.972  -8.405  14.443  0.00  0.00    +0.273 A 
ATOM     17  C   UNL     1     -10.122  -7.691  15.448  0.00  0.00    +0.099 A 
ATOM     18  C   UNL     1     -10.547  -6.540  15.978  0.00  0.00    +0.030 A 
ENDROOT
BRANCH  17   6
ATOM      3  O   UNL     1      -9.620  -9.270  17.773  0.00  0.00    -0.270 OA
ATOM      6  N   UNL     1      -8.931  -8.257  15.795  0.00  0.00    -0.277 N 
ATOM     24  C   UNL     1      -8.751  -9.017  16.943  0.00  0.00    +0.248 C 
ATOM     32  H   UNL     1      -8.136  -7.968  15.236  0.00  0.00    +0.155 HD
BRANCH  24  26
ATOM     26  C   UNL     1      -7.386  -9.572  17.141  0.00  0.00    +0.037 A 
ATOM     27  C   UNL     1      -6.484  -9.511  16.101  0.00  0.00    +0.013 A 
ATOM     28  C   UNL     1      -7.066 -10.130  18.362  0.00  0.00    +0.013 A 
ATOM     29  C   UNL     1      -5.204 -10.032  16.287  0.00  0.00    +0.001 A 
ATOM     30  C   UNL     1      -5.786 -10.649  18.549  0.00  0.00    +0.001 A 
ATOM     31  C   UNL     1      -4.854 -10.601  17.512  0.00  0.00    +0.000 A 
ENDBRANCH  24  26
ENDBRANCH  17   6
BRANCH   4  14
ATOM     14  C   UNL     1     -12.982  -4.865  10.698  0.00  0.00    +0.119 C 
BRANCH  14  19
ATOM      1  F   UNL     1      -8.278  -6.066   7.867  0.00  0.00    -0.205 F 
ATOM     19  C   UNL     1     -11.722  -5.187   9.940  0.00  0.00    -0.033 A 
ATOM     20  C   UNL     1     -11.365  -6.513   9.740  0.00  0.00    +0.008 A 
ATOM     21  C   UNL     1     -10.936  -4.153   9.451  0.00  0.00    +0.008 A 
ATOM     22  C   UNL     1     -10.197  -6.810   9.037  0.00  0.00    +0.038 A 
ATOM     23  C   UNL     1      -9.769  -4.450   8.748  0.00  0.00    +0.038 A 
ATOM     25  C   UNL     1      -9.400  -5.780   8.541  0.00  0.00    +0.123 A 
ENDBRANCH  14  19
ENDBRANCH   4  14
TORSDOF 4
ENDMDL
MODEL 3
REMARK VINA RESULT:      -7.2     23.253     25.426
REMARK  Name = 11886439
REMARK  4 active torsions:
REMARK  status: ('A' for Active; 'I' for Inactive)
REMARK    1  A    between atoms: N_4  and  C_14
REMARK    2  A    between atoms: N_6  and  C_17
REMARK    3  A    between atoms: C_14  and  C_19
REMARK    4  A    between atoms: C_24  and  C_26
REMARK                            x       y       z     vdW  Elec       q    Type
REMARK                         _______ _______ _______ _____ _____    ______ ____
ROOT
ATOM      2  O   UNL     1      10.291   4.190   2.505  0.00  0.00    -0.266 OA
ATOM      4  N   UNL     1       9.258   7.882   5.735  0.00  0.00    -0.297 NA
ATOM      5  N   UNL     1      10.915   5.577   4.279  0.00  0.00    -0.310 N 
ATOM      7  C   UNL     1       9.725   5.557   6.549  0.00  0.00    +0.024 C 
ATOM      8  C   UNL     1      11.590   7.098   6.169  0.00  0.00    +0.050 C 
ATOM      9  C   UNL     1      11.077   5.999   7.094  0.00  0.00    +0.017 C 
ATOM     10  C   UNL     1       8.750   6.753   6.523  0.00  0.00    +0.090 C 
ATOM     11  C   UNL     1      10.601   8.286   6.179  0.00  0.00    +0.094 C 
ATOM     12  C   UNL     1       9.931   4.935   5.161  0.00  0.00    +0.130 C 
ATOM     13  C   UNL     1      11.775   6.572   4.758  0.00  0.00    +0.026 A 
ATOM     15  C   UNL     1      12.740   7.069   3.966  0.00  0.00    +0.024 A 
ATOM     16  C   UNL     1      11.014   5.076   2.966  0.00  0.00    +0.273 A 
ATOM     17  C   UNL     1      12.088   5.672   2.110  0.00  0.00    +0.099 A 
ATOM     18  C   UNL     1      12.896   6.609   2.615  0.00  0.00    +0.030 A 
ENDROOT
BRANCH  17   6
ATOM      3  O   UNL     1      13.601   3.408   1.252  0.00  0.00    -0.270 OA
ATOM      6  N   UNL     1      12.207   5.222   0.828  0.00  0.00    -0.277 N 
ATOM     24  C   UNL     1      12.960   4.111   0.474  0.00  0.00    +0.248 C 
ATOM     32  H   UNL     1      11.827   5.837   0.117  0.00  0.00    +0.155 HD
BRANCH  24  26
ATOM     26  C   UNL     1      12.952   3.758  -0.970  0.00  0.00    +0.037 A 
ATOM     27  C   UNL     1      13.699   4.517  -1.846  0.00  0.00    +0.013 A 
ATOM     28  C   UNL     1      12.196   2.682  -1.388  0.00  0.00    +0.013 A 
ATOM     29  C   UNL     1      13.691   4.186  -3.200  0.00  0.00    +0.001 A 
ATOM     30  C   UNL     1      12.188   2.350  -2.742  0.00  0.00    +0.001 A 
ATOM     31  C   UNL     1      12.935   3.102  -3.649  0.00  0.00    +0.000 A 
ENDBRANCH  24  26
ENDBRANCH  17   6
BRANCH   4  14
ATOM     14  C   UNL     1       8.332   9.011   5.779  0.00  0.00    +0.119 C 
BRANCH  14  19
ATOM      1  F   UNL     1       5.963   9.978   0.776  0.00  0.00    -0.205 F 
ATOM     19  C   UNL     1       7.698   9.270   4.439  0.00  0.00    -0.033 A 
ATOM     20  C   UNL     1       8.287   8.754   3.293  0.00  0.00    +0.008 A 
ATOM     21  C   UNL     1       6.532  10.021   4.368  0.00  0.00    +0.008 A 
ATOM     22  C   UNL     1       7.698   8.995   2.052  0.00  0.00    +0.038 A 
ATOM     23  C   UNL     1       5.944  10.260   3.127  0.00  0.00    +0.038 A 
ATOM     25  C   UNL     1       6.527   9.747   1.968  0.00  0.00    +0.123 A 
ENDBRANCH  14  19
ENDBRANCH   4  14
TORSDOF 4
ENDMDL
MODEL 4
REMARK VINA RESULT:      -7.1      3.849      7.128
REMARK  Name = 11886439
REMARK  4 active torsions:
REMARK  status: ('A' for Active; 'I' for Inactive)
REMARK    1  A    between atoms: N_4  and  C_14
REMARK    2  A    between atoms: N_6  and  C_17
REMARK    3  A    between atoms: C_14  and  C_19
REMARK    4  A    between atoms: C_24  and  C_26
REMARK                            x       y       z     vdW  Elec       q    Type
REMARK                         _______ _______ _______ _____ _____    ______ ____
ROOT
ATOM      2  O   UNL     1      -7.025 -12.120  14.716  0.00  0.00    -0.266 OA
ATOM      4  N   UNL     1      -9.896 -10.953  18.657  0.00  0.00    -0.297 NA
ATOM      5  N   UNL     1      -7.381 -12.044  17.025  0.00  0.00    -0.310 N 
ATOM      7  C   UNL     1      -9.266 -13.334  18.186  0.00  0.00    +0.024 C 
ATOM      8  C   UNL     1      -7.760 -11.929  19.511  0.00  0.00    +0.050 C 
ATOM      9  C   UNL     1      -8.322 -13.341  19.382  0.00  0.00    +0.017 C 
ATOM     10  C   UNL     1     -10.399 -12.311  18.414  0.00  0.00    +0.090 C 
ATOM     11  C   UNL     1      -8.916 -10.932  19.755  0.00  0.00    +0.094 C 
ATOM     12  C   UNL     1      -8.454 -13.042  16.917  0.00  0.00    +0.130 C 
ATOM     13  C   UNL     1      -6.979 -11.544  18.268  0.00  0.00    +0.026 A 
ATOM     15  C   UNL     1      -5.925 -10.716  18.355  0.00  0.00    +0.024 A 
ATOM     16  C   UNL     1      -6.718 -11.693  15.831  0.00  0.00    +0.273 A 
ATOM     17  C   UNL     1      -5.563 -10.751  15.969  0.00  0.00    +0.099 A 
ATOM     18  C   UNL     1      -5.205 -10.312  17.180  0.00  0.00    +0.030 A 
ENDROOT
BRANCH  17   6
ATOM      3  O   UNL     1      -3.376 -12.130  14.759  0.00  0.00    -0.270 OA
ATOM      6  N   UNL     1      -4.904 -10.377  14.835  0.00  0.00    -0.277 N 
ATOM     24  C   UNL     1      -3.845 -11.094  14.295  0.00  0.00    +0.248 C 
ATOM     32  H   UNL     1      -5.139  -9.456  14.483  0.00  0.00    +0.155 HD
BRANCH  24  26
ATOM     26  C   UNL     1      -3.267 -10.544  13.040  0.00  0.00    +0.037 A 
ATOM     27  C   UNL     1      -4.104 -10.297  11.973  0.00  0.00    +0.013 A 
ATOM     28  C   UNL     1      -1.910 -10.298  12.984  0.00  0.00    +0.013 A 
ATOM     29  C   UNL     1      -3.563  -9.780  10.796  0.00  0.00    +0.001 A 
ATOM     30  C   UNL     1      -1.368  -9.781  11.808  0.00  0.00    +0.001 A 
ATOM     31  C   UNL     1      -2.194  -9.522  10.714  0.00  0.00    +0.000 A 
ENDBRANCH  24  26
ENDBRANCH  17   6
BRANCH   4  14
ATOM     14  C   UNL     1     -10.994 -10.027  18.920  0.00  0.00    +0.119 C 
BRANCH  14  19
ATOM      1  F   UNL     1     -11.485  -6.157  14.874  0.00  0.00    -0.205 F 
ATOM     19  C   UNL     1     -11.126  -8.990  17.836  0.00  0.00    -0.033 A 
ATOM     20  C   UNL     1     -12.357  -8.789  17.229  0.00  0.00    +0.008 A 
ATOM     21  C   UNL     1     -10.013  -8.250  17.460  0.00  0.00    +0.008 A 
ATOM     22  C   UNL     1     -12.478  -7.828  16.225  0.00  0.00    +0.038 A 
ATOM     23  C   UNL     1     -10.134  -7.290  16.457  0.00  0.00    +0.038 A 
ATOM     25  C   UNL     1     -11.368  -7.079  15.839  0.00  0.00    +0.123 A 
ENDBRANCH  14  19
ENDBRANCH   4  14
TORSDOF 4
ENDMDL
MODEL 5
REMARK VINA RESULT:      -7.0     19.103     21.656
REMARK  Name = 11886439
REMARK  4 active torsions:
REMARK  status: ('A' for Active; 'I' for Inactive)
REMARK    1  A    between atoms: N_4  and  C_14
REMARK    2  A    between atoms: N_6  and  C_17
REMARK    3  A    between atoms: C_14  and  C_19
REMARK    4  A    between atoms: C_24  and  C_26
REMARK                            x       y       z     vdW  Elec       q    Type
REMARK                         _______ _______ _______ _____ _____    ______ ____
ROOT
ATOM      2  O   UNL     1      -6.766   9.609   4.871  0.00  0.00    -0.266 OA
ATOM      4  N   UNL     1      -1.876  10.283   3.998  0.00  0.00    -0.297 NA
ATOM      5  N   UNL     1      -4.528   9.202   5.404  0.00  0.00    -0.310 N 
ATOM      7  C   UNL     1      -2.915  11.049   6.148  0.00  0.00    +0.024 C 
ATOM      8  C   UNL     1      -2.113   8.743   5.951  0.00  0.00    +0.050 C 
ATOM      9  C   UNL     1      -2.217   9.928   6.907  0.00  0.00    +0.017 C 
ATOM     10  C   UNL     1      -2.098  11.425   4.893  0.00  0.00    +0.090 C 
ATOM     11  C   UNL     1      -1.277   9.147   4.716  0.00  0.00    +0.094 C 
ATOM     12  C   UNL     1      -4.343  10.602   5.809  0.00  0.00    +0.130 C 
ATOM     13  C   UNL     1      -3.491   8.270   5.529  0.00  0.00    +0.026 A 
ATOM     15  C   UNL     1      -3.713   6.973   5.257  0.00  0.00    +0.024 A 
ATOM     16  C   UNL     1      -5.819   8.828   4.981  0.00  0.00    +0.273 A 
ATOM     17  C   UNL     1      -6.018   7.378   4.666  0.00  0.00    +0.099 A 
ATOM     18  C   UNL     1      -5.002   6.522   4.816  0.00  0.00    +0.030 A 
ENDROOT
BRANCH  17   6
ATOM      3  O   UNL     1      -8.052   6.187   6.275  0.00  0.00    -0.270 OA
ATOM      6  N   UNL     1      -7.250   6.979   4.240  0.00  0.00    -0.277 N 
ATOM     24  C   UNL     1      -8.199   6.405   5.075  0.00  0.00    +0.248 C 
ATOM     32  H   UNL     1      -7.385   6.992   3.235  0.00  0.00    +0.155 HD
BRANCH  24  26
ATOM     26  C   UNL     1      -9.495   6.056   4.435  0.00  0.00    +0.037 A 
ATOM     27  C   UNL     1     -10.638   6.047   5.206  0.00  0.00    +0.013 A 
ATOM     28  C   UNL     1      -9.512   5.753   3.089  0.00  0.00    +0.013 A 
ATOM     29  C   UNL     1     -11.854   5.721   4.607  0.00  0.00    +0.001 A 
ATOM     30  C   UNL     1     -10.728   5.427   2.489  0.00  0.00    +0.001 A 
ATOM     31  C   UNL     1     -11.898   5.410   3.247  0.00  0.00    +0.000 A 
ENDBRANCH  24  26
ENDBRANCH  17   6
BRANCH   4  14
ATOM     14  C   UNL     1      -1.056  10.667   2.852  0.00  0.00    +0.119 C 
BRANCH  14  19
ATOM      1  F   UNL     1      -3.561   9.425  -2.023  0.00  0.00    -0.205 F 
ATOM     19  C   UNL     1      -1.727  10.335   1.545  0.00  0.00    -0.033 A 
ATOM     20  C   UNL     1      -1.067   9.535   0.623  0.00  0.00    +0.008 A 
ATOM     21  C   UNL     1      -2.996  10.832   1.283  0.00  0.00    +0.008 A 
ATOM     22  C   UNL     1      -1.690   9.227  -0.587  0.00  0.00    +0.038 A 
ATOM     23  C   UNL     1      -3.618  10.524   0.074  0.00  0.00    +0.038 A 
ATOM     25  C   UNL     1      -2.964   9.720  -0.861  0.00  0.00    +0.123 A 
ENDBRANCH  14  19
ENDBRANCH   4  14
TORSDOF 4
ENDMDL
MODEL 6
REMARK VINA RESULT:      -6.9     25.686     28.352
REMARK  Name = 11886439
REMARK  4 active torsions:
REMARK  status: ('A' for Active; 'I' for Inactive)
REMARK    1  A    between atoms: N_4  and  C_14
REMARK    2  A    between atoms: N_6  and  C_17
REMARK    3  A    between atoms: C_14  and  C_19
REMARK    4  A    between atoms: C_24  and  C_26
REMARK                            x       y       z     vdW  Elec       q    Type
REMARK                         _______ _______ _______ _____ _____    ______ ____
ROOT
ATOM      2  O   UNL     1      14.708   6.939   6.507  0.00  0.00    -0.266 OA
ATOM      4  N   UNL     1      10.732   5.721   3.709  0.00  0.00    -0.297 NA
ATOM      5  N   UNL     1      12.918   7.554   5.137  0.00  0.00    -0.310 N 
ATOM      7  C   UNL     1      10.471   7.128   5.768  0.00  0.00    +0.024 C 
ATOM      8  C   UNL     1      11.006   8.203   3.633  0.00  0.00    +0.050 C 
ATOM      9  C   UNL     1      10.193   8.359   4.915  0.00  0.00    +0.017 C 
ATOM     10  C   UNL     1      10.056   5.852   5.005  0.00  0.00    +0.090 C 
ATOM     11  C   UNL     1      10.554   6.927   2.886  0.00  0.00    +0.094 C 
ATOM     12  C   UNL     1      11.955   7.123   6.160  0.00  0.00    +0.130 C 
ATOM     13  C   UNL     1      12.490   8.141   3.941  0.00  0.00    +0.026 A 
ATOM     15  C   UNL     1      13.388   8.627   3.068  0.00  0.00    +0.024 A 
ATOM     16  C   UNL     1      14.284   7.434   5.461  0.00  0.00    +0.273 A 
ATOM     17  C   UNL     1      15.253   7.967   4.451  0.00  0.00    +0.099 A 
ATOM     18  C   UNL     1      14.797   8.536   3.331  0.00  0.00    +0.030 A 
ENDROOT
BRANCH  17   6
ATOM      3  O   UNL     1      16.851   9.883   5.838  0.00  0.00    -0.270 OA
ATOM      6  N   UNL     1      16.585   7.859   4.723  0.00  0.00    -0.277 N 
ATOM     24  C   UNL     1      17.308   8.828   5.404  0.00  0.00    +0.248 C 
ATOM     32  H   UNL     1      17.057   7.086   4.266  0.00  0.00    +0.155 HD
BRANCH  24  26
ATOM     26  C   UNL     1      18.746   8.523   5.627  0.00  0.00    +0.037 A 
ATOM     27  C   UNL     1      19.317   8.851   6.838  0.00  0.00    +0.013 A 
ATOM     28  C   UNL     1      19.463   7.919   4.615  0.00  0.00    +0.013 A 
ATOM     29  C   UNL     1      20.665   8.564   7.048  0.00  0.00    +0.001 A 
ATOM     30  C   UNL     1      20.811   7.631   4.824  0.00  0.00    +0.001 A 
ATOM     31  C   UNL     1      21.412   7.954   6.040  0.00  0.00    +0.000 A 
ENDBRANCH  24  26
ENDBRANCH  17   6
BRANCH   4  14
ATOM     14  C   UNL     1      10.273   4.531   2.997  0.00  0.00    +0.119 C 
BRANCH  14  19
ATOM      1  F   UNL     1      13.570   3.313  -1.388  0.00  0.00    -0.205 F 
ATOM     19  C   UNL     1      11.156   4.204   1.822  0.00  0.00    -0.033 A 
ATOM     20  C   UNL     1      10.664   4.359   0.534  0.00  0.00    +0.008 A 
ATOM     21  C   UNL     1      12.450   3.754   2.045  0.00  0.00    +0.008 A 
ATOM     22  C   UNL     1      11.483   4.057  -0.554  0.00  0.00    +0.038 A 
ATOM     23  C   UNL     1      13.268   3.451   0.957  0.00  0.00    +0.038 A 
ATOM     25  C   UNL     1      12.784   3.603  -0.343  0.00  0.00    +0.123 A 
ENDBRANCH  14  19
ENDBRANCH   4  14
TORSDOF 4
ENDMDL
MODEL 7
REMARK VINA RESULT:      -6.8      3.437      6.184
REMARK  Name = 11886439
REMARK  4 active torsions:
REMARK  status: ('A' for Active; 'I' for Inactive)
REMARK    1  A    between atoms: N_4  and  C_14
REMARK    2  A    between atoms: N_6  and  C_17
REMARK    3  A    between atoms: C_14  and  C_19
REMARK    4  A    between atoms: C_24  and  C_26
REMARK                            x       y       z     vdW  Elec       q    Type
REMARK                         _______ _______ _______ _____ _____    ______ ____
ROOT
ATOM      2  O   UNL     1      -7.138 -12.308  14.234  0.00  0.00    -0.266 OA
ATOM      4  N   UNL     1      -9.438 -10.860  18.446  0.00  0.00    -0.297 NA
ATOM      5  N   UNL     1      -7.127 -11.966  16.545  0.00  0.00    -0.310 N 
ATOM      7  C   UNL     1      -8.676 -13.231  18.147  0.00  0.00    +0.024 C 
ATOM      8  C   UNL     1      -7.114 -11.565  19.031  0.00  0.00    +0.050 C 
ATOM      9  C   UNL     1      -7.557 -13.019  19.159  0.00  0.00    +0.017 C 
ATOM     10  C   UNL     1      -9.847 -12.270  18.446  0.00  0.00    +0.090 C 
ATOM     11  C   UNL     1      -8.302 -10.631  19.352  0.00  0.00    +0.094 C 
ATOM     12  C   UNL     1      -8.107 -13.044  16.734  0.00  0.00    +0.130 C 
ATOM     13  C   UNL     1      -6.579 -11.286  17.638  0.00  0.00    +0.026 A 
ATOM     15  C   UNL     1      -5.605 -10.380  17.451  0.00  0.00    +0.024 A 
ATOM     16  C   UNL     1      -6.698 -11.723  15.225  0.00  0.00    +0.273 A 
ATOM     17  C   UNL     1      -5.627 -10.691  15.058  0.00  0.00    +0.099 A 
ATOM     18  C   UNL     1      -5.122 -10.078  16.133  0.00  0.00    +0.030 A 
ENDROOT
BRANCH  17   6
ATOM      3  O   UNL     1      -6.994  -9.113  13.112  0.00  0.00    -0.270 OA
ATOM      6  N   UNL     1      -5.193 -10.417  13.794  0.00  0.00    -0.277 N 
ATOM     24  C   UNL     1      -5.907  -9.640  12.892  0.00  0.00    +0.248 C 
ATOM     32  H   UNL     1      -4.377 -10.940  13.495  0.00  0.00    +0.155 HD
BRANCH  24  26
ATOM     26  C   UNL     1      -5.263  -9.432  11.568  0.00  0.00    +0.037 A 
ATOM     27  C   UNL     1      -6.016  -8.920  10.534  0.00  0.00    +0.013 A 
ATOM     28  C   UNL     1      -3.931  -9.760  11.418  0.00  0.00    +0.013 A 
ATOM     29  C   UNL     1      -5.412  -8.725   9.292  0.00  0.00    +0.001 A 
ATOM     30  C   UNL     1      -3.326  -9.564  10.177  0.00  0.00    +0.001 A 
ATOM     31  C   UNL     1      -4.066  -9.047   9.114  0.00  0.00    +0.000 A 
ENDBRANCH  24  26
ENDBRANCH  17   6
BRANCH   4  14
ATOM     14  C   UNL     1     -10.561  -9.989  18.784  0.00  0.00    +0.119 C 
BRANCH  14  19
ATOM      1  F   UNL     1     -11.575  -6.215  14.745  0.00  0.00    -0.205 F 
ATOM     19  C   UNL     1     -10.832  -8.978  17.703  0.00  0.00    -0.033 A 
ATOM     20  C   UNL     1      -9.789  -8.206  17.212  0.00  0.00    +0.008 A 
ATOM     21  C   UNL     1     -12.122  -8.833  17.211  0.00  0.00    +0.008 A 
ATOM     22  C   UNL     1     -10.042  -7.269  16.209  0.00  0.00    +0.038 A 
ATOM     23  C   UNL     1     -12.375  -7.897  16.209  0.00  0.00    +0.038 A 
ATOM     25  C   UNL     1     -11.333  -7.115  15.708  0.00  0.00    +0.123 A 
ENDBRANCH  14  19
ENDBRANCH   4  14
TORSDOF 4
ENDMDL
MODEL 8
REMARK VINA RESULT:      -6.8     28.572     31.060
REMARK  Name = 11886439
REMARK  4 active torsions:
REMARK  status: ('A' for Active; 'I' for Inactive)
REMARK    1  A    between atoms: N_4  and  C_14
REMARK    2  A    between atoms: N_6  and  C_17
REMARK    3  A    between atoms: C_14  and  C_19
REMARK    4  A    between atoms: C_24  and  C_26
REMARK                            x       y       z     vdW  Elec       q    Type
REMARK                         _______ _______ _______ _____ _____    ______ ____
ROOT
ATOM      2  O   UNL     1      16.460   6.405  18.949  0.00  0.00    -0.266 OA
ATOM      4  N   UNL     1      13.786  10.539  18.003  0.00  0.00    -0.297 NA
ATOM      5  N   UNL     1      14.600   7.762  19.347  0.00  0.00    -0.310 N 
ATOM      7  C   UNL     1      12.832   8.262  17.561  0.00  0.00    +0.024 C 
ATOM      8  C   UNL     1      12.616   9.247  19.793  0.00  0.00    +0.050 C 
ATOM      9  C   UNL     1      11.888   8.406  18.748  0.00  0.00    +0.017 C 
ATOM     10  C   UNL     1      13.186   9.655  16.997  0.00  0.00    +0.090 C 
ATOM     11  C   UNL     1      12.940  10.638  19.203  0.00  0.00    +0.094 C 
ATOM     12  C   UNL     1      14.071   7.474  18.007  0.00  0.00    +0.130 C 
ATOM     13  C   UNL     1      13.885   8.554  20.253  0.00  0.00    +0.026 A 
ATOM     15  C   UNL     1      14.332   8.715  21.509  0.00  0.00    +0.024 A 
ATOM     16  C   UNL     1      15.804   7.124  19.705  0.00  0.00    +0.273 A 
ATOM     17  C   UNL     1      16.279   7.347  21.107  0.00  0.00    +0.099 A 
ATOM     18  C   UNL     1      15.555   8.099  21.942  0.00  0.00    +0.030 A 
ENDROOT
BRANCH  17   6
ATOM      3  O   UNL     1      18.858   8.572  21.126  0.00  0.00    -0.270 OA
ATOM      6  N   UNL     1      17.449   6.757  21.488  0.00  0.00    -0.277 N 
ATOM     24  C   UNL     1      18.674   7.408  21.475  0.00  0.00    +0.248 C 
ATOM     32  H   UNL     1      17.396   5.756  21.646  0.00  0.00    +0.155 HD
BRANCH  24  26
ATOM     26  C   UNL     1      19.835   6.609  21.948  0.00  0.00    +0.037 A 
ATOM     27  C   UNL     1      20.383   6.894  23.180  0.00  0.00    +0.013 A 
ATOM     28  C   UNL     1      20.326   5.606  21.138  0.00  0.00    +0.013 A 
ATOM     29  C   UNL     1      21.471   6.144  23.625  0.00  0.00    +0.001 A 
ATOM     30  C   UNL     1      21.415   4.855  21.582  0.00  0.00    +0.001 A 
ATOM     31  C   UNL     1      21.987   5.124  22.825  0.00  0.00    +0.000 A 
ENDBRANCH  24  26
ENDBRANCH  17   6
BRANCH   4  14
ATOM     14  C   UNL     1      14.058  11.861  17.445  0.00  0.00    +0.119 C 
BRANCH  14  19
ATOM      1  F   UNL     1      19.493  13.232  17.848  0.00  0.00    -0.205 F 
ATOM     19  C   UNL     1      15.514  12.227  17.552  0.00  0.00    -0.033 A 
ATOM     20  C   UNL     1      16.220  12.562  16.406  0.00  0.00    +0.008 A 
ATOM     21  C   UNL     1      16.128  12.227  18.797  0.00  0.00    +0.008 A 
ATOM     22  C   UNL     1      17.569  12.902  16.507  0.00  0.00    +0.038 A 
ATOM     23  C   UNL     1      17.476  12.567  18.898  0.00  0.00    +0.038 A 
ATOM     25  C   UNL     1      18.197  12.905  17.752  0.00  0.00    +0.123 A 
ENDBRANCH  14  19
ENDBRANCH   4  14
TORSDOF 4
ENDMDL
MODEL 9
REMARK VINA RESULT:      -6.7     23.923     26.088
REMARK  Name = 11886439
REMARK  4 active torsions:
REMARK  status: ('A' for Active; 'I' for Inactive)
REMARK    1  A    between atoms: N_4  and  C_14
REMARK    2  A    between atoms: N_6  and  C_17
REMARK    3  A    between atoms: C_14  and  C_19
REMARK    4  A    between atoms: C_24  and  C_26
REMARK                            x       y       z     vdW  Elec       q    Type
REMARK                         _______ _______ _______ _____ _____    ______ ____
ROOT
ATOM      2  O   UNL     1       9.858   6.831   1.148  0.00  0.00    -0.266 OA
ATOM      4  N   UNL     1      11.078   7.967   5.876  0.00  0.00    -0.297 NA
ATOM      5  N   UNL     1       9.700   6.428   3.445  0.00  0.00    -0.310 N 
ATOM      7  C   UNL     1       8.701   8.120   5.090  0.00  0.00    +0.024 C 
ATOM      8  C   UNL     1       9.562   5.982   5.919  0.00  0.00    +0.050 C 
ATOM      9  C   UNL     1       8.332   6.886   5.904  0.00  0.00    +0.017 C 
ATOM     10  C   UNL     1       9.905   8.839   5.737  0.00  0.00    +0.090 C 
ATOM     11  C   UNL     1      10.742   6.724   6.587  0.00  0.00    +0.094 C 
ATOM     12  C   UNL     1       8.979   7.693   3.642  0.00  0.00    +0.130 C 
ATOM     13  C   UNL     1       9.932   5.553   4.511  0.00  0.00    +0.026 A 
ATOM     15  C   UNL     1      10.495   4.353   4.291  0.00  0.00    +0.024 A 
ATOM     16  C   UNL     1      10.055   6.100   2.121  0.00  0.00    +0.273 A 
ATOM     17  C   UNL     1      10.701   4.764   1.922  0.00  0.00    +0.099 A 
ATOM     18  C   UNL     1      10.887   3.954   2.969  0.00  0.00    +0.030 A 
ENDROOT
BRANCH  17   6
ATOM      3  O   UNL     1      13.359   4.775   0.881  0.00  0.00    -0.270 OA
ATOM      6  N   UNL     1      11.072   4.416   0.656  0.00  0.00    -0.277 N 
ATOM     24  C   UNL     1      12.386   4.442   0.210  0.00  0.00    +0.248 C 
ATOM     32  H   UNL     1      10.307   4.273   0.006  0.00  0.00    +0.155 HD
BRANCH  24  26
ATOM     26  C   UNL     1      12.599   4.004  -1.195  0.00  0.00    +0.037 A 
ATOM     27  C   UNL     1      11.965   2.864  -1.641  0.00  0.00    +0.013 A 
ATOM     28  C   UNL     1      13.424   4.754  -2.007  0.00  0.00    +0.013 A 
ATOM     29  C   UNL     1      12.164   2.453  -2.959  0.00  0.00    +0.001 A 
ATOM     30  C   UNL     1      13.623   4.344  -3.325  0.00  0.00    +0.001 A 
ATOM     31  C   UNL     1      12.994   3.194  -3.801  0.00  0.00    +0.000 A 
ENDBRANCH  24  26
ENDBRANCH  17   6
BRANCH   4  14
ATOM     14  C   UNL     1      12.175   8.668   6.538  0.00  0.00    +0.119 C 
BRANCH  14  19
ATOM      1  F   UNL     1      17.122   7.608   4.091  0.00  0.00    -0.205 F 
ATOM     19  C   UNL     1      13.500   8.383   5.883  0.00  0.00    -0.033 A 
ATOM     20  C   UNL     1      13.531   7.723   4.663  0.00  0.00    +0.008 A 
ATOM     21  C   UNL     1      14.672   8.788   6.508  0.00  0.00    +0.008 A 
ATOM     22  C   UNL     1      14.759   7.460   4.056  0.00  0.00    +0.038 A 
ATOM     23  C   UNL     1      15.899   8.525   5.901  0.00  0.00    +0.038 A 
ATOM     25  C   UNL     1      15.943   7.861   4.674  0.00  0.00    +0.123 A 
ENDBRANCH  14  19
ENDBRANCH   4  14
TORSDOF 4
ENDMDL
MODEL 10
REMARK VINA RESULT:      -6.6      4.358      7.260
REMARK  Name = 11886439
REMARK  4 active torsions:
REMARK  status: ('A' for Active; 'I' for Inactive)
REMARK    1  A    between atoms: N_4  and  C_14
REMARK    2  A    between atoms: N_6  and  C_17
REMARK    3  A    between atoms: C_14  and  C_19
REMARK    4  A    between atoms: C_24  and  C_26
REMARK                            x       y       z     vdW  Elec       q    Type
REMARK                         _______ _______ _______ _____ _____    ______ ____
ROOT
ATOM      2  O   UNL     1      -7.478  -8.835  17.058  0.00  0.00    -0.266 OA
ATOM      4  N   UNL     1      -3.760 -11.562  15.092  0.00  0.00    -0.297 NA
ATOM      5  N   UNL     1      -6.420 -10.891  16.720  0.00  0.00    -0.310 N 
ATOM      7  C   UNL     1      -4.060 -11.400  17.576  0.00  0.00    +0.024 C 
ATOM      8  C   UNL     1      -5.291 -13.106  16.322  0.00  0.00    +0.050 C 
ATOM      9  C   UNL     1      -4.551 -12.841  17.630  0.00  0.00    +0.017 C 
ATOM     10  C   UNL     1      -3.122 -11.208  16.366  0.00  0.00    +0.090 C 
ATOM     11  C   UNL     1      -4.321 -12.921  15.133  0.00  0.00    +0.094 C 
ATOM     12  C   UNL     1      -5.275 -10.464  17.535  0.00  0.00    +0.130 C 
ATOM     13  C   UNL     1      -6.486 -12.182  16.183  0.00  0.00    +0.026 A 
ATOM     15  C   UNL     1      -7.589 -12.588  15.533  0.00  0.00    +0.024 A 
ATOM     16  C   UNL     1      -7.484  -9.975  16.590  0.00  0.00    +0.273 A 
ATOM     17  C   UNL     1      -8.685 -10.460  15.840  0.00  0.00    +0.099 A 
ATOM     18  C   UNL     1      -8.709 -11.707  15.359  0.00  0.00    +0.030 A 
ENDROOT
BRANCH  17   6
ATOM      3  O   UNL     1     -10.794 -10.006  17.710  0.00  0.00    -0.270 OA
ATOM      6  N   UNL     1      -9.731  -9.598  15.681  0.00  0.00    -0.277 N 
ATOM     24  C   UNL     1     -10.727  -9.421  16.631  0.00  0.00    +0.248 C 
ATOM     32  H   UNL     1      -9.820  -9.194  14.756  0.00  0.00    +0.155 HD
BRANCH  24  26
ATOM     26  C   UNL     1     -11.772  -8.420  16.292  0.00  0.00    +0.037 A 
ATOM     27  C   UNL     1     -11.413  -7.094  16.176  0.00  0.00    +0.013 A 
ATOM     28  C   UNL     1     -13.070  -8.851  16.103  0.00  0.00    +0.013 A 
ATOM     29  C   UNL     1     -12.393  -6.155  15.857  0.00  0.00    +0.001 A 
ATOM     30  C   UNL     1     -14.050  -7.912  15.783  0.00  0.00    +0.001 A 
ATOM     31  C   UNL     1     -13.712  -6.564  15.661  0.00  0.00    +0.000 A 
ENDBRANCH  24  26
ENDBRANCH  17   6
BRANCH   4  14
ATOM     14  C   UNL     1      -2.825 -11.417  13.979  0.00  0.00    +0.119 C 
BRANCH  14  19
ATOM      1  F   UNL     1      -5.074  -8.531   9.714  0.00  0.00    -0.205 F 
ATOM     19  C   UNL     1      -3.428 -10.644  12.837  0.00  0.00    -0.033 A 
ATOM     20  C   UNL     1      -4.759 -10.258  12.900  0.00  0.00    +0.008 A 
ATOM     21  C   UNL     1      -2.643 -10.328  11.737  0.00  0.00    +0.008 A 
ATOM     22  C   UNL     1      -5.317  -9.542  11.841  0.00  0.00    +0.038 A 
ATOM     23  C   UNL     1      -3.200  -9.612  10.678  0.00  0.00    +0.038 A 
ATOM     25  C   UNL     1      -4.538  -9.218  10.731  0.00  0.00    +0.123 A 
ENDBRANCH  14  19
ENDBRANCH   4  14
TORSDOF 4
ENDMDL
