MODEL 1
REMARK VINA RESULT:      -7.5      0.000      0.000
REMARK  Name = 45361404
REMARK  9 active torsions:
REMARK  status: ('A' for Active; 'I' for Inactive)
REMARK    1  A    between atoms: O_1  and  C_9
REMARK    2  A    between atoms: N_4  and  C_13
REMARK    3  A    between atoms: C_6  and  C_16
REMARK    4  A    between atoms: C_8  and  C_18
REMARK    5  A    between atoms: C_11  and  C_17
REMARK    6  A    between atoms: C_17  and  C_19
REMARK    7  A    between atoms: C_17  and  C_20
REMARK    8  A    between atoms: C_21  and  C_27
REMARK    9  A    between atoms: C_26  and  C_28
REMARK                            x       y       z     vdW  Elec       q    Type
REMARK                         _______ _______ _______ _____ _____    ______ ____
ROOT
ATOM      6  C   UNL     1      -5.152 -11.242  17.683  0.00  0.00    -0.027 C 
ATOM      7  C   UNL     1      -5.768 -10.537  16.429  0.00  0.00    +0.028 C 
ATOM      8  C   UNL     1      -7.337 -10.565  16.486  0.00  0.00    +0.012 C 
ATOM      9  C   UNL     1      -5.137 -11.076  15.112  0.00  0.00    +0.122 C 
ATOM     10  C   UNL     1      -3.612 -11.097  17.652  0.00  0.00    +0.007 C 
ATOM     11  C   UNL     1      -3.592 -11.025  15.129  0.00  0.00    +0.029 C 
ATOM     12  C   UNL     1      -5.665 -10.538  18.960  0.00  0.00    +0.009 C 
ATOM     13  C   UNL     1      -7.839  -9.921  17.810  0.00  0.00    +0.076 C 
ATOM     14  C   UNL     1      -2.988 -11.661  16.381  0.00  0.00    +0.007 C 
ATOM     15  C   UNL     1      -7.183 -10.510  19.059  0.00  0.00    +0.023 C 
ATOM     16  C   UNL     1      -5.509 -12.749  17.752  0.00  0.00    +0.011 C 
ATOM     18  C   UNL     1      -8.010  -9.862  15.295  0.00  0.00    +0.010 C 
ENDROOT
BRANCH  13   4
ATOM      3  O   UNL     1      -9.755  -7.795  17.587  0.00  0.00    -0.270 OA
ATOM      4  N   UNL     1      -9.276 -10.034  17.949  0.00  0.00    -0.308 N 
ATOM     21  C   UNL     1     -10.120  -8.944  17.824  0.00  0.00    +0.244 C 
ATOM     34  H   UNL     1      -9.636 -10.930  18.259  0.00  0.00    +0.149 HD
BRANCH  21  27
ATOM     27  C   UNL     1     -11.566  -9.221  18.021  0.00  0.00    +0.037 A 
ATOM     29  C   UNL     1     -11.995  -9.913  19.154  0.00  0.00    +0.013 A 
ATOM     30  C   UNL     1     -12.495  -8.787  17.076  0.00  0.00    +0.013 A 
ATOM     31  C   UNL     1     -13.353 -10.172  19.340  0.00  0.00    +0.001 A 
ATOM     32  C   UNL     1     -13.852  -9.046  17.262  0.00  0.00    +0.001 A 
ATOM     33  C   UNL     1     -14.282  -9.738  18.394  0.00  0.00    +0.000 A 
ENDBRANCH  21  27
ENDBRANCH  13   4
BRANCH   9   1
ATOM      1  O   UNL     1      -5.560 -10.266  14.015  0.00  0.00    -0.391 OA
ATOM     35  H   UNL     1      -4.817  -9.695  13.755  0.00  0.00    +0.210 HD
ENDBRANCH   9   1
BRANCH  11  17
ATOM     17  C   UNL     1      -2.988 -11.680  13.880  0.00  0.00    +0.078 C 
ATOM     19  C   UNL     1      -1.896 -12.665  14.252  0.00  0.00    +0.017 C 
BRANCH  17  20
ATOM      2  O   UNL     1      -1.690  -9.738  13.481  0.00  0.00    -0.275 OA
ATOM      5  N   UNL     1      -2.796 -10.640  11.648  0.00  0.00    -0.301 N 
ATOM     20  C   UNL     1      -2.429 -10.597  12.992  0.00  0.00    +0.219 C 
ATOM     22  C   UNL     1      -3.671 -11.646  11.037  0.00  0.00    +0.108 C 
ATOM     23  C   UNL     1      -2.262  -9.647  10.714  0.00  0.00    +0.108 C 
ATOM     24  C   UNL     1      -4.829 -10.981  10.295  0.00  0.00    +0.022 C 
ATOM     25  C   UNL     1      -3.390  -8.938   9.967  0.00  0.00    +0.022 C 
ATOM     26  C   UNL     1      -4.321  -9.948   9.279  0.00  0.00    -0.011 C 
ATOM     28  C   UNL     1      -5.488  -9.235   8.598  0.00  0.00    +0.007 C 
ENDBRANCH  17  20
ENDBRANCH  11  17
TORSDOF 5
ENDMDL
MODEL 2
REMARK VINA RESULT:      -7.3     28.909     32.206
REMARK  Name = 45361404
REMARK  9 active torsions:
REMARK  status: ('A' for Active; 'I' for Inactive)
REMARK    1  A    between atoms: O_1  and  C_9
REMARK    2  A    between atoms: N_4  and  C_13
REMARK    3  A    between atoms: C_6  and  C_16
REMARK    4  A    between atoms: C_8  and  C_18
REMARK    5  A    between atoms: C_11  and  C_17
REMARK    6  A    between atoms: C_17  and  C_19
REMARK    7  A    between atoms: C_17  and  C_20
REMARK    8  A    between atoms: C_21  and  C_27
REMARK    9  A    between atoms: C_26  and  C_28
REMARK                            x       y       z     vdW  Elec       q    Type
REMARK                         _______ _______ _______ _____ _____    ______ ____
ROOT
ATOM      6  C   UNL     1      19.243   9.627  22.025  0.00  0.00    -0.027 C 
ATOM      7  C   UNL     1      18.414   8.385  21.555  0.00  0.00    +0.028 C 
ATOM      8  C   UNL     1      19.352   7.286  20.941  0.00  0.00    +0.012 C 
ATOM      9  C   UNL     1      17.213   8.814  20.664  0.00  0.00    +0.122 C 
ATOM     10  C   UNL     1      18.306  10.638  22.726  0.00  0.00    +0.007 C 
ATOM     11  C   UNL     1      16.338   9.902  21.329  0.00  0.00    +0.029 C 
ATOM     12  C   UNL     1      20.298   9.168  23.058  0.00  0.00    +0.009 C 
ATOM     13  C   UNL     1      20.455   6.886  21.963  0.00  0.00    +0.076 C 
ATOM     14  C   UNL     1      17.151  11.090  21.841  0.00  0.00    +0.007 C 
ATOM     15  C   UNL     1      21.222   8.081  22.527  0.00  0.00    +0.023 C 
ATOM     16  C   UNL     1      19.958  10.342  20.850  0.00  0.00    +0.011 C 
ATOM     18  C   UNL     1      18.604   6.022  20.484  0.00  0.00    +0.010 C 
ENDROOT
BRANCH  13   4
ATOM      3  O   UNL     1      21.734   4.693  23.302  0.00  0.00    -0.270 OA
ATOM      4  N   UNL     1      21.407   5.960  21.387  0.00  0.00    -0.308 N 
ATOM     21  C   UNL     1      21.972   4.929  22.120  0.00  0.00    +0.244 C 
ATOM     34  H   UNL     1      21.737   6.164  20.451  0.00  0.00    +0.149 HD
BRANCH  21  27
ATOM     27  C   UNL     1      22.952   4.082  21.392  0.00  0.00    +0.037 A 
ATOM     29  C   UNL     1      23.800   4.654  20.445  0.00  0.00    +0.013 A 
ATOM     30  C   UNL     1      23.025   2.715  21.658  0.00  0.00    +0.013 A 
ATOM     31  C   UNL     1      24.721   3.859  19.763  0.00  0.00    +0.001 A 
ATOM     32  C   UNL     1      23.946   1.920  20.977  0.00  0.00    +0.001 A 
ATOM     33  C   UNL     1      24.794   2.492  20.029  0.00  0.00    +0.000 A 
ENDBRANCH  21  27
ENDBRANCH  13   4
BRANCH   9   1
ATOM      1  O   UNL     1      16.363   7.689  20.437  0.00  0.00    -0.391 OA
ATOM     35  H   UNL     1      16.181   7.268  21.295  0.00  0.00    +0.210 HD
ENDBRANCH   9   1
BRANCH  11  17
ATOM     17  C   UNL     1      15.239  10.403  20.383  0.00  0.00    +0.078 C 
ATOM     19  C   UNL     1      15.583  11.769  19.819  0.00  0.00    +0.017 C 
BRANCH  17  20
ATOM      2  O   UNL     1      13.806  11.318  22.035  0.00  0.00    -0.275 OA
ATOM      5  N   UNL     1      12.958   9.547  20.793  0.00  0.00    -0.301 N 
ATOM     20  C   UNL     1      13.941  10.470  21.147  0.00  0.00    +0.219 C 
ATOM     22  C   UNL     1      13.087   8.530  19.744  0.00  0.00    +0.108 C 
ATOM     23  C   UNL     1      11.656   9.575  21.460  0.00  0.00    +0.108 C 
ATOM     24  C   UNL     1      12.776   7.139  20.296  0.00  0.00    +0.022 C 
ATOM     25  C   UNL     1      11.316   8.208  22.050  0.00  0.00    +0.022 C 
ATOM     26  C   UNL     1      11.403   7.106  20.983  0.00  0.00    -0.011 C 
ATOM     28  C   UNL     1      11.136   5.733  21.597  0.00  0.00    +0.007 C 
ENDBRANCH  17  20
ENDBRANCH  11  17
TORSDOF 5
ENDMDL
MODEL 3
REMARK VINA RESULT:      -7.1     18.434     21.718
REMARK  Name = 45361404
REMARK  9 active torsions:
REMARK  status: ('A' for Active; 'I' for Inactive)
REMARK    1  A    between atoms: O_1  and  C_9
REMARK    2  A    between atoms: N_4  and  C_13
REMARK    3  A    between atoms: C_6  and  C_16
REMARK    4  A    between atoms: C_8  and  C_18
REMARK    5  A    between atoms: C_11  and  C_17
REMARK    6  A    between atoms: C_17  and  C_19
REMARK    7  A    between atoms: C_17  and  C_20
REMARK    8  A    between atoms: C_21  and  C_27
REMARK    9  A    between atoms: C_26  and  C_28
REMARK                            x       y       z     vdW  Elec       q    Type
REMARK                         _______ _______ _______ _____ _____    ______ ____
ROOT
ATOM      6  C   UNL     1     -17.347   5.667  22.274  0.00  0.00    -0.027 C 
ATOM      7  C   UNL     1     -15.989   5.198  22.893  0.00  0.00    +0.028 C 
ATOM      8  C   UNL     1     -14.792   5.524  21.931  0.00  0.00    +0.012 C 
ATOM      9  C   UNL     1     -16.072   3.722  23.381  0.00  0.00    +0.122 C 
ATOM     10  C   UNL     1     -18.488   5.436  23.292  0.00  0.00    +0.007 C 
ATOM     11  C   UNL     1     -17.277   3.473  24.319  0.00  0.00    +0.029 C 
ATOM     12  C   UNL     1     -17.273   7.185  21.987  0.00  0.00    +0.009 C 
ATOM     13  C   UNL     1     -14.773   7.041  21.591  0.00  0.00    +0.076 C 
ATOM     14  C   UNL     1     -18.597   3.983  23.742  0.00  0.00    +0.007 C 
ATOM     15  C   UNL     1     -16.114   7.566  21.078  0.00  0.00    +0.023 C 
ATOM     16  C   UNL     1     -17.691   4.917  20.962  0.00  0.00    +0.011 C 
ATOM     18  C   UNL     1     -13.420   5.114  22.493  0.00  0.00    +0.010 C 
ENDROOT
BRANCH  13   4
ATOM      3  O   UNL     1     -12.793   9.111  21.789  0.00  0.00    -0.270 OA
ATOM      4  N   UNL     1     -13.753   7.358  20.613  0.00  0.00    -0.308 N 
ATOM     21  C   UNL     1     -12.839   8.381  20.802  0.00  0.00    +0.244 C 
ATOM     34  H   UNL     1     -13.804   6.873  19.725  0.00  0.00    +0.149 HD
BRANCH  21  27
ATOM     27  C   UNL     1     -11.873   8.596  19.694  0.00  0.00    +0.037 A 
ATOM     29  C   UNL     1     -11.025   9.704  19.713  0.00  0.00    +0.013 A 
ATOM     30  C   UNL     1     -11.812   7.690  18.635  0.00  0.00    +0.013 A 
ATOM     31  C   UNL     1     -10.118   9.905  18.674  0.00  0.00    +0.001 A 
ATOM     32  C   UNL     1     -10.904   7.891  17.597  0.00  0.00    +0.001 A 
ATOM     33  C   UNL     1     -10.057   8.999  17.615  0.00  0.00    +0.000 A 
ENDBRANCH  21  27
ENDBRANCH  13   4
BRANCH   9   1
ATOM      1  O   UNL     1     -14.900   3.401  24.130  0.00  0.00    -0.391 OA
ATOM     35  H   UNL     1     -15.129   3.422  25.075  0.00  0.00    +0.210 HD
ENDBRANCH   9   1
BRANCH  11  17
ATOM     17  C   UNL     1     -17.417   1.989  24.682  0.00  0.00    +0.078 C 
ATOM     19  C   UNL     1     -18.082   1.211  23.562  0.00  0.00    +0.017 C 
BRANCH  17  20
ATOM      2  O   UNL     1     -19.457   1.749  25.863  0.00  0.00    -0.275 OA
ATOM      5  N   UNL     1     -17.531   1.933  27.149  0.00  0.00    -0.301 N 
ATOM     20  C   UNL     1     -18.232   1.878  25.945  0.00  0.00    +0.219 C 
ATOM     22  C   UNL     1     -16.078   2.085  27.280  0.00  0.00    +0.108 C 
ATOM     23  C   UNL     1     -18.247   1.791  28.418  0.00  0.00    +0.108 C 
ATOM     24  C   UNL     1     -15.735   3.268  28.184  0.00  0.00    +0.022 C 
ATOM     25  C   UNL     1     -17.951   2.968  29.345  0.00  0.00    +0.022 C 
ATOM     26  C   UNL     1     -16.440   3.153  29.544  0.00  0.00    -0.011 C 
ATOM     28  C   UNL     1     -16.151   4.377  30.411  0.00  0.00    +0.007 C 
ENDBRANCH  17  20
ENDBRANCH  11  17
TORSDOF 5
ENDMDL
MODEL 4
REMARK VINA RESULT:      -6.9     18.134     19.872
REMARK  Name = 45361404
REMARK  9 active torsions:
REMARK  status: ('A' for Active; 'I' for Inactive)
REMARK    1  A    between atoms: O_1  and  C_9
REMARK    2  A    between atoms: N_4  and  C_13
REMARK    3  A    between atoms: C_6  and  C_16
REMARK    4  A    between atoms: C_8  and  C_18
REMARK    5  A    between atoms: C_11  and  C_17
REMARK    6  A    between atoms: C_17  and  C_19
REMARK    7  A    between atoms: C_17  and  C_20
REMARK    8  A    between atoms: C_21  and  C_27
REMARK    9  A    between atoms: C_26  and  C_28
REMARK                            x       y       z     vdW  Elec       q    Type
REMARK                         _______ _______ _______ _____ _____    ______ ____
ROOT
ATOM      6  C   UNL     1     -15.553   7.399  20.628  0.00  0.00    -0.027 C 
ATOM      7  C   UNL     1     -14.212   6.682  21.000  0.00  0.00    +0.028 C 
ATOM      8  C   UNL     1     -14.350   5.909  22.360  0.00  0.00    +0.012 C 
ATOM      9  C   UNL     1     -13.005   7.660  20.905  0.00  0.00    +0.122 C 
ATOM     10  C   UNL     1     -15.419   8.054  19.233  0.00  0.00    +0.007 C 
ATOM     11  C   UNL     1     -12.937   8.389  19.543  0.00  0.00    +0.029 C 
ATOM     12  C   UNL     1     -16.682   6.347  20.548  0.00  0.00    +0.009 C 
ATOM     13  C   UNL     1     -15.536   4.907  22.292  0.00  0.00    +0.076 C 
ATOM     14  C   UNL     1     -14.261   9.042  19.149  0.00  0.00    +0.007 C 
ATOM     15  C   UNL     1     -16.846   5.546  21.831  0.00  0.00    +0.023 C 
ATOM     16  C   UNL     1     -15.946   8.492  21.655  0.00  0.00    +0.011 C 
ATOM     18  C   UNL     1     -13.074   5.156  22.772  0.00  0.00    +0.010 C 
ENDROOT
BRANCH  13   4
ATOM      3  O   UNL     1     -16.688   2.311  22.716  0.00  0.00    -0.270 OA
ATOM      4  N   UNL     1     -15.765   4.260  23.567  0.00  0.00    -0.308 N 
ATOM     21  C   UNL     1     -16.330   3.000  23.668  0.00  0.00    +0.244 C 
ATOM     34  H   UNL     1     -15.601   4.817  24.399  0.00  0.00    +0.149 HD
BRANCH  21  27
ATOM     27  C   UNL     1     -16.523   2.488  25.049  0.00  0.00    +0.037 A 
ATOM     29  C   UNL     1     -17.099   1.234  25.253  0.00  0.00    +0.013 A 
ATOM     30  C   UNL     1     -16.126   3.259  26.141  0.00  0.00    +0.013 A 
ATOM     31  C   UNL     1     -17.278   0.752  26.549  0.00  0.00    +0.001 A 
ATOM     32  C   UNL     1     -16.305   2.777  27.437  0.00  0.00    +0.001 A 
ATOM     33  C   UNL     1     -16.882   1.523  27.642  0.00  0.00    +0.000 A 
ENDBRANCH  21  27
ENDBRANCH  13   4
BRANCH   9   1
ATOM      1  O   UNL     1     -11.787   6.926  21.036  0.00  0.00    -0.391 OA
ATOM     35  H   UNL     1     -11.904   6.063  20.603  0.00  0.00    +0.210 HD
ENDBRANCH   9   1
BRANCH  11  17
ATOM     17  C   UNL     1     -11.820   9.441  19.518  0.00  0.00    +0.078 C 
ATOM     19  C   UNL     1     -11.875  10.327  20.748  0.00  0.00    +0.017 C 
BRANCH  17  20
ATOM      2  O   UNL     1     -12.753  11.234  18.279  0.00  0.00    -0.275 OA
ATOM      5  N   UNL     1     -11.210   9.899  17.168  0.00  0.00    -0.301 N 
ATOM     20  C   UNL     1     -11.974  10.276  18.271  0.00  0.00    +0.219 C 
ATOM     22  C   UNL     1     -10.277   8.767  17.128  0.00  0.00    +0.108 C 
ATOM     23  C   UNL     1     -11.273  10.683  15.934  0.00  0.00    +0.108 C 
ATOM     24  C   UNL     1     -10.600   7.839  15.958  0.00  0.00    +0.022 C 
ATOM     25  C   UNL     1     -11.619   9.795  14.740  0.00  0.00    +0.022 C 
ATOM     26  C   UNL     1     -10.649   8.609  14.630  0.00  0.00    -0.011 C 
ATOM     28  C   UNL     1     -11.048   7.686  13.481  0.00  0.00    +0.007 C 
ENDBRANCH  17  20
ENDBRANCH  11  17
TORSDOF 5
ENDMDL
MODEL 5
REMARK VINA RESULT:      -6.9     23.567     28.129
REMARK  Name = 45361404
REMARK  9 active torsions:
REMARK  status: ('A' for Active; 'I' for Inactive)
REMARK    1  A    between atoms: O_1  and  C_9
REMARK    2  A    between atoms: N_4  and  C_13
REMARK    3  A    between atoms: C_6  and  C_16
REMARK    4  A    between atoms: C_8  and  C_18
REMARK    5  A    between atoms: C_11  and  C_17
REMARK    6  A    between atoms: C_17  and  C_19
REMARK    7  A    between atoms: C_17  and  C_20
REMARK    8  A    between atoms: C_21  and  C_27
REMARK    9  A    between atoms: C_26  and  C_28
REMARK                            x       y       z     vdW  Elec       q    Type
REMARK                         _______ _______ _______ _____ _____    ______ ____
ROOT
ATOM      6  C   UNL     1      13.573   7.030   1.629  0.00  0.00    -0.027 C 
ATOM      7  C   UNL     1      12.657   5.771   1.467  0.00  0.00    +0.028 C 
ATOM      8  C   UNL     1      12.165   5.253   2.866  0.00  0.00    +0.012 C 
ATOM      9  C   UNL     1      13.323   4.702   0.554  0.00  0.00    +0.122 C 
ATOM     10  C   UNL     1      13.945   7.581   0.233  0.00  0.00    +0.007 C 
ATOM     11  C   UNL     1      13.787   5.285  -0.802  0.00  0.00    +0.029 C 
ATOM     12  C   UNL     1      12.788   8.132   2.377  0.00  0.00    +0.009 C 
ATOM     13  C   UNL     1      11.443   6.393   3.639  0.00  0.00    +0.076 C 
ATOM     14  C   UNL     1      14.634   6.547  -0.650  0.00  0.00    +0.007 C 
ATOM     15  C   UNL     1      12.263   7.679   3.731  0.00  0.00    +0.023 C 
ATOM     16  C   UNL     1      14.878   6.717   2.405  0.00  0.00    +0.011 C 
ATOM     18  C   UNL     1      11.234   4.032   2.778  0.00  0.00    +0.010 C 
ENDROOT
BRANCH  13   4
ATOM      3  O   UNL     1       8.878   6.705   4.890  0.00  0.00    -0.270 OA
ATOM      4  N   UNL     1      11.080   5.983   4.980  0.00  0.00    -0.308 N 
ATOM     21  C   UNL     1       9.810   6.179   5.495  0.00  0.00    +0.244 C 
ATOM     34  H   UNL     1      11.829   5.648   5.575  0.00  0.00    +0.149 HD
BRANCH  21  27
ATOM     27  C   UNL     1       9.604   5.728   6.895  0.00  0.00    +0.037 A 
ATOM     29  C   UNL     1       9.863   4.403   7.245  0.00  0.00    +0.013 A 
ATOM     30  C   UNL     1       9.154   6.629   7.859  0.00  0.00    +0.013 A 
ATOM     31  C   UNL     1       9.671   3.979   8.560  0.00  0.00    +0.001 A 
ATOM     32  C   UNL     1       8.963   6.205   9.174  0.00  0.00    +0.001 A 
ATOM     33  C   UNL     1       9.221   4.880   9.525  0.00  0.00    +0.000 A 
ENDBRANCH  21  27
ENDBRANCH  13   4
BRANCH   9   1
ATOM      1  O   UNL     1      12.378   3.675   0.254  0.00  0.00    -0.391 OA
ATOM     35  H   UNL     1      11.554   3.873   0.732  0.00  0.00    +0.210 HD
ENDBRANCH   9   1
BRANCH  11  17
ATOM     17  C   UNL     1      14.557   4.248  -1.631  0.00  0.00    +0.078 C 
ATOM     19  C   UNL     1      16.055   4.398  -1.442  0.00  0.00    +0.017 C 
BRANCH  17  20
ATOM      2  O   UNL     1      14.816   5.261  -3.758  0.00  0.00    -0.275 OA
ATOM      5  N   UNL     1      13.165   3.637  -3.578  0.00  0.00    -0.301 N 
ATOM     20  C   UNL     1      14.197   4.432  -3.084  0.00  0.00    +0.219 C 
ATOM     22  C   UNL     1      12.411   2.645  -2.803  0.00  0.00    +0.108 C 
ATOM     23  C   UNL     1      12.784   3.728  -4.989  0.00  0.00    +0.108 C 
ATOM     24  C   UNL     1      10.909   2.905  -2.903  0.00  0.00    +0.022 C 
ATOM     25  C   UNL     1      11.291   4.013  -5.133  0.00  0.00    +0.022 C 
ATOM     26  C   UNL     1      10.451   2.981  -4.367  0.00  0.00    -0.011 C 
ATOM     28  C   UNL     1       8.964   3.317  -4.454  0.00  0.00    +0.007 C 
ENDBRANCH  17  20
ENDBRANCH  11  17
TORSDOF 5
ENDMDL
MODEL 6
REMARK VINA RESULT:      -6.8      3.674      7.687
REMARK  Name = 45361404
REMARK  9 active torsions:
REMARK  status: ('A' for Active; 'I' for Inactive)
REMARK    1  A    between atoms: O_1  and  C_9
REMARK    2  A    between atoms: N_4  and  C_13
REMARK    3  A    between atoms: C_6  and  C_16
REMARK    4  A    between atoms: C_8  and  C_18
REMARK    5  A    between atoms: C_11  and  C_17
REMARK    6  A    between atoms: C_17  and  C_19
REMARK    7  A    between atoms: C_17  and  C_20
REMARK    8  A    between atoms: C_21  and  C_27
REMARK    9  A    between atoms: C_26  and  C_28
REMARK                            x       y       z     vdW  Elec       q    Type
REMARK                         _______ _______ _______ _____ _____    ______ ____
ROOT
ATOM      6  C   UNL     1      -4.535 -10.446  10.070  0.00  0.00    -0.027 C 
ATOM      7  C   UNL     1      -5.592 -10.491  11.224  0.00  0.00    +0.028 C 
ATOM      8  C   UNL     1      -6.581  -9.276  11.124  0.00  0.00    +0.012 C 
ATOM      9  C   UNL     1      -4.907 -10.685  12.608  0.00  0.00    +0.122 C 
ATOM     10  C   UNL     1      -3.651 -11.713  10.129  0.00  0.00    +0.007 C 
ATOM     11  C   UNL     1      -3.943 -11.895  12.629  0.00  0.00    +0.029 C 
ATOM     12  C   UNL     1      -5.272 -10.449   8.711  0.00  0.00    +0.009 C 
ATOM     13  C   UNL     1      -7.260  -9.247   9.726  0.00  0.00    +0.076 C 
ATOM     14  C   UNL     1      -2.947 -11.885  11.471  0.00  0.00    +0.007 C 
ATOM     15  C   UNL     1      -6.266  -9.306   8.567  0.00  0.00    +0.023 C 
ATOM     16  C   UNL     1      -3.621  -9.197  10.151  0.00  0.00    +0.011 C 
ATOM     18  C   UNL     1      -7.666  -9.274  12.214  0.00  0.00    +0.010 C 
ENDROOT
BRANCH  13   4
ATOM      3  O   UNL     1     -10.023  -9.199   8.947  0.00  0.00    -0.270 OA
ATOM      4  N   UNL     1      -8.091  -8.072   9.559  0.00  0.00    -0.308 N 
ATOM     21  C   UNL     1      -9.419  -8.154   9.177  0.00  0.00    +0.244 C 
ATOM     34  H   UNL     1      -7.629  -7.172   9.620  0.00  0.00    +0.149 HD
BRANCH  21  27
ATOM     27  C   UNL     1     -10.127  -6.857   9.023  0.00  0.00    +0.037 A 
ATOM     29  C   UNL     1     -11.514  -6.799   9.164  0.00  0.00    +0.013 A 
ATOM     30  C   UNL     1      -9.406  -5.698   8.739  0.00  0.00    +0.013 A 
ATOM     31  C   UNL     1     -12.178  -5.581   9.021  0.00  0.00    +0.001 A 
ATOM     32  C   UNL     1     -10.070  -4.480   8.596  0.00  0.00    +0.001 A 
ATOM     33  C   UNL     1     -11.457  -4.421   8.737  0.00  0.00    +0.000 A 
ENDBRANCH  21  27
ENDBRANCH  13   4
BRANCH   9   1
ATOM      1  O   UNL     1      -5.902 -10.939  13.600  0.00  0.00    -0.391 OA
ATOM     35  H   UNL     1      -6.745 -10.570  13.285  0.00  0.00    +0.210 HD
ENDBRANCH   9   1
BRANCH  11  17
ATOM     17  C   UNL     1      -3.182 -11.990  13.958  0.00  0.00    +0.078 C 
ATOM     19  C   UNL     1      -1.775 -12.517  13.746  0.00  0.00    +0.017 C 
BRANCH  17  20
ATOM      2  O   UNL     1      -4.360 -13.986  14.456  0.00  0.00    -0.275 OA
ATOM      5  N   UNL     1      -4.133 -12.457  16.190  0.00  0.00    -0.301 N 
ATOM     20  C   UNL     1      -3.944 -12.905  14.884  0.00  0.00    +0.219 C 
ATOM     22  C   UNL     1      -3.651 -11.180  16.728  0.00  0.00    +0.108 C 
ATOM     23  C   UNL     1      -4.827 -13.306  17.160  0.00  0.00    +0.108 C 
ATOM     24  C   UNL     1      -4.798 -10.390  17.358  0.00  0.00    +0.022 C 
ATOM     25  C   UNL     1      -5.999 -12.561  17.796  0.00  0.00    +0.022 C 
ATOM     26  C   UNL     1      -5.543 -11.227  18.407  0.00  0.00    -0.011 C 
ATOM     28  C   UNL     1      -6.733 -10.455  18.974  0.00  0.00    +0.007 C 
ENDBRANCH  17  20
ENDBRANCH  11  17
TORSDOF 5
ENDMDL
MODEL 7
REMARK VINA RESULT:      -6.8     24.904     27.531
REMARK  Name = 45361404
REMARK  9 active torsions:
REMARK  status: ('A' for Active; 'I' for Inactive)
REMARK    1  A    between atoms: O_1  and  C_9
REMARK    2  A    between atoms: N_4  and  C_13
REMARK    3  A    between atoms: C_6  and  C_16
REMARK    4  A    between atoms: C_8  and  C_18
REMARK    5  A    between atoms: C_11  and  C_17
REMARK    6  A    between atoms: C_17  and  C_19
REMARK    7  A    between atoms: C_17  and  C_20
REMARK    8  A    between atoms: C_21  and  C_27
REMARK    9  A    between atoms: C_26  and  C_28
REMARK                            x       y       z     vdW  Elec       q    Type
REMARK                         _______ _______ _______ _____ _____    ______ ____
ROOT
ATOM      6  C   UNL     1       9.538   5.793   5.821  0.00  0.00    -0.027 C 
ATOM      7  C   UNL     1      10.460   6.959   5.332  0.00  0.00    +0.028 C 
ATOM      8  C   UNL     1       9.940   8.342   5.863  0.00  0.00    +0.012 C 
ATOM      9  C   UNL     1      10.704   6.880   3.797  0.00  0.00    +0.122 C 
ATOM     10  C   UNL     1      10.140   4.438   5.378  0.00  0.00    +0.007 C 
ATOM     11  C   UNL     1      11.208   5.489   3.347  0.00  0.00    +0.029 C 
ATOM     12  C   UNL     1       9.488   5.802   7.366  0.00  0.00    +0.009 C 
ATOM     13  C   UNL     1       9.823   8.315   7.413  0.00  0.00    +0.076 C 
ATOM     14  C   UNL     1      10.343   4.343   3.870  0.00  0.00    +0.007 C 
ATOM     15  C   UNL     1       9.015   7.130   7.941  0.00  0.00    +0.023 C 
ATOM     16  C   UNL     1       8.096   5.903   5.263  0.00  0.00    +0.011 C 
ATOM     18  C   UNL     1      10.819   9.533   5.443  0.00  0.00    +0.010 C 
ENDROOT
BRANCH  13   4
ATOM      3  O   UNL     1      11.151  10.337   8.960  0.00  0.00    -0.270 OA
ATOM      4  N   UNL     1       9.236   9.535   7.927  0.00  0.00    -0.308 N 
ATOM     21  C   UNL     1       9.964  10.452   8.667  0.00  0.00    +0.244 C 
ATOM     34  H   UNL     1       8.233   9.640   7.823  0.00  0.00    +0.149 HD
BRANCH  21  27
ATOM     27  C   UNL     1       9.210  11.639   9.145  0.00  0.00    +0.037 A 
ATOM     29  C   UNL     1       8.914  12.679   8.263  0.00  0.00    +0.013 A 
ATOM     30  C   UNL     1       8.796  11.715  10.475  0.00  0.00    +0.013 A 
ATOM     31  C   UNL     1       8.205  13.793   8.711  0.00  0.00    +0.001 A 
ATOM     32  C   UNL     1       8.087  12.829  10.923  0.00  0.00    +0.001 A 
ATOM     33  C   UNL     1       7.792  13.868  10.041  0.00  0.00    +0.000 A 
ENDBRANCH  21  27
ENDBRANCH  13   4
BRANCH   9   1
ATOM      1  O   UNL     1      11.713   7.819   3.426  0.00  0.00    -0.391 OA
ATOM     35  H   UNL     1      12.577   7.377   3.489  0.00  0.00    +0.210 HD
ENDBRANCH   9   1
BRANCH  11  17
ATOM     17  C   UNL     1      11.316   5.392   1.819  0.00  0.00    +0.078 C 
ATOM     19  C   UNL     1      10.018   4.899   1.208  0.00  0.00    +0.017 C 
BRANCH  17  20
ATOM      2  O   UNL     1      12.499   3.350   2.035  0.00  0.00    -0.275 OA
ATOM      5  N   UNL     1      13.363   4.893   0.530  0.00  0.00    -0.301 N 
ATOM     20  C   UNL     1      12.441   4.449   1.476  0.00  0.00    +0.219 C 
ATOM     22  C   UNL     1      13.322   6.192  -0.152  0.00  0.00    +0.108 C 
ATOM     23  C   UNL     1      14.461   4.019   0.114  0.00  0.00    +0.108 C 
ATOM     24  C   UNL     1      14.647   6.934   0.015  0.00  0.00    +0.022 C 
ATOM     25  C   UNL     1      15.809   4.715   0.289  0.00  0.00    +0.022 C 
ATOM     26  C   UNL     1      15.833   6.069  -0.436  0.00  0.00    -0.011 C 
ATOM     28  C   UNL     1      17.157   6.792  -0.193  0.00  0.00    +0.007 C 
ENDBRANCH  17  20
ENDBRANCH  11  17
TORSDOF 5
ENDMDL
MODEL 8
REMARK VINA RESULT:      -6.7      4.494      9.410
REMARK  Name = 45361404
REMARK  9 active torsions:
REMARK  status: ('A' for Active; 'I' for Inactive)
REMARK    1  A    between atoms: O_1  and  C_9
REMARK    2  A    between atoms: N_4  and  C_13
REMARK    3  A    between atoms: C_6  and  C_16
REMARK    4  A    between atoms: C_8  and  C_18
REMARK    5  A    between atoms: C_11  and  C_17
REMARK    6  A    between atoms: C_17  and  C_19
REMARK    7  A    between atoms: C_17  and  C_20
REMARK    8  A    between atoms: C_21  and  C_27
REMARK    9  A    between atoms: C_26  and  C_28
REMARK                            x       y       z     vdW  Elec       q    Type
REMARK                         _______ _______ _______ _____ _____    ______ ____
ROOT
ATOM      6  C   UNL     1     -11.538  -9.539  13.926  0.00  0.00    -0.027 C 
ATOM      7  C   UNL     1     -11.181  -8.341  14.868  0.00  0.00    +0.028 C 
ATOM      8  C   UNL     1     -10.234  -8.806  16.030  0.00  0.00    +0.012 C 
ATOM      9  C   UNL     1     -12.459  -7.572  15.312  0.00  0.00    +0.122 C 
ATOM     10  C   UNL     1     -12.375  -9.026  12.732  0.00  0.00    +0.007 C 
ATOM     11  C   UNL     1     -13.345  -7.152  14.116  0.00  0.00    +0.029 C 
ATOM     12  C   UNL     1     -10.232 -10.143  13.361  0.00  0.00    +0.009 C 
ATOM     13  C   UNL     1      -8.958  -9.479  15.450  0.00  0.00    +0.076 C 
ATOM     14  C   UNL     1     -13.648  -8.307  13.163  0.00  0.00    +0.007 C 
ATOM     15  C   UNL     1      -9.261 -10.589  14.444  0.00  0.00    +0.023 C 
ATOM     16  C   UNL     1     -12.339 -10.648  14.656  0.00  0.00    +0.011 C 
ATOM     18  C   UNL     1      -9.819  -7.669  16.979  0.00  0.00    +0.010 C 
ENDROOT
BRANCH  13   4
ATOM      3  O   UNL     1      -6.088  -9.482  15.514  0.00  0.00    -0.270 OA
ATOM      4  N   UNL     1      -8.117 -10.024  16.496  0.00  0.00    -0.308 N 
ATOM     21  C   UNL     1      -6.735  -9.977  16.434  0.00  0.00    +0.244 C 
ATOM     34  H   UNL     1      -8.581 -10.550  17.228  0.00  0.00    +0.149 HD
BRANCH  21  27
ATOM     27  C   UNL     1      -6.016 -10.604  17.573  0.00  0.00    +0.037 A 
ATOM     29  C   UNL     1      -4.741 -11.138  17.384  0.00  0.00    +0.013 A 
ATOM     30  C   UNL     1      -6.615 -10.657  18.831  0.00  0.00    +0.013 A 
ATOM     31  C   UNL     1      -4.066 -11.725  18.454  0.00  0.00    +0.001 A 
ATOM     32  C   UNL     1      -5.939 -11.243  19.901  0.00  0.00    +0.001 A 
ATOM     33  C   UNL     1      -4.665 -11.778  19.712  0.00  0.00    +0.000 A 
ENDBRANCH  21  27
ENDBRANCH  13   4
BRANCH   9   1
ATOM      1  O   UNL     1     -12.082  -6.369  15.983  0.00  0.00    -0.391 OA
ATOM     35  H   UNL     1     -11.147  -6.444  16.238  0.00  0.00    +0.210 HD
ENDBRANCH   9   1
BRANCH  11  17
ATOM     17  C   UNL     1     -14.660  -6.513  14.581  0.00  0.00    +0.078 C 
ATOM     19  C   UNL     1     -15.635  -7.566  15.075  0.00  0.00    +0.017 C 
BRANCH  17  20
ATOM      2  O   UNL     1     -16.374  -6.078  13.003  0.00  0.00    -0.275 OA
ATOM      5  N   UNL     1     -14.499  -4.710  12.901  0.00  0.00    -0.301 N 
ATOM     20  C   UNL     1     -15.260  -5.752  13.426  0.00  0.00    +0.219 C 
ATOM     22  C   UNL     1     -13.175  -4.299  13.381  0.00  0.00    +0.108 C 
ATOM     23  C   UNL     1     -15.030  -3.898  11.805  0.00  0.00    +0.108 C 
ATOM     24  C   UNL     1     -12.164  -4.279  12.235  0.00  0.00    +0.022 C 
ATOM     25  C   UNL     1     -14.060  -3.871  10.626  0.00  0.00    +0.022 C 
ATOM     26  C   UNL     1     -12.661  -3.414  11.067  0.00  0.00    -0.011 C 
ATOM     28  C   UNL     1     -11.679  -3.462   9.899  0.00  0.00    +0.007 C 
ENDBRANCH  17  20
ENDBRANCH  11  17
TORSDOF 5
ENDMDL
MODEL 9
REMARK VINA RESULT:      -6.6     29.634     32.044
REMARK  Name = 45361404
REMARK  9 active torsions:
REMARK  status: ('A' for Active; 'I' for Inactive)
REMARK    1  A    between atoms: O_1  and  C_9
REMARK    2  A    between atoms: N_4  and  C_13
REMARK    3  A    between atoms: C_6  and  C_16
REMARK    4  A    between atoms: C_8  and  C_18
REMARK    5  A    between atoms: C_11  and  C_17
REMARK    6  A    between atoms: C_17  and  C_19
REMARK    7  A    between atoms: C_17  and  C_20
REMARK    8  A    between atoms: C_21  and  C_27
REMARK    9  A    between atoms: C_26  and  C_28
REMARK                            x       y       z     vdW  Elec       q    Type
REMARK                         _______ _______ _______ _____ _____    ______ ____
ROOT
ATOM      6  C   UNL     1      19.179  10.276  21.319  0.00  0.00    -0.027 C 
ATOM      7  C   UNL     1      19.054   8.737  21.062  0.00  0.00    +0.028 C 
ATOM      8  C   UNL     1      17.629   8.217  21.466  0.00  0.00    +0.012 C 
ATOM      9  C   UNL     1      20.251   7.962  21.685  0.00  0.00    +0.122 C 
ATOM     10  C   UNL     1      20.550  10.776  20.805  0.00  0.00    +0.007 C 
ATOM     11  C   UNL     1      21.621   8.534  21.249  0.00  0.00    +0.029 C 
ATOM     12  C   UNL     1      18.080  11.012  20.518  0.00  0.00    +0.009 C 
ATOM     13  C   UNL     1      16.529   9.015  20.711  0.00  0.00    +0.076 C 
ATOM     14  C   UNL     1      21.726  10.046  21.444  0.00  0.00    +0.007 C 
ATOM     15  C   UNL     1      16.675  10.530  20.849  0.00  0.00    +0.023 C 
ATOM     16  C   UNL     1      19.047  10.640  22.820  0.00  0.00    +0.011 C 
ATOM     18  C   UNL     1      17.427   6.713  21.213  0.00  0.00    +0.010 C 
ENDROOT
BRANCH  13   4
ATOM      3  O   UNL     1      14.245   8.546  19.036  0.00  0.00    -0.270 OA
ATOM      4  N   UNL     1      15.200   8.640  21.147  0.00  0.00    -0.308 N 
ATOM     21  C   UNL     1      14.159   8.436  20.257  0.00  0.00    +0.244 C 
ATOM     34  H   UNL     1      15.028   8.644  22.146  0.00  0.00    +0.149 HD
BRANCH  21  27
ATOM     27  C   UNL     1      12.851   8.082  20.864  0.00  0.00    +0.037 A 
ATOM     29  C   UNL     1      12.000   9.088  21.322  0.00  0.00    +0.013 A 
ATOM     30  C   UNL     1      12.472   6.745  20.975  0.00  0.00    +0.013 A 
ATOM     31  C   UNL     1      10.771   8.756  21.891  0.00  0.00    +0.001 A 
ATOM     32  C   UNL     1      11.243   6.412  21.543  0.00  0.00    +0.001 A 
ATOM     33  C   UNL     1      10.392   7.418  22.002  0.00  0.00    +0.000 A 
ENDBRANCH  21  27
ENDBRANCH  13   4
BRANCH   9   1
ATOM      1  O   UNL     1      20.218   6.603  21.249  0.00  0.00    -0.391 OA
ATOM     35  H   UNL     1      19.635   6.548  20.473  0.00  0.00    +0.210 HD
ENDBRANCH   9   1
BRANCH  11  17
ATOM     17  C   UNL     1      22.782   7.842  21.975  0.00  0.00    +0.078 C 
ATOM     19  C   UNL     1      23.554   8.825  22.835  0.00  0.00    +0.017 C 
BRANCH  17  20
ATOM      2  O   UNL     1      23.916   7.837  19.894  0.00  0.00    -0.275 OA
ATOM      5  N   UNL     1      24.238   5.982  21.255  0.00  0.00    -0.301 N 
ATOM     20  C   UNL     1      23.695   7.227  20.945  0.00  0.00    +0.219 C 
ATOM     22  C   UNL     1      23.996   5.233  22.493  0.00  0.00    +0.108 C 
ATOM     23  C   UNL     1      25.166   5.338  20.323  0.00  0.00    +0.108 C 
ATOM     24  C   UNL     1      23.500   3.821  22.185  0.00  0.00    +0.022 C 
ATOM     25  C   UNL     1      24.693   3.930  19.968  0.00  0.00    +0.022 C 
ATOM     26  C   UNL     1      24.455   3.089  21.232  0.00  0.00    -0.011 C 
ATOM     28  C   UNL     1      23.911   1.708  20.871  0.00  0.00    +0.007 C 
ENDBRANCH  17  20
ENDBRANCH  11  17
TORSDOF 5
ENDMDL
MODEL 10
REMARK VINA RESULT:      -6.6     26.058     31.427
REMARK  Name = 45361404
REMARK  9 active torsions:
REMARK  status: ('A' for Active; 'I' for Inactive)
REMARK    1  A    between atoms: O_1  and  C_9
REMARK    2  A    between atoms: N_4  and  C_13
REMARK    3  A    between atoms: C_6  and  C_16
REMARK    4  A    between atoms: C_8  and  C_18
REMARK    5  A    between atoms: C_11  and  C_17
REMARK    6  A    between atoms: C_17  and  C_19
REMARK    7  A    between atoms: C_17  and  C_20
REMARK    8  A    between atoms: C_21  and  C_27
REMARK    9  A    between atoms: C_26  and  C_28
REMARK                            x       y       z     vdW  Elec       q    Type
REMARK                         _______ _______ _______ _____ _____    ______ ____
ROOT
ATOM      6  C   UNL     1      14.885  11.710   6.573  0.00  0.00    -0.027 C 
ATOM      7  C   UNL     1      14.534  10.185   6.555  0.00  0.00    +0.028 C 
ATOM      8  C   UNL     1      15.569   9.383   5.688  0.00  0.00    +0.012 C 
ATOM      9  C   UNL     1      13.038   9.954   6.194  0.00  0.00    +0.122 C 
ATOM     10  C   UNL     1      13.917  12.451   7.525  0.00  0.00    +0.007 C 
ATOM     11  C   UNL     1      12.079  10.779   7.083  0.00  0.00    +0.029 C 
ATOM     12  C   UNL     1      16.318  11.892   7.124  0.00  0.00    +0.009 C 
ATOM     13  C   UNL     1      17.014   9.633   6.205  0.00  0.00    +0.076 C 
ATOM     14  C   UNL     1      12.452  12.260   7.150  0.00  0.00    +0.007 C 
ATOM     15  C   UNL     1      17.364  11.115   6.338  0.00  0.00    +0.023 C 
ATOM     16  C   UNL     1      14.793  12.356   5.167  0.00  0.00    +0.011 C 
ATOM     18  C   UNL     1      15.300   7.869   5.650  0.00  0.00    +0.010 C 
ENDROOT
BRANCH  13   4
ATOM      3  O   UNL     1      19.418   8.318   7.062  0.00  0.00    -0.270 OA
ATOM      4  N   UNL     1      18.004   9.002   5.357  0.00  0.00    -0.308 N 
ATOM     21  C   UNL     1      19.136   8.391   5.869  0.00  0.00    +0.244 C 
ATOM     34  H   UNL     1      17.894   9.125   4.357  0.00  0.00    +0.149 HD
BRANCH  21  27
ATOM     27  C   UNL     1      20.067   7.814   4.866  0.00  0.00    +0.037 A 
ATOM     29  C   UNL     1      19.863   8.052   3.507  0.00  0.00    +0.013 A 
ATOM     30  C   UNL     1      21.146   7.034   5.283  0.00  0.00    +0.013 A 
ATOM     31  C   UNL     1      20.738   7.511   2.565  0.00  0.00    +0.001 A 
ATOM     32  C   UNL     1      22.021   6.494   4.341  0.00  0.00    +0.001 A 
ATOM     33  C   UNL     1      21.817   6.731   2.982  0.00  0.00    +0.000 A 
ENDBRANCH  21  27
ENDBRANCH  13   4
BRANCH   9   1
ATOM      1  O   UNL     1      12.705   8.581   6.399  0.00  0.00    -0.391 OA
ATOM     35  H   UNL     1      11.855   8.407   5.960  0.00  0.00    +0.210 HD
ENDBRANCH   9   1
BRANCH  11  17
ATOM     17  C   UNL     1      10.621  10.639   6.627  0.00  0.00    +0.078 C 
ATOM     19  C   UNL     1       9.893  11.969   6.700  0.00  0.00    +0.017 C 
BRANCH  17  20
ATOM      2  O   UNL     1       9.933   9.793   8.731  0.00  0.00    -0.275 OA
ATOM      5  N   UNL     1       9.342   8.539   6.867  0.00  0.00    -0.301 N 
ATOM     20  C   UNL     1       9.936   9.625   7.508  0.00  0.00    +0.219 C 
ATOM     22  C   UNL     1       9.328   8.312   5.417  0.00  0.00    +0.108 C 
ATOM     23  C   UNL     1       8.623   7.533   7.650  0.00  0.00    +0.108 C 
ATOM     24  C   UNL     1       9.877   6.927   5.080  0.00  0.00    +0.022 C 
ATOM     25  C   UNL     1       9.159   6.132   7.361  0.00  0.00    +0.022 C 
ATOM     26  C   UNL     1       9.136   5.828   5.856  0.00  0.00    -0.011 C 
ATOM     28  C   UNL     1       9.742   4.456   5.569  0.00  0.00    +0.007 C 
ENDBRANCH  17  20
ENDBRANCH  11  17
TORSDOF 5
ENDMDL
