MODEL 1
REMARK VINA RESULT:      -7.0      0.000      0.000
REMARK  Name = 45784180
REMARK  4 active torsions:
REMARK  status: ('A' for Active; 'I' for Inactive)
REMARK    1  A    between atoms: N_3  and  C_9
REMARK    2  A    between atoms: C_5  and  C_10
REMARK    3  A    between atoms: C_9  and  C_11
REMARK    4  A    between atoms: C_12  and  C_17
REMARK                            x       y       z     vdW  Elec       q    Type
REMARK                         _______ _______ _______ _____ _____    ______ ____
ROOT
ATOM      3  N   UNL     1      -2.122 -11.047  13.659  0.00  0.00    -0.297 NA
ATOM      5  C   UNL     1      -3.215 -10.184  15.547  0.00  0.00    +0.090 C 
ATOM      6  C   UNL     1      -3.466 -10.692  14.121  0.00  0.00    +0.097 C 
ATOM      7  C   UNL     1      -1.904 -10.865  15.977  0.00  0.00    +0.029 C 
ATOM      8  C   UNL     1      -1.505 -11.736  14.793  0.00  0.00    +0.085 C 
ENDROOT
BRANCH   5  10
ATOM      1 CL   UNL     1      -9.491 -10.840  19.770  0.00  0.00    -0.083 Cl
ATOM      2  O   UNL     1      -4.186 -11.329  17.466  0.00  0.00    -0.439 OA
ATOM      4  N   UNL     1      -5.577  -9.862  16.442  0.00  0.00    -0.213 NA
ATOM     10  C   UNL     1      -4.387 -10.421  16.471  0.00  0.00    +0.201 A 
ATOM     13  C   UNL     1      -6.226 -10.444  17.504  0.00  0.00    +0.111 A 
ATOM     14  C   UNL     1      -5.378 -11.343  18.133  0.00  0.00    +0.155 A 
ATOM     18  C   UNL     1      -7.525 -10.273  18.005  0.00  0.00    +0.051 A 
ATOM     19  C   UNL     1      -5.716 -12.106  19.244  0.00  0.00    +0.050 A 
ATOM     22  C   UNL     1      -7.903 -11.026  19.126  0.00  0.00    +0.043 A 
ATOM     23  C   UNL     1      -7.015 -11.923  19.732  0.00  0.00    +0.024 A 
ENDBRANCH   5  10
BRANCH   3   9
ATOM      9  C   UNL     1      -2.145 -11.868  12.458  0.00  0.00    +0.119 C 
BRANCH   9  11
ATOM     11  C   UNL     1      -2.836 -11.171  11.316  0.00  0.00    -0.030 A 
ATOM     12  C   UNL     1      -3.729 -11.857  10.492  0.00  0.00    -0.046 A 
ATOM     15  C   UNL     1      -2.570  -9.822  11.086  0.00  0.00    +0.005 A 
ATOM     16  C   UNL     1      -4.357 -11.192   9.440  0.00  0.00    +0.003 A 
ATOM     17  C   UNL     1      -4.028 -13.302  10.719  0.00  0.00    +0.044 C 
ATOM     20  C   UNL     1      -3.198  -9.157  10.033  0.00  0.00    +0.000 A 
ATOM     21  C   UNL     1      -4.092  -9.842   9.211  0.00  0.00    +0.000 A 
ENDBRANCH   9  11
ENDBRANCH   3   9
TORSDOF 3
ENDMDL
MODEL 2
REMARK VINA RESULT:      -6.9     22.537     25.347
REMARK  Name = 45784180
REMARK  4 active torsions:
REMARK  status: ('A' for Active; 'I' for Inactive)
REMARK    1  A    between atoms: N_3  and  C_9
REMARK    2  A    between atoms: C_5  and  C_10
REMARK    3  A    between atoms: C_9  and  C_11
REMARK    4  A    between atoms: C_12  and  C_17
REMARK                            x       y       z     vdW  Elec       q    Type
REMARK                         _______ _______ _______ _____ _____    ______ ____
ROOT
ATOM      3  N   UNL     1      11.895   4.555   1.553  0.00  0.00    -0.297 NA
ATOM      5  C   UNL     1      10.388   5.338   3.170  0.00  0.00    +0.090 C 
ATOM      6  C   UNL     1      11.111   4.072   2.692  0.00  0.00    +0.097 C 
ATOM      7  C   UNL     1      11.275   6.499   2.688  0.00  0.00    +0.029 C 
ATOM      8  C   UNL     1      12.456   5.831   1.996  0.00  0.00    +0.085 C 
ENDROOT
BRANCH   5  10
ATOM      1 CL   UNL     1       9.126   4.531  10.614  0.00  0.00    -0.083 Cl
ATOM      2  O   UNL     1       9.732   6.523   5.196  0.00  0.00    -0.439 OA
ATOM      4  N   UNL     1      10.167   4.319   5.493  0.00  0.00    -0.213 NA
ATOM     10  C   UNL     1      10.104   5.329   4.654  0.00  0.00    +0.201 A 
ATOM     13  C   UNL     1       9.809   4.882   6.695  0.00  0.00    +0.111 A 
ATOM     14  C   UNL     1       9.541   6.230   6.517  0.00  0.00    +0.155 A 
ATOM     18  C   UNL     1       9.684   4.329   7.977  0.00  0.00    +0.051 A 
ATOM     19  C   UNL     1       9.151   7.100   7.527  0.00  0.00    +0.050 A 
ATOM     22  C   UNL     1       9.291   5.176   9.024  0.00  0.00    +0.043 A 
ATOM     23  C   UNL     1       9.031   6.534   8.800  0.00  0.00    +0.024 A 
ENDBRANCH   5  10
BRANCH   3   9
ATOM      9  C   UNL     1      12.923   3.609   1.145  0.00  0.00    +0.119 C 
BRANCH   9  11
ATOM     11  C   UNL     1      13.230   3.714  -0.325  0.00  0.00    -0.030 A 
ATOM     12  C   UNL     1      14.459   4.203  -0.769  0.00  0.00    -0.046 A 
ATOM     15  C   UNL     1      12.264   3.315  -1.249  0.00  0.00    +0.005 A 
ATOM     16  C   UNL     1      14.722   4.292  -2.135  0.00  0.00    +0.003 A 
ATOM     17  C   UNL     1      15.508   4.637   0.201  0.00  0.00    +0.044 C 
ATOM     20  C   UNL     1      12.527   3.405  -2.616  0.00  0.00    +0.000 A 
ATOM     21  C   UNL     1      13.756   3.892  -3.059  0.00  0.00    +0.000 A 
ENDBRANCH   9  11
ENDBRANCH   3   9
TORSDOF 3
ENDMDL
MODEL 3
REMARK VINA RESULT:      -6.8      2.062      2.854
REMARK  Name = 45784180
REMARK  4 active torsions:
REMARK  status: ('A' for Active; 'I' for Inactive)
REMARK    1  A    between atoms: N_3  and  C_9
REMARK    2  A    between atoms: C_5  and  C_10
REMARK    3  A    between atoms: C_9  and  C_11
REMARK    4  A    between atoms: C_12  and  C_17
REMARK                            x       y       z     vdW  Elec       q    Type
REMARK                         _______ _______ _______ _____ _____    ______ ____
ROOT
ATOM      3  N   UNL     1      -4.454 -10.462  14.735  0.00  0.00    -0.297 NA
ATOM      5  C   UNL     1      -5.783  -9.543  16.435  0.00  0.00    +0.090 C 
ATOM      6  C   UNL     1      -5.822  -9.998  14.970  0.00  0.00    +0.097 C 
ATOM      7  C   UNL     1      -4.630 -10.347  17.061  0.00  0.00    +0.029 C 
ATOM      8  C   UNL     1      -4.105 -11.226  15.934  0.00  0.00    +0.085 C 
ENDROOT
BRANCH   5  10
ATOM      1 CL   UNL     1     -12.729  -9.706  19.498  0.00  0.00    -0.083 Cl
ATOM      2  O   UNL     1      -7.176 -10.653  18.097  0.00  0.00    -0.439 OA
ATOM      4  N   UNL     1      -8.222  -9.011  16.936  0.00  0.00    -0.213 NA
ATOM     10  C   UNL     1      -7.114  -9.691  17.134  0.00  0.00    +0.201 A 
ATOM     13  C   UNL     1      -9.098  -9.564  17.840  0.00  0.00    +0.111 A 
ATOM     14  C   UNL     1      -8.462 -10.569  18.552  0.00  0.00    +0.155 A 
ATOM     18  C   UNL     1     -10.441  -9.278  18.124  0.00  0.00    +0.051 A 
ATOM     19  C   UNL     1      -9.057 -11.334  19.547  0.00  0.00    +0.050 A 
ATOM     22  C   UNL     1     -11.078 -10.030  19.122  0.00  0.00    +0.043 A 
ATOM     23  C   UNL     1     -10.398 -11.037  19.818  0.00  0.00    +0.024 A 
ENDBRANCH   5  10
BRANCH   3   9
ATOM      9  C   UNL     1      -4.336 -11.254  13.520  0.00  0.00    +0.119 C 
BRANCH   9  11
ATOM     11  C   UNL     1      -3.587 -10.517  12.441  0.00  0.00    -0.030 A 
ATOM     12  C   UNL     1      -4.263  -9.931  11.371  0.00  0.00    -0.046 A 
ATOM     15  C   UNL     1      -2.198 -10.426  12.523  0.00  0.00    +0.005 A 
ATOM     16  C   UNL     1      -3.549  -9.254  10.383  0.00  0.00    +0.003 A 
ATOM     17  C   UNL     1      -5.750 -10.016  11.262  0.00  0.00    +0.044 C 
ATOM     20  C   UNL     1      -1.484  -9.749  11.534  0.00  0.00    +0.000 A 
ATOM     21  C   UNL     1      -2.160  -9.162  10.465  0.00  0.00    +0.000 A 
ENDBRANCH   9  11
ENDBRANCH   3   9
TORSDOF 3
ENDMDL
MODEL 4
REMARK VINA RESULT:      -6.8      2.072      2.939
REMARK  Name = 45784180
REMARK  4 active torsions:
REMARK  status: ('A' for Active; 'I' for Inactive)
REMARK    1  A    between atoms: N_3  and  C_9
REMARK    2  A    between atoms: C_5  and  C_10
REMARK    3  A    between atoms: C_9  and  C_11
REMARK    4  A    between atoms: C_12  and  C_17
REMARK                            x       y       z     vdW  Elec       q    Type
REMARK                         _______ _______ _______ _____ _____    ______ ____
ROOT
ATOM      3  N   UNL     1      -4.795 -10.418  14.504  0.00  0.00    -0.297 NA
ATOM      5  C   UNL     1      -6.034  -9.502  16.273  0.00  0.00    +0.090 C 
ATOM      6  C   UNL     1      -6.158  -9.985  14.822  0.00  0.00    +0.097 C 
ATOM      7  C   UNL     1      -4.821 -10.263  16.834  0.00  0.00    +0.029 C 
ATOM      8  C   UNL     1      -4.347 -11.149  15.690  0.00  0.00    +0.085 C 
ENDROOT
BRANCH   5  10
ATOM      1 CL   UNL     1     -12.749  -9.778  19.807  0.00  0.00    -0.083 Cl
ATOM      2  O   UNL     1      -7.293 -10.637  18.023  0.00  0.00    -0.439 OA
ATOM      4  N   UNL     1      -8.441  -9.009  16.943  0.00  0.00    -0.213 NA
ATOM     10  C   UNL     1      -7.311  -9.672  17.062  0.00  0.00    +0.201 A 
ATOM     13  C   UNL     1      -9.244  -9.577  17.903  0.00  0.00    +0.111 A 
ATOM     14  C   UNL     1      -8.545 -10.573  18.566  0.00  0.00    +0.155 A 
ATOM     18  C   UNL     1     -10.568  -9.312  18.279  0.00  0.00    +0.051 A 
ATOM     19  C   UNL     1      -9.059 -11.350  19.597  0.00  0.00    +0.050 A 
ATOM     22  C   UNL     1     -11.123 -10.076  19.316  0.00  0.00    +0.043 A 
ATOM     23  C   UNL     1     -10.382 -11.073  19.961  0.00  0.00    +0.024 A 
ENDBRANCH   5  10
BRANCH   3   9
ATOM      9  C   UNL     1      -4.736 -11.228  13.298  0.00  0.00    +0.119 C 
BRANCH   9  11
ATOM     11  C   UNL     1      -4.332 -10.417  12.096  0.00  0.00    -0.030 A 
ATOM     12  C   UNL     1      -2.997 -10.335  11.700  0.00  0.00    -0.046 A 
ATOM     15  C   UNL     1      -5.316  -9.739  11.375  0.00  0.00    +0.005 A 
ATOM     16  C   UNL     1      -2.646  -9.578  10.584  0.00  0.00    +0.003 A 
ATOM     17  C   UNL     1      -1.927 -11.052  12.455  0.00  0.00    +0.044 C 
ATOM     20  C   UNL     1      -4.964  -8.981  10.258  0.00  0.00    +0.000 A 
ATOM     21  C   UNL     1      -3.630  -8.901   9.862  0.00  0.00    +0.000 A 
ENDBRANCH   9  11
ENDBRANCH   3   9
TORSDOF 3
ENDMDL
MODEL 5
REMARK VINA RESULT:      -6.7     23.181     26.410
REMARK  Name = 45784180
REMARK  4 active torsions:
REMARK  status: ('A' for Active; 'I' for Inactive)
REMARK    1  A    between atoms: N_3  and  C_9
REMARK    2  A    between atoms: C_5  and  C_10
REMARK    3  A    between atoms: C_9  and  C_11
REMARK    4  A    between atoms: C_12  and  C_17
REMARK                            x       y       z     vdW  Elec       q    Type
REMARK                         _______ _______ _______ _____ _____    ______ ____
ROOT
ATOM      3  N   UNL     1      10.659   5.670   4.394  0.00  0.00    -0.297 NA
ATOM      5  C   UNL     1      11.742   4.707   2.551  0.00  0.00    +0.090 C 
ATOM      6  C   UNL     1      10.407   4.722   3.308  0.00  0.00    +0.097 C 
ATOM      7  C   UNL     1      12.389   6.064   2.875  0.00  0.00    +0.029 C 
ATOM      8  C   UNL     1      11.381   6.778   3.767  0.00  0.00    +0.085 C 
ENDROOT
BRANCH   5  10
ATOM      1 CL   UNL     1      10.307   3.727  -4.842  0.00  0.00    -0.083 Cl
ATOM      2  O   UNL     1      12.489   3.560   0.534  0.00  0.00    -0.439 OA
ATOM      4  N   UNL     1      10.672   4.884   0.246  0.00  0.00    -0.213 NA
ATOM     10  C   UNL     1      11.579   4.417   1.076  0.00  0.00    +0.201 A 
ATOM     13  C   UNL     1      11.002   4.291  -0.949  0.00  0.00    +0.111 A 
ATOM     14  C   UNL     1      12.114   3.480  -0.777  0.00  0.00    +0.155 A 
ATOM     18  C   UNL     1      10.420   4.382  -2.222  0.00  0.00    +0.051 A 
ATOM     19  C   UNL     1      12.712   2.732  -1.783  0.00  0.00    +0.050 A 
ATOM     22  C   UNL     1      10.997   3.641  -3.264  0.00  0.00    +0.043 A 
ATOM     23  C   UNL     1      12.119   2.833  -3.046  0.00  0.00    +0.024 A 
ENDBRANCH   5  10
BRANCH   3   9
ATOM      9  C   UNL     1       9.434   6.107   5.047  0.00  0.00    +0.119 C 
BRANCH   9  11
ATOM     11  C   UNL     1       9.432   5.777   6.516  0.00  0.00    -0.030 A 
ATOM     12  C   UNL     1       9.053   6.726   7.464  0.00  0.00    -0.046 A 
ATOM     15  C   UNL     1       9.819   4.500   6.923  0.00  0.00    +0.005 A 
ATOM     16  C   UNL     1       9.059   6.399   8.819  0.00  0.00    +0.003 A 
ATOM     17  C   UNL     1       8.636   8.100   7.052  0.00  0.00    +0.044 C 
ATOM     20  C   UNL     1       9.825   4.173   8.279  0.00  0.00    +0.000 A 
ATOM     21  C   UNL     1       9.445   5.122   9.227  0.00  0.00    +0.000 A 
ENDBRANCH   9  11
ENDBRANCH   3   9
TORSDOF 3
ENDMDL
MODEL 6
REMARK VINA RESULT:      -6.7     26.519     28.180
REMARK  Name = 45784180
REMARK  4 active torsions:
REMARK  status: ('A' for Active; 'I' for Inactive)
REMARK    1  A    between atoms: N_3  and  C_9
REMARK    2  A    between atoms: C_5  and  C_10
REMARK    3  A    between atoms: C_9  and  C_11
REMARK    4  A    between atoms: C_12  and  C_17
REMARK                            x       y       z     vdW  Elec       q    Type
REMARK                         _______ _______ _______ _____ _____    ______ ____
ROOT
ATOM      3  N   UNL     1      13.002   7.475  19.277  0.00  0.00    -0.297 NA
ATOM      5  C   UNL     1      11.576   8.360  20.915  0.00  0.00    +0.090 C 
ATOM      6  C   UNL     1      13.054   8.090  20.605  0.00  0.00    +0.097 C 
ATOM      7  C   UNL     1      10.902   8.462  19.536  0.00  0.00    +0.029 C 
ATOM      8  C   UNL     1      12.030   8.275  18.530  0.00  0.00    +0.085 C 
ENDROOT
BRANCH   5  10
ATOM      1 CL   UNL     1      10.494  13.880  26.016  0.00  0.00    -0.083 Cl
ATOM      2  O   UNL     1      11.376  10.772  21.193  0.00  0.00    -0.439 OA
ATOM      4  N   UNL     1      11.189   9.584  23.114  0.00  0.00    -0.213 NA
ATOM     10  C   UNL     1      11.372   9.559  21.812  0.00  0.00    +0.201 A 
ATOM     13  C   UNL     1      11.060  10.925  23.389  0.00  0.00    +0.111 A 
ATOM     14  C   UNL     1      11.174  11.655  22.216  0.00  0.00    +0.155 A 
ATOM     18  C   UNL     1      10.846  11.608  24.595  0.00  0.00    +0.051 A 
ATOM     19  C   UNL     1      11.092  13.039  22.134  0.00  0.00    +0.050 A 
ATOM     22  C   UNL     1      10.757  13.006  24.553  0.00  0.00    +0.043 A 
ATOM     23  C   UNL     1      10.878  13.706  23.346  0.00  0.00    +0.024 A 
ENDBRANCH   5  10
BRANCH   3   9
ATOM      9  C   UNL     1      14.305   7.440  18.629  0.00  0.00    +0.119 C 
BRANCH   9  11
ATOM     11  C   UNL     1      15.427   7.629  19.615  0.00  0.00    -0.030 A 
ATOM     12  C   UNL     1      15.915   8.901  19.911  0.00  0.00    -0.046 A 
ATOM     15  C   UNL     1      15.981   6.508  20.233  0.00  0.00    +0.005 A 
ATOM     16  C   UNL     1      16.955   9.053  20.827  0.00  0.00    +0.003 A 
ATOM     17  C   UNL     1      15.339  10.116  19.262  0.00  0.00    +0.044 C 
ATOM     20  C   UNL     1      17.022   6.660  21.149  0.00  0.00    +0.000 A 
ATOM     21  C   UNL     1      17.508   7.932  21.447  0.00  0.00    +0.000 A 
ENDBRANCH   9  11
ENDBRANCH   3   9
TORSDOF 3
ENDMDL
MODEL 7
REMARK VINA RESULT:      -6.5     27.375     29.530
REMARK  Name = 45784180
REMARK  4 active torsions:
REMARK  status: ('A' for Active; 'I' for Inactive)
REMARK    1  A    between atoms: N_3  and  C_9
REMARK    2  A    between atoms: C_5  and  C_10
REMARK    3  A    between atoms: C_9  and  C_11
REMARK    4  A    between atoms: C_12  and  C_17
REMARK                            x       y       z     vdW  Elec       q    Type
REMARK                         _______ _______ _______ _____ _____    ______ ____
ROOT
ATOM      3  N   UNL     1      14.692   7.851  20.821  0.00  0.00    -0.297 NA
ATOM      5  C   UNL     1      16.866   7.374  20.083  0.00  0.00    +0.090 C 
ATOM      6  C   UNL     1      16.072   7.844  21.309  0.00  0.00    +0.097 C 
ATOM      7  C   UNL     1      15.852   6.577  19.245  0.00  0.00    +0.029 C 
ATOM      8  C   UNL     1      14.559   6.615  20.049  0.00  0.00    +0.085 C 
ENDROOT
BRANCH   5  10
ATOM      1 CL   UNL     1      23.039   3.122  21.296  0.00  0.00    -0.083 Cl
ATOM      2  O   UNL     1      18.770   7.046  21.567  0.00  0.00    -0.439 OA
ATOM      4  N   UNL     1      18.670   5.595  19.829  0.00  0.00    -0.213 NA
ATOM     10  C   UNL     1      18.122   6.617  20.449  0.00  0.00    +0.201 A 
ATOM     13  C   UNL     1      19.777   5.318  20.595  0.00  0.00    +0.111 A 
ATOM     14  C   UNL     1      19.842   6.203  21.660  0.00  0.00    +0.155 A 
ATOM     18  C   UNL     1      20.775   4.341  20.464  0.00  0.00    +0.051 A 
ATOM     19  C   UNL     1      20.836   6.204  22.630  0.00  0.00    +0.050 A 
ATOM     22  C   UNL     1      21.796   4.310  21.425  0.00  0.00    +0.043 A 
ATOM     23  C   UNL     1      21.823   5.223  22.485  0.00  0.00    +0.024 A 
ENDBRANCH   5  10
BRANCH   3   9
ATOM      9  C   UNL     1      13.720   7.937  21.901  0.00  0.00    +0.119 C 
BRANCH   9  11
ATOM     11  C   UNL     1      13.110   9.310  21.999  0.00  0.00    -0.030 A 
ATOM     12  C   UNL     1      11.838   9.568  21.488  0.00  0.00    -0.046 A 
ATOM     15  C   UNL     1      13.836  10.331  22.611  0.00  0.00    +0.005 A 
ATOM     16  C   UNL     1      11.293  10.847  21.590  0.00  0.00    +0.003 A 
ATOM     17  C   UNL     1      11.042   8.491  20.828  0.00  0.00    +0.044 C 
ATOM     20  C   UNL     1      13.291  11.611  22.713  0.00  0.00    +0.000 A 
ATOM     21  C   UNL     1      12.019  11.868  22.203  0.00  0.00    +0.000 A 
ENDBRANCH   9  11
ENDBRANCH   3   9
TORSDOF 3
ENDMDL
MODEL 8
REMARK VINA RESULT:      -6.5     20.032     21.130
REMARK  Name = 45784180
REMARK  4 active torsions:
REMARK  status: ('A' for Active; 'I' for Inactive)
REMARK    1  A    between atoms: N_3  and  C_9
REMARK    2  A    between atoms: C_5  and  C_10
REMARK    3  A    between atoms: C_9  and  C_11
REMARK    4  A    between atoms: C_12  and  C_17
REMARK                            x       y       z     vdW  Elec       q    Type
REMARK                         _______ _______ _______ _____ _____    ______ ____
ROOT
ATOM      3  N   UNL     1     -13.685   6.905  21.013  0.00  0.00    -0.297 NA
ATOM      5  C   UNL     1     -14.926   5.042  21.712  0.00  0.00    +0.090 C 
ATOM      6  C   UNL     1     -13.613   5.794  21.965  0.00  0.00    +0.097 C 
ATOM      7  C   UNL     1     -15.874   6.101  21.124  0.00  0.00    +0.029 C 
ATOM      8  C   UNL     1     -15.063   7.390  21.104  0.00  0.00    +0.085 C 
ENDROOT
BRANCH   5  10
ATOM      1 CL   UNL     1     -17.097   1.980  28.313  0.00  0.00    -0.083 Cl
ATOM      2  O   UNL     1     -16.320   3.314  22.717  0.00  0.00    -0.439 OA
ATOM      4  N   UNL     1     -15.165   4.577  24.204  0.00  0.00    -0.213 NA
ATOM     10  C   UNL     1     -15.447   4.336  22.942  0.00  0.00    +0.201 A 
ATOM     13  C   UNL     1     -15.912   3.641  24.879  0.00  0.00    +0.111 A 
ATOM     14  C   UNL     1     -16.620   2.867  23.973  0.00  0.00    +0.155 A 
ATOM     18  C   UNL     1     -16.050   3.377  26.249  0.00  0.00    +0.051 A 
ATOM     19  C   UNL     1     -17.474   1.826  24.316  0.00  0.00    +0.050 A 
ATOM     22  C   UNL     1     -16.904   2.334  26.636  0.00  0.00    +0.043 A 
ATOM     23  C   UNL     1     -17.600   1.575  25.687  0.00  0.00    +0.024 A 
ENDBRANCH   5  10
BRANCH   3   9
ATOM      9  C   UNL     1     -12.711   7.948  21.301  0.00  0.00    +0.119 C 
BRANCH   9  11
ATOM     11  C   UNL     1     -11.897   8.305  20.086  0.00  0.00    -0.030 A 
ATOM     12  C   UNL     1     -11.460   9.613  19.875  0.00  0.00    -0.046 A 
ATOM     15  C   UNL     1     -11.583   7.307  19.163  0.00  0.00    +0.005 A 
ATOM     16  C   UNL     1     -10.707   9.922  18.743  0.00  0.00    +0.003 A 
ATOM     17  C   UNL     1     -11.784  10.698  20.848  0.00  0.00    +0.044 C 
ATOM     20  C   UNL     1     -10.831   7.617  18.030  0.00  0.00    +0.000 A 
ATOM     21  C   UNL     1     -10.392   8.924  17.820  0.00  0.00    +0.000 A 
ENDBRANCH   9  11
ENDBRANCH   3   9
TORSDOF 3
ENDMDL
MODEL 9
REMARK VINA RESULT:      -6.4      6.265      9.288
REMARK  Name = 45784180
REMARK  4 active torsions:
REMARK  status: ('A' for Active; 'I' for Inactive)
REMARK    1  A    between atoms: N_3  and  C_9
REMARK    2  A    between atoms: C_5  and  C_10
REMARK    3  A    between atoms: C_9  and  C_11
REMARK    4  A    between atoms: C_12  and  C_17
REMARK                            x       y       z     vdW  Elec       q    Type
REMARK                         _______ _______ _______ _____ _____    ______ ____
ROOT
ATOM      3  N   UNL     1      -9.330  -9.297  17.115  0.00  0.00    -0.297 NA
ATOM      5  C   UNL     1     -10.842  -7.519  16.897  0.00  0.00    +0.090 C 
ATOM      6  C   UNL     1      -9.526  -8.073  16.336  0.00  0.00    +0.097 C 
ATOM      7  C   UNL     1     -11.573  -8.749  17.463  0.00  0.00    +0.029 C 
ATOM      8  C   UNL     1     -10.651  -9.925  17.168  0.00  0.00    +0.085 C 
ENDROOT
BRANCH   5  10
ATOM      1 CL   UNL     1     -14.125  -3.174  11.604  0.00  0.00    -0.083 Cl
ATOM      2  O   UNL     1     -12.959  -7.009  15.802  0.00  0.00    -0.439 OA
ATOM      4  N   UNL     1     -11.197  -5.796  15.055  0.00  0.00    -0.213 NA
ATOM     10  C   UNL     1     -11.629  -6.726  15.878  0.00  0.00    +0.201 A 
ATOM     13  C   UNL     1     -12.331  -5.427  14.372  0.00  0.00    +0.111 A 
ATOM     14  C   UNL     1     -13.411  -6.167  14.826  0.00  0.00    +0.155 A 
ATOM     18  C   UNL     1     -12.536  -4.480  13.358  0.00  0.00    +0.051 A 
ATOM     19  C   UNL     1     -14.711  -6.046  14.350  0.00  0.00    +0.050 A 
ATOM     22  C   UNL     1     -13.835  -4.329  12.851  0.00  0.00    +0.043 A 
ATOM     23  C   UNL     1     -14.899  -5.097  13.339  0.00  0.00    +0.024 A 
ENDBRANCH   5  10
BRANCH   3   9
ATOM      9  C   UNL     1      -8.324 -10.173  16.531  0.00  0.00    +0.119 C 
BRANCH   9  11
ATOM     11  C   UNL     1      -7.225 -10.495  17.508  0.00  0.00    -0.030 A 
ATOM     12  C   UNL     1      -5.884 -10.374  17.145  0.00  0.00    -0.046 A 
ATOM     15  C   UNL     1      -7.564 -10.920  18.792  0.00  0.00    +0.005 A 
ATOM     16  C   UNL     1      -4.883 -10.678  18.066  0.00  0.00    +0.003 A 
ATOM     17  C   UNL     1      -5.497  -9.920  15.776  0.00  0.00    +0.044 C 
ATOM     20  C   UNL     1      -6.562 -11.224  19.714  0.00  0.00    +0.000 A 
ATOM     21  C   UNL     1      -5.222 -11.102  19.351  0.00  0.00    +0.000 A 
ENDBRANCH   9  11
ENDBRANCH   3   9
TORSDOF 3
ENDMDL
MODEL 10
REMARK VINA RESULT:      -6.4     21.585     23.108
REMARK  Name = 45784180
REMARK  4 active torsions:
REMARK  status: ('A' for Active; 'I' for Inactive)
REMARK    1  A    between atoms: N_3  and  C_9
REMARK    2  A    between atoms: C_5  and  C_10
REMARK    3  A    between atoms: C_9  and  C_11
REMARK    4  A    between atoms: C_12  and  C_17
REMARK                            x       y       z     vdW  Elec       q    Type
REMARK                         _______ _______ _______ _____ _____    ______ ____
ROOT
ATOM      3  N   UNL     1      -9.664  11.190  16.767  0.00  0.00    -0.297 NA
ATOM      5  C   UNL     1     -10.123   9.439  18.258  0.00  0.00    +0.090 C 
ATOM      6  C   UNL     1     -10.116  10.969  18.143  0.00  0.00    +0.097 C 
ATOM      7  C   UNL     1     -10.288   8.940  16.812  0.00  0.00    +0.029 C 
ATOM      8  C   UNL     1     -10.393  10.204  15.969  0.00  0.00    +0.085 C 
ENDROOT
BRANCH   5  10
ATOM      1 CL   UNL     1     -15.653   7.579  23.119  0.00  0.00    -0.083 Cl
ATOM      2  O   UNL     1     -11.032   7.624  19.607  0.00  0.00    -0.439 OA
ATOM      4  N   UNL     1     -12.176   9.575  19.759  0.00  0.00    -0.213 NA
ATOM     10  C   UNL     1     -11.162   8.927  19.229  0.00  0.00    +0.201 A 
ATOM     13  C   UNL     1     -12.774   8.628  20.557  0.00  0.00    +0.111 A 
ATOM     14  C   UNL     1     -12.076   7.433  20.466  0.00  0.00    +0.155 A 
ATOM     18  C   UNL     1     -13.902   8.693  21.387  0.00  0.00    +0.051 A 
ATOM     19  C   UNL     1     -12.410   6.268  21.144  0.00  0.00    +0.050 A 
ATOM     22  C   UNL     1     -14.271   7.536  22.088  0.00  0.00    +0.043 A 
ATOM     23  C   UNL     1     -13.538   6.349  21.968  0.00  0.00    +0.024 A 
ENDBRANCH   5  10
BRANCH   3   9
ATOM      9  C   UNL     1      -9.902  12.553  16.316  0.00  0.00    +0.119 C 
BRANCH   9  11
ATOM     11  C   UNL     1      -8.775  13.475  16.698  0.00  0.00    -0.030 A 
ATOM     12  C   UNL     1      -9.015  14.635  17.434  0.00  0.00    -0.046 A 
ATOM     15  C   UNL     1      -7.476  13.156  16.304  0.00  0.00    +0.005 A 
ATOM     16  C   UNL     1      -7.957  15.475  17.777  0.00  0.00    +0.003 A 
ATOM     17  C   UNL     1     -10.398  14.998  17.867  0.00  0.00    +0.044 C 
ATOM     20  C   UNL     1      -6.416  13.997  16.647  0.00  0.00    +0.000 A 
ATOM     21  C   UNL     1      -6.657  15.155  17.384  0.00  0.00    +0.000 A 
ENDBRANCH   9  11
ENDBRANCH   3   9
TORSDOF 3
ENDMDL
