MODEL 1
REMARK VINA RESULT:      -6.8      0.000      0.000
REMARK  Name = 75536086
REMARK  8 active torsions:
REMARK  status: ('A' for Active; 'I' for Inactive)
REMARK    1  A    between atoms: O_1  and  C_10
REMARK    2  A    between atoms: O_2  and  C_12
REMARK    3  A    between atoms: N_5  and  C_9
REMARK    4  A    between atoms: N_7  and  C_19
REMARK    5  A    between atoms: C_8  and  C_13
REMARK    6  A    between atoms: C_16  and  C_17
REMARK    7  A    between atoms: C_17  and  C_22
REMARK    8  A    between atoms: C_17  and  C_23
REMARK                            x       y       z     vdW  Elec       q    Type
REMARK                         _______ _______ _______ _____ _____    ______ ____
ROOT
ATOM      8  C   UNL     1      13.963   9.047  19.201  0.00  0.00    +0.046 C 
ATOM      9  C   UNL     1      12.807   8.866  20.209  0.00  0.00    +0.111 C 
ATOM     10  C   UNL     1      11.561   8.857  19.324  0.00  0.00    +0.164 C 
ATOM     11  C   UNL     1      13.418   8.546  17.838  0.00  0.00    +0.044 C 
ATOM     12  C   UNL     1      12.002   8.042  18.114  0.00  0.00    +0.145 C 
ENDROOT
BRANCH   8  13
ATOM      6  N   UNL     1      17.354   8.527  20.819  0.00  0.00    -0.240 NA
ATOM     13  C   UNL     1      15.246   8.377  19.644  0.00  0.00    -0.024 A 
ATOM     14  C   UNL     1      15.518   7.055  19.312  0.00  0.00    +0.009 A 
ATOM     15  C   UNL     1      16.189   9.064  20.393  0.00  0.00    +0.116 A 
ATOM     18  C   UNL     1      16.706   6.468  19.731  0.00  0.00    +0.044 A 
ATOM     19  C   UNL     1      17.583   7.240  20.476  0.00  0.00    +0.121 A 
BRANCH  19   7
ATOM      4  O   UNL     1      21.015   5.214  21.816  0.00  0.00    -0.377 OA
ATOM      7  N   UNL     1      18.775   6.637  20.891  0.00  0.00    -0.311 N 
ATOM     20  C   UNL     1      19.186   5.388  20.233  0.00  0.00    +0.134 C 
ATOM     21  C   UNL     1      19.231   6.792  22.276  0.00  0.00    +0.134 C 
ATOM     24  C   UNL     1      20.682   5.172  20.429  0.00  0.00    +0.178 C 
ATOM     25  C   UNL     1      20.724   6.500  22.363  0.00  0.00    +0.178 C 
ENDBRANCH  19   7
ENDBRANCH   8  13
BRANCH   9   5
ATOM      3  O   UNL     1      11.385   8.859  22.711  0.00  0.00    -0.276 OA
ATOM      5  N   UNL     1      12.766   9.928  21.183  0.00  0.00    -0.309 N 
ATOM     16  C   UNL     1      12.050   9.836  22.370  0.00  0.00    +0.216 C 
ATOM     26  H   UNL     1      13.339  10.750  21.017  0.00  0.00    +0.149 HD
BRANCH  16  17
ATOM     17  C   UNL     1      12.168  11.095  23.226  0.00  0.00    +0.069 C 
ATOM     22  C   UNL     1      12.247  12.333  22.334  0.00  0.00    +0.017 C 
ATOM     23  C   UNL     1      10.995  11.213  24.197  0.00  0.00    +0.017 C 
ENDBRANCH  16  17
ENDBRANCH   9   5
BRANCH  10   1
ATOM      1  O   UNL     1      10.452   8.256  19.966  0.00  0.00    -0.387 OA
ATOM     27  H   UNL     1      10.762   7.906  20.819  0.00  0.00    +0.210 HD
ENDBRANCH  10   1
BRANCH  12   2
ATOM      2  O   UNL     1      12.066   6.654  18.428  0.00  0.00    -0.389 OA
ATOM     28  H   UNL     1      12.757   6.260  17.870  0.00  0.00    +0.210 HD
ENDBRANCH  12   2
TORSDOF 6
ENDMDL
MODEL 2
REMARK VINA RESULT:      -6.2     15.625     18.342
REMARK  Name = 75536086
REMARK  8 active torsions:
REMARK  status: ('A' for Active; 'I' for Inactive)
REMARK    1  A    between atoms: O_1  and  C_10
REMARK    2  A    between atoms: O_2  and  C_12
REMARK    3  A    between atoms: N_5  and  C_9
REMARK    4  A    between atoms: N_7  and  C_19
REMARK    5  A    between atoms: C_8  and  C_13
REMARK    6  A    between atoms: C_16  and  C_17
REMARK    7  A    between atoms: C_17  and  C_22
REMARK    8  A    between atoms: C_17  and  C_23
REMARK                            x       y       z     vdW  Elec       q    Type
REMARK                         _______ _______ _______ _____ _____    ______ ____
ROOT
ATOM      8  C   UNL     1      10.337   6.242   4.920  0.00  0.00    +0.046 C 
ATOM      9  C   UNL     1      11.421   6.213   6.020  0.00  0.00    +0.111 C 
ATOM     10  C   UNL     1      10.624   5.965   7.300  0.00  0.00    +0.164 C 
ATOM     11  C   UNL     1       9.132   5.450   5.492  0.00  0.00    +0.044 C 
ATOM     12  C   UNL     1       9.578   4.945   6.864  0.00  0.00    +0.145 C 
ENDROOT
BRANCH   8  13
ATOM      6  N   UNL     1      11.676   6.239   1.371  0.00  0.00    -0.240 NA
ATOM     13  C   UNL     1      10.836   5.738   3.582  0.00  0.00    -0.024 A 
ATOM     14  C   UNL     1      10.917   4.377   3.313  0.00  0.00    +0.009 A 
ATOM     15  C   UNL     1      11.224   6.621   2.587  0.00  0.00    +0.116 A 
ATOM     18  C   UNL     1      11.377   3.945   2.074  0.00  0.00    +0.044 A 
ATOM     19  C   UNL     1      11.741   4.907   1.146  0.00  0.00    +0.121 A 
BRANCH  19   7
ATOM      4  O   UNL     1      13.050   3.302  -2.513  0.00  0.00    -0.377 OA
ATOM      7  N   UNL     1      12.201   4.458  -0.096  0.00  0.00    -0.311 N 
ATOM     20  C   UNL     1      11.219   3.912  -1.043  0.00  0.00    +0.134 C 
ATOM     21  C   UNL     1      13.559   3.917  -0.222  0.00  0.00    +0.134 C 
ATOM     24  C   UNL     1      11.786   3.961  -2.458  0.00  0.00    +0.178 C 
ATOM     25  C   UNL     1      14.000   3.966  -1.680  0.00  0.00    +0.178 C 
ENDBRANCH  19   7
ENDBRANCH   8  13
BRANCH   9   5
ATOM      3  O   UNL     1      14.060   6.586   7.105  0.00  0.00    -0.276 OA
ATOM      5  N   UNL     1      12.164   7.446   6.081  0.00  0.00    -0.309 N 
ATOM     16  C   UNL     1      13.440   7.533   6.625  0.00  0.00    +0.216 C 
ATOM     26  H   UNL     1      11.757   8.271   5.649  0.00  0.00    +0.149 HD
BRANCH  16  17
ATOM     17  C   UNL     1      14.006   8.950   6.571  0.00  0.00    +0.069 C 
ATOM     22  C   UNL     1      15.479   8.914   6.169  0.00  0.00    +0.017 C 
ATOM     23  C   UNL     1      13.211   9.824   5.602  0.00  0.00    +0.017 C 
ENDBRANCH  16  17
ENDBRANCH   9   5
BRANCH  10   1
ATOM      1  O   UNL     1      11.430   5.454   8.344  0.00  0.00    -0.387 OA
ATOM     27  H   UNL     1      12.339   5.386   8.004  0.00  0.00    +0.210 HD
ENDBRANCH  10   1
BRANCH  12   2
ATOM      2  O   UNL     1      10.159   3.653   6.706  0.00  0.00    -0.389 OA
ATOM     28  H   UNL     1      10.925   3.603   7.303  0.00  0.00    +0.210 HD
ENDBRANCH  12   2
TORSDOF 6
ENDMDL
MODEL 3
REMARK VINA RESULT:      -6.0     27.200     29.293
REMARK  Name = 75536086
REMARK  8 active torsions:
REMARK  status: ('A' for Active; 'I' for Inactive)
REMARK    1  A    between atoms: O_1  and  C_10
REMARK    2  A    between atoms: O_2  and  C_12
REMARK    3  A    between atoms: N_5  and  C_9
REMARK    4  A    between atoms: N_7  and  C_19
REMARK    5  A    between atoms: C_8  and  C_13
REMARK    6  A    between atoms: C_16  and  C_17
REMARK    7  A    between atoms: C_17  and  C_22
REMARK    8  A    between atoms: C_17  and  C_23
REMARK                            x       y       z     vdW  Elec       q    Type
REMARK                         _______ _______ _______ _____ _____    ______ ____
ROOT
ATOM      8  C   UNL     1      -3.293 -10.522  14.725  0.00  0.00    +0.046 C 
ATOM      9  C   UNL     1      -3.495 -11.234  13.369  0.00  0.00    +0.111 C 
ATOM     10  C   UNL     1      -2.116 -11.817  13.064  0.00  0.00    +0.164 C 
ATOM     11  C   UNL     1      -2.067 -11.206  15.384  0.00  0.00    +0.044 C 
ATOM     12  C   UNL     1      -1.643 -12.318  14.424  0.00  0.00    +0.145 C 
ENDROOT
BRANCH   8  13
ATOM      6  N   UNL     1      -6.886  -9.976  15.814  0.00  0.00    -0.240 NA
ATOM     13  C   UNL     1      -4.540 -10.517  15.584  0.00  0.00    -0.024 A 
ATOM     14  C   UNL     1      -4.521 -11.016  16.881  0.00  0.00    +0.009 A 
ATOM     15  C   UNL     1      -5.737 -10.013  15.101  0.00  0.00    +0.116 A 
ATOM     18  C   UNL     1      -5.682 -10.995  17.646  0.00  0.00    +0.044 A 
ATOM     19  C   UNL     1      -6.828 -10.470  17.071  0.00  0.00    +0.121 A 
BRANCH  19   7
ATOM      4  O   UNL     1     -10.230 -10.183  19.524  0.00  0.00    -0.377 OA
ATOM      7  N   UNL     1      -7.987 -10.455  17.852  0.00  0.00    -0.311 N 
ATOM     20  C   UNL     1      -8.989  -9.412  17.588  0.00  0.00    +0.134 C 
ATOM     21  C   UNL     1      -7.946 -10.945  19.235  0.00  0.00    +0.134 C 
ATOM     24  C   UNL     1     -10.342  -9.845  18.142  0.00  0.00    +0.178 C 
ATOM     25  C   UNL     1      -9.354 -11.296  19.700  0.00  0.00    +0.178 C 
ENDBRANCH  19   7
ENDBRANCH   8  13
BRANCH   9   5
ATOM      3  O   UNL     1      -4.891 -11.913  10.947  0.00  0.00    -0.276 OA
ATOM      5  N   UNL     1      -3.934 -10.325  12.341  0.00  0.00    -0.309 N 
ATOM     16  C   UNL     1      -4.605 -10.744  11.198  0.00  0.00    +0.216 C 
ATOM     26  H   UNL     1      -3.798  -9.329  12.493  0.00  0.00    +0.149 HD
BRANCH  16  17
ATOM     17  C   UNL     1      -4.957  -9.587  10.266  0.00  0.00    +0.069 C 
ATOM     22  C   UNL     1      -5.600  -8.450  11.057  0.00  0.00    +0.017 C 
ATOM     23  C   UNL     1      -3.721  -9.085   9.521  0.00  0.00    +0.017 C 
ENDBRANCH  16  17
ENDBRANCH   9   5
BRANCH  10   1
ATOM      1  O   UNL     1      -2.176 -12.873  12.125  0.00  0.00    -0.387 OA
ATOM     27  H   UNL     1      -1.325 -13.343  12.158  0.00  0.00    +0.210 HD
ENDBRANCH  10   1
BRANCH  12   2
ATOM      2  O   UNL     1      -2.320 -13.517  14.790  0.00  0.00    -0.389 OA
ATOM     28  H   UNL     1      -3.230 -13.452  14.456  0.00  0.00    +0.210 HD
ENDBRANCH  12   2
TORSDOF 6
ENDMDL
MODEL 4
REMARK VINA RESULT:      -5.9      4.232      7.565
REMARK  Name = 75536086
REMARK  8 active torsions:
REMARK  status: ('A' for Active; 'I' for Inactive)
REMARK    1  A    between atoms: O_1  and  C_10
REMARK    2  A    between atoms: O_2  and  C_12
REMARK    3  A    between atoms: N_5  and  C_9
REMARK    4  A    between atoms: N_7  and  C_19
REMARK    5  A    between atoms: C_8  and  C_13
REMARK    6  A    between atoms: C_16  and  C_17
REMARK    7  A    between atoms: C_17  and  C_22
REMARK    8  A    between atoms: C_17  and  C_23
REMARK                            x       y       z     vdW  Elec       q    Type
REMARK                         _______ _______ _______ _____ _____    ______ ____
ROOT
ATOM      8  C   UNL     1      14.287   9.073  18.770  0.00  0.00    +0.046 C 
ATOM      9  C   UNL     1      13.925   9.545  17.345  0.00  0.00    +0.111 C 
ATOM     10  C   UNL     1      14.093   8.284  16.498  0.00  0.00    +0.164 C 
ATOM     11  C   UNL     1      14.058   7.539  18.778  0.00  0.00    +0.044 C 
ATOM     12  C   UNL     1      13.520   7.189  17.391  0.00  0.00    +0.145 C 
ENDROOT
BRANCH   8  13
ATOM      6  N   UNL     1      13.403  11.732  21.327  0.00  0.00    -0.240 NA
ATOM     13  C   UNL     1      13.536   9.821  19.851  0.00  0.00    -0.024 A 
ATOM     14  C   UNL     1      12.340   9.333  20.364  0.00  0.00    +0.009 A 
ATOM     15  C   UNL     1      14.021  11.015  20.361  0.00  0.00    +0.116 A 
ATOM     18  C   UNL     1      11.675  10.042  21.358  0.00  0.00    +0.044 A 
ATOM     19  C   UNL     1      12.242  11.225  21.801  0.00  0.00    +0.121 A 
BRANCH  19   7
ATOM      4  O   UNL     1       9.976  13.182  24.752  0.00  0.00    -0.377 OA
ATOM      7  N   UNL     1      11.563  11.927  22.802  0.00  0.00    -0.311 N 
ATOM     20  C   UNL     1      11.132  11.189  23.997  0.00  0.00    +0.134 C 
ATOM     21  C   UNL     1      10.733  13.084  22.449  0.00  0.00    +0.134 C 
ATOM     24  C   UNL     1      10.893  12.162  25.146  0.00  0.00    +0.178 C 
ATOM     25  C   UNL     1      10.515  13.956  23.681  0.00  0.00    +0.178 C 
ENDBRANCH  19   7
ENDBRANCH   8  13
BRANCH   9   5
ATOM      3  O   UNL     1      13.625  11.102  14.943  0.00  0.00    -0.276 OA
ATOM      5  N   UNL     1      14.782  10.612  16.894  0.00  0.00    -0.309 N 
ATOM     16  C   UNL     1      14.559  11.313  15.715  0.00  0.00    +0.216 C 
ATOM     26  H   UNL     1      15.544  10.901  17.500  0.00  0.00    +0.149 HD
BRANCH  16  17
ATOM     17  C   UNL     1      15.611  12.391  15.464  0.00  0.00    +0.069 C 
ATOM     22  C   UNL     1      16.273  12.797  16.779  0.00  0.00    +0.017 C 
ATOM     23  C   UNL     1      16.663  11.912  14.465  0.00  0.00    +0.017 C 
ENDBRANCH  16  17
ENDBRANCH   9   5
BRANCH  10   1
ATOM      1  O   UNL     1      13.389   8.363  15.273  0.00  0.00    -0.387 OA
ATOM     27  H   UNL     1      12.445   8.461  15.485  0.00  0.00    +0.210 HD
ENDBRANCH  10   1
BRANCH  12   2
ATOM      2  O   UNL     1      12.097   7.250  17.426  0.00  0.00    -0.389 OA
ATOM     28  H   UNL     1      11.772   6.960  16.557  0.00  0.00    +0.210 HD
ENDBRANCH  12   2
TORSDOF 6
ENDMDL
MODEL 5
REMARK VINA RESULT:      -5.8     26.403     28.225
REMARK  Name = 75536086
REMARK  8 active torsions:
REMARK  status: ('A' for Active; 'I' for Inactive)
REMARK    1  A    between atoms: O_1  and  C_10
REMARK    2  A    between atoms: O_2  and  C_12
REMARK    3  A    between atoms: N_5  and  C_9
REMARK    4  A    between atoms: N_7  and  C_19
REMARK    5  A    between atoms: C_8  and  C_13
REMARK    6  A    between atoms: C_16  and  C_17
REMARK    7  A    between atoms: C_17  and  C_22
REMARK    8  A    between atoms: C_17  and  C_23
REMARK                            x       y       z     vdW  Elec       q    Type
REMARK                         _______ _______ _______ _____ _____    ______ ____
ROOT
ATOM      8  C   UNL     1     -10.808   8.742  17.805  0.00  0.00    +0.046 C 
ATOM      9  C   UNL     1     -11.448   9.971  17.123  0.00  0.00    +0.111 C 
ATOM     10  C   UNL     1     -10.875   9.932  15.707  0.00  0.00    +0.164 C 
ATOM     11  C   UNL     1     -10.416   7.776  16.656  0.00  0.00    +0.044 C 
ATOM     12  C   UNL     1     -10.893   8.446  15.367  0.00  0.00    +0.145 C 
ENDROOT
BRANCH   8  13
ATOM      6  N   UNL     1     -13.918   7.534  19.609  0.00  0.00    -0.240 NA
ATOM     13  C   UNL     1     -11.694   8.123  18.865  0.00  0.00    -0.024 A 
ATOM     14  C   UNL     1     -11.155   7.591  20.030  0.00  0.00    +0.009 A 
ATOM     15  C   UNL     1     -13.070   8.070  18.703  0.00  0.00    +0.116 A 
ATOM     18  C   UNL     1     -11.996   7.031  20.987  0.00  0.00    +0.044 A 
ATOM     19  C   UNL     1     -13.358   7.027  20.731  0.00  0.00    +0.121 A 
BRANCH  19   7
ATOM      4  O   UNL     1     -15.932   5.135  23.463  0.00  0.00    -0.377 OA
ATOM      7  N   UNL     1     -14.191   6.462  21.701  0.00  0.00    -0.311 N 
ATOM     20  C   UNL     1     -13.855   5.125  22.210  0.00  0.00    +0.134 C 
ATOM     21  C   UNL     1     -15.618   6.801  21.728  0.00  0.00    +0.134 C 
ATOM     24  C   UNL     1     -14.527   4.905  23.561  0.00  0.00    +0.178 C 
ATOM     25  C   UNL     1     -16.195   6.491  23.104  0.00  0.00    +0.178 C 
ENDBRANCH  19   7
ENDBRANCH   8  13
BRANCH   9   5
ATOM      3  O   UNL     1     -12.929  12.436  17.042  0.00  0.00    -0.276 OA
ATOM      5  N   UNL     1     -11.120  11.199  17.802  0.00  0.00    -0.309 N 
ATOM     16  C   UNL     1     -11.898  12.346  17.705  0.00  0.00    +0.216 C 
ATOM     26  H   UNL     1     -10.318  11.200  18.426  0.00  0.00    +0.149 HD
BRANCH  16  17
ATOM     17  C   UNL     1     -11.332  13.510  18.516  0.00  0.00    +0.069 C 
ATOM     22  C   UNL     1     -10.181  14.169  17.760  0.00  0.00    +0.017 C 
ATOM     23  C   UNL     1     -12.416  14.537  18.836  0.00  0.00    +0.017 C 
ENDBRANCH  16  17
ENDBRANCH   9   5
BRANCH  10   1
ATOM      1  O   UNL     1     -11.657  10.674  14.791  0.00  0.00    -0.387 OA
ATOM     27  H   UNL     1     -11.918  11.500  15.232  0.00  0.00    +0.210 HD
ENDBRANCH  10   1
BRANCH  12   2
ATOM      2  O   UNL     1     -12.217   8.002  15.087  0.00  0.00    -0.389 OA
ATOM     28  H   UNL     1     -12.467   8.359  14.218  0.00  0.00    +0.210 HD
ENDBRANCH  12   2
TORSDOF 6
ENDMDL
MODEL 6
REMARK VINA RESULT:      -5.8     15.502     18.112
REMARK  Name = 75536086
REMARK  8 active torsions:
REMARK  status: ('A' for Active; 'I' for Inactive)
REMARK    1  A    between atoms: O_1  and  C_10
REMARK    2  A    between atoms: O_2  and  C_12
REMARK    3  A    between atoms: N_5  and  C_9
REMARK    4  A    between atoms: N_7  and  C_19
REMARK    5  A    between atoms: C_8  and  C_13
REMARK    6  A    between atoms: C_16  and  C_17
REMARK    7  A    between atoms: C_17  and  C_22
REMARK    8  A    between atoms: C_17  and  C_23
REMARK                            x       y       z     vdW  Elec       q    Type
REMARK                         _______ _______ _______ _____ _____    ______ ____
ROOT
ATOM      8  C   UNL     1       9.300   5.676   5.494  0.00  0.00    +0.046 C 
ATOM      9  C   UNL     1       9.054   7.173   5.786  0.00  0.00    +0.111 C 
ATOM     10  C   UNL     1       8.706   7.193   7.273  0.00  0.00    +0.164 C 
ATOM     11  C   UNL     1       9.663   5.033   6.857  0.00  0.00    +0.044 C 
ATOM     12  C   UNL     1       9.674   6.178   7.869  0.00  0.00    +0.145 C 
ENDROOT
BRANCH   8  13
ATOM      6  N   UNL     1      11.302   3.950   2.774  0.00  0.00    -0.240 NA
ATOM     13  C   UNL     1      10.324   5.445   4.403  0.00  0.00    -0.024 A 
ATOM     14  C   UNL     1      11.205   6.449   4.021  0.00  0.00    +0.009 A 
ATOM     15  C   UNL     1      10.412   4.223   3.753  0.00  0.00    +0.116 A 
ATOM     18  C   UNL     1      12.136   6.206   3.017  0.00  0.00    +0.044 A 
ATOM     19  C   UNL     1      12.144   4.951   2.430  0.00  0.00    +0.121 A 
BRANCH  19   7
ATOM      4  O   UNL     1      14.810   4.057  -0.695  0.00  0.00    -0.377 OA
ATOM      7  N   UNL     1      13.086   4.720   1.423  0.00  0.00    -0.311 N 
ATOM     20  C   UNL     1      12.701   5.008   0.034  0.00  0.00    +0.134 C 
ATOM     21  C   UNL     1      14.089   3.662   1.587  0.00  0.00    +0.134 C 
ATOM     24  C   UNL     1      13.951   5.190  -0.819  0.00  0.00    +0.178 C 
ATOM     25  C   UNL     1      15.264   3.916   0.650  0.00  0.00    +0.178 C 
ENDBRANCH  19   7
ENDBRANCH   8  13
BRANCH   9   5
ATOM      3  O   UNL     1       9.213   9.438   4.019  0.00  0.00    -0.276 OA
ATOM      5  N   UNL     1       7.991   7.715   4.977  0.00  0.00    -0.309 N 
ATOM     16  C   UNL     1       8.160   8.817   4.149  0.00  0.00    +0.216 C 
ATOM     26  H   UNL     1       7.100   7.227   4.971  0.00  0.00    +0.149 HD
BRANCH  16  17
ATOM     17  C   UNL     1       6.881   9.192   3.403  0.00  0.00    +0.069 C 
ATOM     22  C   UNL     1       6.160  10.325   4.130  0.00  0.00    +0.017 C 
ATOM     23  C   UNL     1       7.183   9.593   1.960  0.00  0.00    +0.017 C 
ENDBRANCH  16  17
ENDBRANCH   9   5
BRANCH  10   1
ATOM      1  O   UNL     1       8.889   8.472   7.850  0.00  0.00    -0.387 OA
ATOM     27  H   UNL     1       8.868   8.363   8.816  0.00  0.00    +0.210 HD
ENDBRANCH  10   1
BRANCH  12   2
ATOM      2  O   UNL     1      10.994   6.711   7.939  0.00  0.00    -0.389 OA
ATOM     28  H   UNL     1      11.384   6.416   8.779  0.00  0.00    +0.210 HD
ENDBRANCH  12   2
TORSDOF 6
ENDMDL
MODEL 7
REMARK VINA RESULT:      -5.8     26.858     30.114
REMARK  Name = 75536086
REMARK  8 active torsions:
REMARK  status: ('A' for Active; 'I' for Inactive)
REMARK    1  A    between atoms: O_1  and  C_10
REMARK    2  A    between atoms: O_2  and  C_12
REMARK    3  A    between atoms: N_5  and  C_9
REMARK    4  A    between atoms: N_7  and  C_19
REMARK    5  A    between atoms: C_8  and  C_13
REMARK    6  A    between atoms: C_16  and  C_17
REMARK    7  A    between atoms: C_17  and  C_22
REMARK    8  A    between atoms: C_17  and  C_23
REMARK                            x       y       z     vdW  Elec       q    Type
REMARK                         _______ _______ _______ _____ _____    ______ ____
ROOT
ATOM      8  C   UNL     1      -6.073 -10.021  17.895  0.00  0.00    +0.046 C 
ATOM      9  C   UNL     1      -5.136 -11.104  17.316  0.00  0.00    +0.111 C 
ATOM     10  C   UNL     1      -4.615 -11.826  18.558  0.00  0.00    +0.164 C 
ATOM     11  C   UNL     1      -6.497 -10.534  19.296  0.00  0.00    +0.044 C 
ATOM     12  C   UNL     1      -5.846 -11.908  19.452  0.00  0.00    +0.145 C 
ENDROOT
BRANCH   8  13
ATOM      6  N   UNL     1      -8.318  -9.974  14.837  0.00  0.00    -0.240 NA
ATOM     13  C   UNL     1      -7.230  -9.685  16.977  0.00  0.00    -0.024 A 
ATOM     14  C   UNL     1      -8.238  -8.818  17.381  0.00  0.00    +0.009 A 
ATOM     15  C   UNL     1      -7.315 -10.233  15.707  0.00  0.00    +0.116 A 
ATOM     18  C   UNL     1      -9.286  -8.527  16.515  0.00  0.00    +0.044 A 
ATOM     19  C   UNL     1      -9.280  -9.126  15.265  0.00  0.00    +0.121 A 
BRANCH  19   7
ATOM      4  O   UNL     1     -12.630  -8.364  12.843  0.00  0.00    -0.377 OA
ATOM      7  N   UNL     1     -10.339  -8.824  14.404  0.00  0.00    -0.311 N 
ATOM     20  C   UNL     1     -11.430  -7.981  14.915  0.00  0.00    +0.134 C 
ATOM     21  C   UNL     1     -10.723  -9.773  13.354  0.00  0.00    +0.134 C 
ATOM     24  C   UNL     1     -12.186  -7.355  13.749  0.00  0.00    +0.178 C 
ATOM     25  C   UNL     1     -11.517  -9.051  12.272  0.00  0.00    +0.178 C 
ENDBRANCH  19   7
ENDBRANCH   8  13
BRANCH   9   5
ATOM      3  O   UNL     1      -3.618 -12.412  15.251  0.00  0.00    -0.276 OA
ATOM      5  N   UNL     1      -4.066 -10.534  16.537  0.00  0.00    -0.309 N 
ATOM     16  C   UNL     1      -3.385 -11.244  15.555  0.00  0.00    +0.216 C 
ATOM     26  H   UNL     1      -3.846  -9.552  16.674  0.00  0.00    +0.149 HD
BRANCH  16  17
ATOM     17  C   UNL     1      -2.296 -10.414  14.879  0.00  0.00    +0.069 C 
ATOM     22  C   UNL     1      -1.029 -10.415  15.731  0.00  0.00    +0.017 C 
ATOM     23  C   UNL     1      -1.995 -10.939  13.477  0.00  0.00    +0.017 C 
ENDBRANCH  16  17
ENDBRANCH   9   5
BRANCH  10   1
ATOM      1  O   UNL     1      -4.115 -13.116  18.259  0.00  0.00    -0.387 OA
ATOM     27  H   UNL     1      -4.879 -13.689  18.074  0.00  0.00    +0.210 HD
ENDBRANCH  10   1
BRANCH  12   2
ATOM      2  O   UNL     1      -6.755 -12.899  18.980  0.00  0.00    -0.389 OA
ATOM     28  H   UNL     1      -7.570 -12.442  18.711  0.00  0.00    +0.210 HD
ENDBRANCH  12   2
TORSDOF 6
ENDMDL
MODEL 8
REMARK VINA RESULT:      -5.7     27.479     29.135
REMARK  Name = 75536086
REMARK  8 active torsions:
REMARK  status: ('A' for Active; 'I' for Inactive)
REMARK    1  A    between atoms: O_1  and  C_10
REMARK    2  A    between atoms: O_2  and  C_12
REMARK    3  A    between atoms: N_5  and  C_9
REMARK    4  A    between atoms: N_7  and  C_19
REMARK    5  A    between atoms: C_8  and  C_13
REMARK    6  A    between atoms: C_16  and  C_17
REMARK    7  A    between atoms: C_17  and  C_22
REMARK    8  A    between atoms: C_17  and  C_23
REMARK                            x       y       z     vdW  Elec       q    Type
REMARK                         _______ _______ _______ _____ _____    ______ ____
ROOT
ATOM      8  C   UNL     1      -6.267 -12.223  16.902  0.00  0.00    +0.046 C 
ATOM      9  C   UNL     1      -6.611 -11.178  17.986  0.00  0.00    +0.111 C 
ATOM     10  C   UNL     1      -6.230 -11.878  19.290  0.00  0.00    +0.164 C 
ATOM     11  C   UNL     1      -5.207 -13.160  17.538  0.00  0.00    +0.044 C 
ATOM     12  C   UNL     1      -4.933 -12.595  18.931  0.00  0.00    +0.145 C 
ENDROOT
BRANCH   8  13
ATOM      6  N   UNL     1      -4.076 -10.660  14.228  0.00  0.00    -0.240 NA
ATOM     13  C   UNL     1      -5.840 -11.598  15.590  0.00  0.00    -0.024 A 
ATOM     14  C   UNL     1      -6.755 -11.381  14.567  0.00  0.00    +0.009 A 
ATOM     15  C   UNL     1      -4.523 -11.223  15.373  0.00  0.00    +0.116 A 
ATOM     18  C   UNL     1      -6.333 -10.803  13.375  0.00  0.00    +0.044 A 
ATOM     19  C   UNL     1      -4.995 -10.464  13.256  0.00  0.00    +0.121 A 
BRANCH  19   7
ATOM      4  O   UNL     1      -3.898  -8.918   9.504  0.00  0.00    -0.377 OA
ATOM      7  N   UNL     1      -4.585  -9.883  12.052  0.00  0.00    -0.311 N 
ATOM     20  C   UNL     1      -5.614  -9.312  11.171  0.00  0.00    +0.134 C 
ATOM     21  C   UNL     1      -3.385 -10.380  11.371  0.00  0.00    +0.134 C 
ATOM     24  C   UNL     1      -4.976  -8.311  10.215  0.00  0.00    +0.178 C 
ATOM     25  C   UNL     1      -2.866  -9.322  10.404  0.00  0.00    +0.178 C 
ENDBRANCH  19   7
ENDBRANCH   8  13
BRANCH   9   5
ATOM      3  O   UNL     1      -7.751  -8.816  16.802  0.00  0.00    -0.276 OA
ATOM      5  N   UNL     1      -8.004 -10.810  17.961  0.00  0.00    -0.309 N 
ATOM     16  C   UNL     1      -8.466  -9.644  17.363  0.00  0.00    +0.216 C 
ATOM     26  H   UNL     1      -8.678 -11.466  18.344  0.00  0.00    +0.149 HD
BRANCH  16  17
ATOM     17  C   UNL     1      -9.981  -9.486  17.475  0.00  0.00    +0.069 C 
ATOM     22  C   UNL     1     -10.463  -9.992  18.833  0.00  0.00    +0.017 C 
ATOM     23  C   UNL     1     -10.400  -8.033  17.269  0.00  0.00    +0.017 C 
ENDBRANCH  16  17
ENDBRANCH   9   5
BRANCH  10   1
ATOM      1  O   UNL     1      -6.031 -10.964  20.351  0.00  0.00    -0.387 OA
ATOM     27  H   UNL     1      -6.796 -10.363  20.367  0.00  0.00    +0.210 HD
ENDBRANCH  10   1
BRANCH  12   2
ATOM      2  O   UNL     1      -3.849 -11.675  18.844  0.00  0.00    -0.389 OA
ATOM     28  H   UNL     1      -3.059 -12.178  18.585  0.00  0.00    +0.210 HD
ENDBRANCH  12   2
TORSDOF 6
ENDMDL
MODEL 9
REMARK VINA RESULT:      -5.5     14.222     16.213
REMARK  Name = 75536086
REMARK  8 active torsions:
REMARK  status: ('A' for Active; 'I' for Inactive)
REMARK    1  A    between atoms: O_1  and  C_10
REMARK    2  A    between atoms: O_2  and  C_12
REMARK    3  A    between atoms: N_5  and  C_9
REMARK    4  A    between atoms: N_7  and  C_19
REMARK    5  A    between atoms: C_8  and  C_13
REMARK    6  A    between atoms: C_16  and  C_17
REMARK    7  A    between atoms: C_17  and  C_22
REMARK    8  A    between atoms: C_17  and  C_23
REMARK                            x       y       z     vdW  Elec       q    Type
REMARK                         _______ _______ _______ _____ _____    ______ ____
ROOT
ATOM      8  C   UNL     1      11.112   6.342   6.779  0.00  0.00    +0.046 C 
ATOM      9  C   UNL     1      10.161   6.349   5.561  0.00  0.00    +0.111 C 
ATOM     10  C   UNL     1       8.780   6.154   6.186  0.00  0.00    +0.164 C 
ATOM     11  C   UNL     1      10.240   6.738   7.999  0.00  0.00    +0.044 C 
ATOM     12  C   UNL     1       8.844   7.016   7.442  0.00  0.00    +0.145 C 
ENDROOT
BRANCH   8  13
ATOM      6  N   UNL     1      14.743   7.433   6.663  0.00  0.00    -0.240 NA
ATOM     13  C   UNL     1      12.337   7.209   6.580  0.00  0.00    -0.024 A 
ATOM     14  C   UNL     1      12.222   8.527   6.154  0.00  0.00    +0.009 A 
ATOM     15  C   UNL     1      13.609   6.713   6.819  0.00  0.00    +0.116 A 
ATOM     18  C   UNL     1      13.365   9.299   5.983  0.00  0.00    +0.044 A 
ATOM     19  C   UNL     1      14.591   8.711   6.248  0.00  0.00    +0.121 A 
BRANCH  19   7
ATOM      4  O   UNL     1      18.112  10.991   5.965  0.00  0.00    -0.377 OA
ATOM      7  N   UNL     1      15.732   9.499   6.072  0.00  0.00    -0.311 N 
ATOM     20  C   UNL     1      17.029   8.822   5.926  0.00  0.00    +0.134 C 
ATOM     21  C   UNL     1      15.792  10.842   6.660  0.00  0.00    +0.134 C 
ATOM     24  C   UNL     1      18.026   9.758   5.253  0.00  0.00    +0.178 C 
ATOM     25  C   UNL     1      16.856  11.669   5.948  0.00  0.00    +0.178 C 
ENDBRANCH  19   7
ENDBRANCH   8  13
BRANCH   9   5
ATOM      3  O   UNL     1      11.390   6.665   2.979  0.00  0.00    -0.276 OA
ATOM      5  N   UNL     1      10.478   5.303   4.621  0.00  0.00    -0.309 N 
ATOM     16  C   UNL     1      11.074   5.550   3.391  0.00  0.00    +0.216 C 
ATOM     26  H   UNL     1      10.312   4.342   4.903  0.00  0.00    +0.149 HD
BRANCH  16  17
ATOM     17  C   UNL     1      11.301   4.275   2.582  0.00  0.00    +0.069 C 
ATOM     22  C   UNL     1      10.269   4.170   1.462  0.00  0.00    +0.017 C 
ATOM     23  C   UNL     1      12.716   4.232   2.007  0.00  0.00    +0.017 C 
ENDBRANCH  16  17
ENDBRANCH   9   5
BRANCH  10   1
ATOM      1  O   UNL     1       7.739   6.579   5.328  0.00  0.00    -0.387 OA
ATOM     27  H   UNL     1       7.259   7.293   5.783  0.00  0.00    +0.210 HD
ENDBRANCH  10   1
BRANCH  12   2
ATOM      2  O   UNL     1       8.751   8.400   7.116  0.00  0.00    -0.389 OA
ATOM     28  H   UNL     1       9.657   8.752   7.078  0.00  0.00    +0.210 HD
ENDBRANCH  12   2
TORSDOF 6
ENDMDL
MODEL 10
REMARK VINA RESULT:      -5.4     27.229     29.697
REMARK  Name = 75536086
REMARK  8 active torsions:
REMARK  status: ('A' for Active; 'I' for Inactive)
REMARK    1  A    between atoms: O_1  and  C_10
REMARK    2  A    between atoms: O_2  and  C_12
REMARK    3  A    between atoms: N_5  and  C_9
REMARK    4  A    between atoms: N_7  and  C_19
REMARK    5  A    between atoms: C_8  and  C_13
REMARK    6  A    between atoms: C_16  and  C_17
REMARK    7  A    between atoms: C_17  and  C_22
REMARK    8  A    between atoms: C_17  and  C_23
REMARK                            x       y       z     vdW  Elec       q    Type
REMARK                         _______ _______ _______ _____ _____    ______ ____
ROOT
ATOM      8  C   UNL     1      -8.628 -11.875  17.329  0.00  0.00    +0.046 C 
ATOM      9  C   UNL     1      -9.090 -10.654  18.156  0.00  0.00    +0.111 C 
ATOM     10  C   UNL     1      -9.619 -11.278  19.447  0.00  0.00    +0.164 C 
ATOM     11  C   UNL     1      -8.359 -13.005  18.357  0.00  0.00    +0.044 C 
ATOM     12  C   UNL     1      -8.613 -12.387  19.732  0.00  0.00    +0.145 C 
ENDROOT
BRANCH   8  13
ATOM      6  N   UNL     1      -6.464 -11.689  14.219  0.00  0.00    -0.240 NA
ATOM     13  C   UNL     1      -7.456 -11.567  16.420  0.00  0.00    -0.024 A 
ATOM     14  C   UNL     1      -6.329 -10.911  16.900  0.00  0.00    +0.009 A 
ATOM     15  C   UNL     1      -7.475 -11.932  15.083  0.00  0.00    +0.116 A 
ATOM     18  C   UNL     1      -5.268 -10.644  16.042  0.00  0.00    +0.044 A 
ATOM     19  C   UNL     1      -5.384 -11.050  14.722  0.00  0.00    +0.121 A 
BRANCH  19   7
ATOM      4  O   UNL     1      -2.156 -10.492  12.087  0.00  0.00    -0.377 OA
ATOM      7  N   UNL     1      -4.309 -10.776  13.870  0.00  0.00    -0.311 N 
ATOM     20  C   UNL     1      -4.523 -10.899  12.421  0.00  0.00    +0.134 C 
ATOM     21  C   UNL     1      -2.935 -11.022  14.322  0.00  0.00    +0.134 C 
ATOM     24  C   UNL     1      -3.463 -10.097  11.674  0.00  0.00    +0.178 C 
ATOM     25  C   UNL     1      -1.961 -10.214  13.473  0.00  0.00    +0.178 C 
ENDBRANCH  19   7
ENDBRANCH   8  13
BRANCH   9   5
ATOM      3  O   UNL     1      -8.783  -8.051  16.969  0.00  0.00    -0.276 OA
ATOM      5  N   UNL     1     -10.104  -9.891  17.473  0.00  0.00    -0.309 N 
ATOM     16  C   UNL     1      -9.864  -8.635  16.928  0.00  0.00    +0.216 C 
ATOM     26  H   UNL     1     -11.013 -10.322  17.333  0.00  0.00    +0.149 HD
BRANCH  16  17
ATOM     17  C   UNL     1     -11.102  -8.038  16.262  0.00  0.00    +0.069 C 
ATOM     22  C   UNL     1     -11.056  -6.514  16.336  0.00  0.00    +0.017 C 
ATOM     23  C   UNL     1     -11.222  -8.497  14.810  0.00  0.00    +0.017 C 
ENDBRANCH  16  17
ENDBRANCH   9   5
BRANCH  10   1
ATOM      1  O   UNL     1      -9.666 -10.347  20.511  0.00  0.00    -0.387 OA
ATOM     27  H   UNL     1      -9.250 -10.766  21.284  0.00  0.00    +0.210 HD
ENDBRANCH  10   1
BRANCH  12   2
ATOM      2  O   UNL     1      -7.389 -11.853  20.225  0.00  0.00    -0.389 OA
ATOM     28  H   UNL     1      -7.593 -11.008  20.660  0.00  0.00    +0.210 HD
ENDBRANCH  12   2
TORSDOF 6
ENDMDL
