MODEL 1
REMARK VINA RESULT:      -6.4      0.000      0.000
REMARK  Name = 28960535
REMARK  7 active torsions:
REMARK  status: ('A' for Active; 'I' for Inactive)
REMARK    1  A    between atoms: O_3  and  C_12
REMARK    2  A    between atoms: O_6  and  C_29
REMARK    3  A    between atoms: O_6  and  C_30
REMARK    4  A    between atoms: N_7  and  C_11
REMARK    5  A    between atoms: N_8  and  C_13
REMARK    6  A    between atoms: N_10  and  C_24
REMARK    7  A    between atoms: C_21  and  C_22
REMARK                            x       y       z     vdW  Elec       q    Type
REMARK                         _______ _______ _______ _____ _____    ______ ____
ROOT
ATOM      1  O   UNL     1      -4.953 -10.232  18.114  0.00  0.00    -0.342 OA
ATOM      2  O   UNL     1      -4.560 -12.226  19.230  0.00  0.00    -0.347 OA
ATOM     11  C   UNL     1      -4.733 -12.254  16.818  0.00  0.00    +0.143 C 
ATOM     12  C   UNL     1      -6.256 -12.501  16.909  0.00  0.00    +0.159 C 
ATOM     13  C   UNL     1      -7.025 -11.356  17.606  0.00  0.00    +0.136 C 
ATOM     14  C   UNL     1      -4.238 -11.473  18.049  0.00  0.00    +0.270 C 
ATOM     15  C   UNL     1      -6.196 -10.642  18.692  0.00  0.00    +0.170 C 
ATOM     16  C   UNL     1      -5.698 -11.558  19.795  0.00  0.00    +0.196 C 
ENDROOT
BRANCH  13   8
ATOM      5  O   UNL     1      -9.557 -10.018  17.568  0.00  0.00    -0.252 OA
ATOM      8  N   UNL     1      -7.480 -10.394  16.625  0.00  0.00    -0.291 N 
ATOM     10  N   UNL     1      -8.896  -8.906  15.608  0.00  0.00    -0.269 N 
ATOM     23  C   UNL     1      -8.737  -9.786  16.683  0.00  0.00    +0.304 C 
ATOM     31  H   UNL     1      -6.889 -10.211  15.820  0.00  0.00    +0.151 HD
ATOM     35  H   UNL     1      -8.116  -8.829  14.962  0.00  0.00    +0.156 HD
BRANCH  10  24
ATOM     24  C   UNL     1     -10.019  -8.100  15.306  0.00  0.00    +0.035 A 
ATOM     25  C   UNL     1     -10.194  -6.878  15.954  0.00  0.00    +0.027 A 
ATOM     26  C   UNL     1     -10.950  -8.529  14.359  0.00  0.00    +0.027 A 
ATOM     27  C   UNL     1     -11.301  -6.083  15.656  0.00  0.00    +0.047 A 
ATOM     28  C   UNL     1     -12.057  -7.733  14.062  0.00  0.00    +0.047 A 
ATOM     29  C   UNL     1     -12.232  -6.511  14.710  0.00  0.00    +0.120 A 
BRANCH  29   6
ATOM      6  O   UNL     1     -13.313  -5.735  14.419  0.00  0.00    -0.495 OA
ATOM     30  C   UNL     1     -13.093  -4.611  13.569  0.00  0.00    +0.277 C 
ENDBRANCH  29   6
ENDBRANCH  10  24
ENDBRANCH  13   8
BRANCH  11   7
ATOM      7  N   UNL     1      -4.416 -11.509  15.599  0.00  0.00    -0.293 NA
ATOM     17  C   UNL     1      -2.961 -11.438  15.405  0.00  0.00    +0.085 C 
ATOM     18  C   UNL     1      -5.077 -12.119  14.437  0.00  0.00    +0.085 C 
ATOM     19  C   UNL     1      -2.611 -10.615  14.163  0.00  0.00    +0.028 C 
ATOM     20  C   UNL     1      -4.800 -11.321  13.162  0.00  0.00    +0.028 C 
ATOM     21  C   UNL     1      -3.299 -11.172  12.918  0.00  0.00    +0.077 C 
BRANCH  21  22
ATOM      4  O   UNL     1      -1.941  -9.937  11.389  0.00  0.00    -0.276 OA
ATOM      9  N   UNL     1      -4.226  -9.827  11.150  0.00  0.00    -0.329 N 
ATOM     22  C   UNL     1      -3.068 -10.263  11.750  0.00  0.00    +0.214 C 
ATOM     33  H   UNL     1      -5.147 -10.102  11.477  0.00  0.00    +0.145 HD
ATOM     34  H   UNL     1      -4.195  -9.202  10.351  0.00  0.00    +0.145 HD
ENDBRANCH  21  22
ENDBRANCH  11   7
BRANCH  12   3
ATOM      3  O   UNL     1      -6.459 -13.711  17.653  0.00  0.00    -0.388 OA
ATOM     32  H   UNL     1      -6.148 -13.554  18.560  0.00  0.00    +0.210 HD
ENDBRANCH  12   3
TORSDOF 6
ENDMDL
MODEL 2
REMARK VINA RESULT:      -6.4      2.685      6.652
REMARK  Name = 28960535
REMARK  7 active torsions:
REMARK  status: ('A' for Active; 'I' for Inactive)
REMARK    1  A    between atoms: O_3  and  C_12
REMARK    2  A    between atoms: O_6  and  C_29
REMARK    3  A    between atoms: O_6  and  C_30
REMARK    4  A    between atoms: N_7  and  C_11
REMARK    5  A    between atoms: N_8  and  C_13
REMARK    6  A    between atoms: N_10  and  C_24
REMARK    7  A    between atoms: C_21  and  C_22
REMARK                            x       y       z     vdW  Elec       q    Type
REMARK                         _______ _______ _______ _____ _____    ______ ____
ROOT
ATOM      1  O   UNL     1      -9.321  -8.217  17.483  0.00  0.00    -0.342 OA
ATOM      2  O   UNL     1     -11.342  -9.156  18.125  0.00  0.00    -0.347 OA
ATOM     11  C   UNL     1      -9.440 -10.608  17.773  0.00  0.00    +0.143 C 
ATOM     12  C   UNL     1      -9.825 -10.789  16.287  0.00  0.00    +0.159 C 
ATOM     13  C   UNL     1      -9.799  -9.472  15.480  0.00  0.00    +0.136 C 
ATOM     14  C   UNL     1      -9.917  -9.240  18.292  0.00  0.00    +0.270 C 
ATOM     15  C   UNL     1     -10.162  -8.234  16.326  0.00  0.00    +0.170 C 
ATOM     16  C   UNL     1     -11.530  -8.310  16.980  0.00  0.00    +0.196 C 
ENDROOT
BRANCH  13   8
ATOM      5  O   UNL     1      -9.027 -10.212  12.823  0.00  0.00    -0.252 OA
ATOM      8  N   UNL     1      -8.498  -9.285  14.873  0.00  0.00    -0.291 N 
ATOM     10  N   UNL     1      -6.878  -9.372  13.255  0.00  0.00    -0.269 N 
ATOM     23  C   UNL     1      -8.207  -9.678  13.565  0.00  0.00    +0.304 C 
ATOM     31  H   UNL     1      -7.745  -8.923  15.451  0.00  0.00    +0.151 HD
ATOM     35  H   UNL     1      -6.330  -8.927  13.986  0.00  0.00    +0.156 HD
BRANCH  10  24
ATOM     24  C   UNL     1      -6.194  -9.606  12.039  0.00  0.00    +0.035 A 
ATOM     25  C   UNL     1      -5.774 -10.896  11.713  0.00  0.00    +0.027 A 
ATOM     26  C   UNL     1      -5.941  -8.548  11.166  0.00  0.00    +0.027 A 
ATOM     27  C   UNL     1      -5.100 -11.127  10.514  0.00  0.00    +0.047 A 
ATOM     28  C   UNL     1      -5.267  -8.780   9.967  0.00  0.00    +0.047 A 
ATOM     29  C   UNL     1      -4.846 -10.069   9.641  0.00  0.00    +0.120 A 
BRANCH  29   6
ATOM      6  O   UNL     1      -4.188 -10.295   8.471  0.00  0.00    -0.495 OA
ATOM     30  C   UNL     1      -4.987 -10.565   7.320  0.00  0.00    +0.277 C 
ENDBRANCH  29   6
ENDBRANCH  10  24
ENDBRANCH  13   8
BRANCH  11   7
ATOM      7  N   UNL     1      -7.989 -10.720  17.934  0.00  0.00    -0.293 NA
ATOM     17  C   UNL     1      -7.633 -10.761  19.359  0.00  0.00    +0.085 C 
ATOM     18  C   UNL     1      -7.484 -11.905  17.227  0.00  0.00    +0.085 C 
ATOM     19  C   UNL     1      -6.115 -10.823  19.545  0.00  0.00    +0.028 C 
ATOM     20  C   UNL     1      -5.962 -12.008  17.340  0.00  0.00    +0.028 C 
ATOM     21  C   UNL     1      -5.514 -12.013  18.801  0.00  0.00    +0.077 C 
BRANCH  21  22
ATOM      4  O   UNL     1      -3.404 -12.186  19.908  0.00  0.00    -0.276 OA
ATOM      9  N   UNL     1      -3.422 -11.633  17.675  0.00  0.00    -0.329 N 
ATOM     22  C   UNL     1      -4.019 -11.964  18.868  0.00  0.00    +0.214 C 
ATOM     33  H   UNL     1      -3.954 -11.441  16.832  0.00  0.00    +0.145 HD
ATOM     34  H   UNL     1      -2.412 -11.563  17.599  0.00  0.00    +0.145 HD
ENDBRANCH  21  22
ENDBRANCH  11   7
BRANCH  12   3
ATOM      3  O   UNL     1     -11.153 -11.330  16.242  0.00  0.00    -0.388 OA
ATOM     32  H   UNL     1     -11.422 -11.370  15.309  0.00  0.00    +0.210 HD
ENDBRANCH  12   3
TORSDOF 6
ENDMDL
MODEL 3
REMARK VINA RESULT:      -6.2     28.694     31.565
REMARK  Name = 28960535
REMARK  7 active torsions:
REMARK  status: ('A' for Active; 'I' for Inactive)
REMARK    1  A    between atoms: O_3  and  C_12
REMARK    2  A    between atoms: O_6  and  C_29
REMARK    3  A    between atoms: O_6  and  C_30
REMARK    4  A    between atoms: N_7  and  C_11
REMARK    5  A    between atoms: N_8  and  C_13
REMARK    6  A    between atoms: N_10  and  C_24
REMARK    7  A    between atoms: C_21  and  C_22
REMARK                            x       y       z     vdW  Elec       q    Type
REMARK                         _______ _______ _______ _____ _____    ______ ____
ROOT
ATOM      1  O   UNL     1      14.181  12.214  23.812  0.00  0.00    -0.342 OA
ATOM      2  O   UNL     1      13.724  14.251  22.802  0.00  0.00    -0.347 OA
ATOM     11  C   UNL     1      13.465  12.223  21.509  0.00  0.00    +0.143 C 
ATOM     12  C   UNL     1      14.933  12.314  21.033  0.00  0.00    +0.159 C 
ATOM     13  C   UNL     1      15.960  12.228  22.184  0.00  0.00    +0.136 C 
ATOM     14  C   UNL     1      13.305  12.879  22.892  0.00  0.00    +0.270 C 
ATOM     15  C   UNL     1      15.439  12.824  23.508  0.00  0.00    +0.170 C 
ATOM     16  C   UNL     1      15.023  14.280  23.411  0.00  0.00    +0.196 C 
ENDROOT
BRANCH  13   8
ATOM      5  O   UNL     1      18.121  10.864  20.891  0.00  0.00    -0.252 OA
ATOM      8  N   UNL     1      16.361  10.853  22.390  0.00  0.00    -0.291 N 
ATOM     10  N   UNL     1      17.585   8.934  22.117  0.00  0.00    -0.269 N 
ATOM     23  C   UNL     1      17.434  10.265  21.715  0.00  0.00    +0.304 C 
ATOM     31  H   UNL     1      15.791  10.271  22.996  0.00  0.00    +0.151 HD
ATOM     35  H   UNL     1      16.928   8.591  22.812  0.00  0.00    +0.156 HD
BRANCH  10  24
ATOM     24  C   UNL     1      18.547   7.997  21.673  0.00  0.00    +0.035 A 
ATOM     25  C   UNL     1      18.160   6.933  20.859  0.00  0.00    +0.027 A 
ATOM     26  C   UNL     1      19.883   8.139  22.049  0.00  0.00    +0.027 A 
ATOM     27  C   UNL     1      19.109   6.009  20.421  0.00  0.00    +0.047 A 
ATOM     28  C   UNL     1      20.832   7.214  21.611  0.00  0.00    +0.047 A 
ATOM     29  C   UNL     1      20.444   6.150  20.797  0.00  0.00    +0.120 A 
BRANCH  29   6
ATOM      6  O   UNL     1      21.370   5.248  20.369  0.00  0.00    -0.495 OA
ATOM     30  C   UNL     1      21.288   3.929  20.907  0.00  0.00    +0.277 C 
ENDBRANCH  29   6
ENDBRANCH  10  24
ENDBRANCH  13   8
BRANCH  11   7
ATOM      7  N   UNL     1      13.042  10.823  21.573  0.00  0.00    -0.293 NA
ATOM     17  C   UNL     1      11.593  10.734  21.796  0.00  0.00    +0.085 C 
ATOM     18  C   UNL     1      13.435  10.112  20.348  0.00  0.00    +0.085 C 
ATOM     19  C   UNL     1      11.143   9.277  21.919  0.00  0.00    +0.028 C 
ATOM     20  C   UNL     1      13.048   8.634  20.421  0.00  0.00    +0.028 C 
ATOM     21  C   UNL     1      11.554   8.465  20.694  0.00  0.00    +0.077 C 
BRANCH  21  22
ATOM      4  O   UNL     1      10.456   6.635  21.768  0.00  0.00    -0.276 OA
ATOM      9  N   UNL     1      11.931   6.173  20.065  0.00  0.00    -0.329 N 
ATOM     22  C   UNL     1      11.244   7.016  20.905  0.00  0.00    +0.214 C 
ATOM     33  H   UNL     1      12.588   6.512  19.368  0.00  0.00    +0.145 HD
ATOM     34  H   UNL     1      11.806   5.167  20.119  0.00  0.00    +0.145 HD
ENDBRANCH  21  22
ENDBRANCH  11   7
BRANCH  12   3
ATOM      3  O   UNL     1      15.098  13.571  20.362  0.00  0.00    -0.388 OA
ATOM     32  H   UNL     1      14.360  14.146  20.628  0.00  0.00    +0.210 HD
ENDBRANCH  12   3
TORSDOF 6
ENDMDL
MODEL 4
REMARK VINA RESULT:      -6.2     25.562     28.655
REMARK  Name = 28960535
REMARK  7 active torsions:
REMARK  status: ('A' for Active; 'I' for Inactive)
REMARK    1  A    between atoms: O_3  and  C_12
REMARK    2  A    between atoms: O_6  and  C_29
REMARK    3  A    between atoms: O_6  and  C_30
REMARK    4  A    between atoms: N_7  and  C_11
REMARK    5  A    between atoms: N_8  and  C_13
REMARK    6  A    between atoms: N_10  and  C_24
REMARK    7  A    between atoms: C_21  and  C_22
REMARK                            x       y       z     vdW  Elec       q    Type
REMARK                         _______ _______ _______ _____ _____    ______ ____
ROOT
ATOM      1  O   UNL     1      10.357   8.375   5.710  0.00  0.00    -0.342 OA
ATOM      2  O   UNL     1       9.684   7.967   7.891  0.00  0.00    -0.347 OA
ATOM     11  C   UNL     1      12.026   7.743   7.330  0.00  0.00    +0.143 C 
ATOM     12  C   UNL     1      11.823   6.250   6.986  0.00  0.00    +0.159 C 
ATOM     13  C   UNL     1      10.846   6.016   5.813  0.00  0.00    +0.136 C 
ATOM     14  C   UNL     1      10.729   8.535   7.085  0.00  0.00    +0.270 C 
ATOM     15  C   UNL     1       9.738   7.086   5.723  0.00  0.00    +0.170 C 
ATOM     16  C   UNL     1       8.886   7.202   6.974  0.00  0.00    +0.196 C 
ENDROOT
BRANCH  13   8
ATOM      5  O   UNL     1      10.217   4.394   3.537  0.00  0.00    -0.252 OA
ATOM      8  N   UNL     1      11.574   5.960   4.563  0.00  0.00    -0.291 N 
ATOM     10  N   UNL     1      12.082   5.295   2.430  0.00  0.00    -0.269 N 
ATOM     23  C   UNL     1      11.195   5.137   3.499  0.00  0.00    +0.304 C 
ATOM     31  H   UNL     1      12.439   6.486   4.486  0.00  0.00    +0.151 HD
ATOM     35  H   UNL     1      12.844   5.954   2.562  0.00  0.00    +0.156 HD
BRANCH  10  24
ATOM     24  C   UNL     1      12.050   4.645   1.173  0.00  0.00    +0.035 A 
ATOM     25  C   UNL     1      10.994   4.881   0.294  0.00  0.00    +0.027 A 
ATOM     26  C   UNL     1      13.075   3.768   0.815  0.00  0.00    +0.027 A 
ATOM     27  C   UNL     1      10.962   4.240  -0.945  0.00  0.00    +0.047 A 
ATOM     28  C   UNL     1      13.042   3.128  -0.424  0.00  0.00    +0.047 A 
ATOM     29  C   UNL     1      11.986   3.364  -1.303  0.00  0.00    +0.120 A 
BRANCH  29   6
ATOM      6  O   UNL     1      11.955   2.739  -2.513  0.00  0.00    -0.495 OA
ATOM     30  C   UNL     1      10.681   2.608  -3.142  0.00  0.00    +0.277 C 
ENDBRANCH  29   6
ENDBRANCH  10  24
ENDBRANCH  13   8
BRANCH  11   7
ATOM      7  N   UNL     1      13.110   8.303   6.522  0.00  0.00    -0.293 NA
ATOM     17  C   UNL     1      13.405   9.680   6.942  0.00  0.00    +0.085 C 
ATOM     18  C   UNL     1      14.306   7.454   6.608  0.00  0.00    +0.085 C 
ATOM     19  C   UNL     1      14.499  10.299   6.070  0.00  0.00    +0.028 C 
ATOM     20  C   UNL     1      15.432   7.996   5.725  0.00  0.00    +0.028 C 
ATOM     21  C   UNL     1      15.765   9.445   6.080  0.00  0.00    +0.077 C 
BRANCH  21  22
ATOM      4  O   UNL     1      16.757  11.161   4.747  0.00  0.00    -0.276 OA
ATOM      9  N   UNL     1      17.649   9.043   4.638  0.00  0.00    -0.329 N 
ATOM     22  C   UNL     1      16.761   9.985   5.102  0.00  0.00    +0.214 C 
ATOM     33  H   UNL     1      17.622   8.074   4.937  0.00  0.00    +0.145 HD
ATOM     34  H   UNL     1      18.368   9.291   3.965  0.00  0.00    +0.145 HD
ENDBRANCH  21  22
ENDBRANCH  11   7
BRANCH  12   3
ATOM      3  O   UNL     1      11.303   5.598   8.154  0.00  0.00    -0.388 OA
ATOM     32  H   UNL     1      10.799   6.258   8.659  0.00  0.00    +0.210 HD
ENDBRANCH  12   3
TORSDOF 6
ENDMDL
MODEL 5
REMARK VINA RESULT:      -6.0      2.837      7.448
REMARK  Name = 28960535
REMARK  7 active torsions:
REMARK  status: ('A' for Active; 'I' for Inactive)
REMARK    1  A    between atoms: O_3  and  C_12
REMARK    2  A    between atoms: O_6  and  C_29
REMARK    3  A    between atoms: O_6  and  C_30
REMARK    4  A    between atoms: N_7  and  C_11
REMARK    5  A    between atoms: N_8  and  C_13
REMARK    6  A    between atoms: N_10  and  C_24
REMARK    7  A    between atoms: C_21  and  C_22
REMARK                            x       y       z     vdW  Elec       q    Type
REMARK                         _______ _______ _______ _____ _____    ______ ____
ROOT
ATOM      1  O   UNL     1      -9.420 -11.447  16.072  0.00  0.00    -0.342 OA
ATOM      2  O   UNL     1      -9.046 -11.868  18.321  0.00  0.00    -0.347 OA
ATOM     11  C   UNL     1      -9.522  -9.602  17.622  0.00  0.00    +0.143 C 
ATOM     12  C   UNL     1      -8.015  -9.324  17.421  0.00  0.00    +0.159 C 
ATOM     13  C   UNL     1      -7.364 -10.217  16.341  0.00  0.00    +0.136 C 
ATOM     14  C   UNL     1      -9.831 -11.094  17.400  0.00  0.00    +0.270 C 
ATOM     15  C   UNL     1      -8.009 -11.614  16.238  0.00  0.00    +0.170 C 
ATOM     16  C   UNL     1      -7.976 -12.409  17.530  0.00  0.00    +0.196 C 
ENDROOT
BRANCH  13   8
ATOM      5  O   UNL     1      -6.030 -11.041  13.944  0.00  0.00    -0.252 OA
ATOM      8  N   UNL     1      -7.414  -9.558  15.053  0.00  0.00    -0.291 N 
ATOM     10  N   UNL     1      -6.966  -9.194  12.836  0.00  0.00    -0.269 N 
ATOM     23  C   UNL     1      -6.730 -10.031  13.931  0.00  0.00    +0.304 C 
ATOM     31  H   UNL     1      -7.908  -8.673  14.985  0.00  0.00    +0.151 HD
ATOM     35  H   UNL     1      -7.574  -8.395  12.994  0.00  0.00    +0.156 HD
BRANCH  10  24
ATOM     24  C   UNL     1      -6.460  -9.323  11.521  0.00  0.00    +0.035 A 
ATOM     25  C   UNL     1      -5.425  -8.494  11.089  0.00  0.00    +0.027 A 
ATOM     26  C   UNL     1      -6.998 -10.278  10.657  0.00  0.00    +0.027 A 
ATOM     27  C   UNL     1      -4.926  -8.621   9.792  0.00  0.00    +0.047 A 
ATOM     28  C   UNL     1      -6.499 -10.403   9.360  0.00  0.00    +0.047 A 
ATOM     29  C   UNL     1      -5.463  -9.575   8.928  0.00  0.00    +0.120 A 
BRANCH  29   6
ATOM      6  O   UNL     1      -4.976  -9.698   7.663  0.00  0.00    -0.495 OA
ATOM     30  C   UNL     1      -5.923  -9.944   6.624  0.00  0.00    +0.277 C 
ENDBRANCH  29   6
ENDBRANCH  10  24
ENDBRANCH  13   8
BRANCH  11   7
ATOM      7  N   UNL     1     -10.313  -8.789  16.696  0.00  0.00    -0.293 NA
ATOM     17  C   UNL     1     -11.728  -8.794  17.088  0.00  0.00    +0.085 C 
ATOM     18  C   UNL     1      -9.784  -7.420  16.634  0.00  0.00    +0.085 C 
ATOM     19  C   UNL     1     -12.577  -7.993  16.098  0.00  0.00    +0.028 C 
ATOM     20  C   UNL     1     -10.564  -6.571  15.629  0.00  0.00    +0.028 C 
ATOM     21  C   UNL     1     -12.058  -6.564  15.953  0.00  0.00    +0.077 C 
BRANCH  21  22
ATOM      4  O   UNL     1     -14.014  -5.985  14.710  0.00  0.00    -0.276 OA
ATOM      9  N   UNL     1     -12.005  -5.063  14.073  0.00  0.00    -0.329 N 
ATOM     22  C   UNL     1     -12.803  -5.851  14.868  0.00  0.00    +0.214 C 
ATOM     33  H   UNL     1     -11.003  -4.980  14.217  0.00  0.00    +0.145 HD
ATOM     34  H   UNL     1     -12.398  -4.534  13.301  0.00  0.00    +0.145 HD
ENDBRANCH  21  22
ENDBRANCH  11   7
BRANCH  12   3
ATOM      3  O   UNL     1      -7.356  -9.560  18.672  0.00  0.00    -0.388 OA
ATOM     32  H   UNL     1      -6.820 -10.366  18.576  0.00  0.00    +0.210 HD
ENDBRANCH  12   3
TORSDOF 6
ENDMDL
MODEL 6
REMARK VINA RESULT:      -5.7     23.185     26.551
REMARK  Name = 28960535
REMARK  7 active torsions:
REMARK  status: ('A' for Active; 'I' for Inactive)
REMARK    1  A    between atoms: O_3  and  C_12
REMARK    2  A    between atoms: O_6  and  C_29
REMARK    3  A    between atoms: O_6  and  C_30
REMARK    4  A    between atoms: N_7  and  C_11
REMARK    5  A    between atoms: N_8  and  C_13
REMARK    6  A    between atoms: N_10  and  C_24
REMARK    7  A    between atoms: C_21  and  C_22
REMARK                            x       y       z     vdW  Elec       q    Type
REMARK                         _______ _______ _______ _____ _____    ______ ____
ROOT
ATOM      1  O   UNL     1     -11.826   9.746  31.938  0.00  0.00    -0.342 OA
ATOM      2  O   UNL     1     -13.028  11.725  31.824  0.00  0.00    -0.347 OA
ATOM     11  C   UNL     1     -12.956  10.523  33.921  0.00  0.00    +0.143 C 
ATOM     12  C   UNL     1     -14.224   9.729  33.533  0.00  0.00    +0.159 C 
ATOM     13  C   UNL     1     -14.041   8.854  32.273  0.00  0.00    +0.136 C 
ATOM     14  C   UNL     1     -12.171  10.934  32.662  0.00  0.00    +0.270 C 
ATOM     15  C   UNL     1     -13.050   9.455  31.256  0.00  0.00    +0.170 C 
ATOM     16  C   UNL     1     -13.428  10.841  30.766  0.00  0.00    +0.196 C 
ENDROOT
BRANCH  13   8
ATOM      5  O   UNL     1     -15.255   6.379  31.494  0.00  0.00    -0.252 OA
ATOM      8  N   UNL     1     -13.611   7.524  32.649  0.00  0.00    -0.291 N 
ATOM     10  N   UNL     1     -13.627   5.234  32.739  0.00  0.00    -0.269 N 
ATOM     23  C   UNL     1     -14.264   6.365  32.221  0.00  0.00    +0.304 C 
ATOM     31  H   UNL     1     -12.848   7.435  33.312  0.00  0.00    +0.151 HD
ATOM     35  H   UNL     1     -12.814   5.398  33.327  0.00  0.00    +0.156 HD
BRANCH  10  24
ATOM     24  C   UNL     1     -13.974   3.876  32.545  0.00  0.00    +0.035 A 
ATOM     25  C   UNL     1     -13.700   3.255  31.327  0.00  0.00    +0.027 A 
ATOM     26  C   UNL     1     -14.591   3.160  33.571  0.00  0.00    +0.027 A 
ATOM     27  C   UNL     1     -14.043   1.916  31.135  0.00  0.00    +0.047 A 
ATOM     28  C   UNL     1     -14.934   1.822  33.378  0.00  0.00    +0.047 A 
ATOM     29  C   UNL     1     -14.660   1.201  32.160  0.00  0.00    +0.120 A 
BRANCH  29   6
ATOM      6  O   UNL     1     -14.994  -0.106  31.973  0.00  0.00    -0.495 OA
ATOM     30  C   UNL     1     -15.374  -0.495  30.654  0.00  0.00    +0.277 C 
ENDBRANCH  29   6
ENDBRANCH  10  24
ENDBRANCH  13   8
BRANCH  11   7
ATOM      7  N   UNL     1     -12.104   9.716  34.796  0.00  0.00    -0.293 NA
ATOM     17  C   UNL     1     -11.117  10.565  35.477  0.00  0.00    +0.085 C 
ATOM     18  C   UNL     1     -12.920   8.970  35.763  0.00  0.00    +0.085 C 
ATOM     19  C   UNL     1     -10.183   9.729  36.354  0.00  0.00    +0.028 C 
ATOM     20  C   UNL     1     -12.049   8.079  36.650  0.00  0.00    +0.028 C 
ATOM     21  C   UNL     1     -10.969   8.893  37.361  0.00  0.00    +0.077 C 
BRANCH  21  22
ATOM      4  O   UNL     1      -8.900   8.290  38.390  0.00  0.00    -0.276 OA
ATOM      9  N   UNL     1     -10.607   6.748  38.391  0.00  0.00    -0.329 N 
ATOM     22  C   UNL     1     -10.049   7.971  38.098  0.00  0.00    +0.214 C 
ATOM     33  H   UNL     1     -11.556   6.504  38.126  0.00  0.00    +0.145 HD
ATOM     34  H   UNL     1     -10.076   6.038  38.884  0.00  0.00    +0.145 HD
ENDBRANCH  21  22
ENDBRANCH  11   7
BRANCH  12   3
ATOM      3  O   UNL     1     -15.275  10.674  33.289  0.00  0.00    -0.388 OA
ATOM     32  H   UNL     1     -15.553  11.033  34.149  0.00  0.00    +0.210 HD
ENDBRANCH  12   3
TORSDOF 6
ENDMDL
MODEL 7
REMARK VINA RESULT:      -5.6     17.635     22.188
REMARK  Name = 28960535
REMARK  7 active torsions:
REMARK  status: ('A' for Active; 'I' for Inactive)
REMARK    1  A    between atoms: O_3  and  C_12
REMARK    2  A    between atoms: O_6  and  C_29
REMARK    3  A    between atoms: O_6  and  C_30
REMARK    4  A    between atoms: N_7  and  C_11
REMARK    5  A    between atoms: N_8  and  C_13
REMARK    6  A    between atoms: N_10  and  C_24
REMARK    7  A    between atoms: C_21  and  C_22
REMARK                            x       y       z     vdW  Elec       q    Type
REMARK                         _______ _______ _______ _____ _____    ______ ____
ROOT
ATOM      1  O   UNL     1       0.793 -11.904  -5.957  0.00  0.00    -0.342 OA
ATOM      2  O   UNL     1       0.481 -13.072  -7.936  0.00  0.00    -0.347 OA
ATOM     11  C   UNL     1      -0.397 -13.999  -5.882  0.00  0.00    +0.143 C 
ATOM     12  C   UNL     1       0.924 -14.764  -5.637  0.00  0.00    +0.159 C 
ATOM     13  C   UNL     1       2.148 -13.837  -5.464  0.00  0.00    +0.136 C 
ATOM     14  C   UNL     1      -0.136 -12.714  -6.688  0.00  0.00    +0.270 C 
ATOM     15  C   UNL     1       2.039 -12.530  -6.276  0.00  0.00    +0.170 C 
ATOM     16  C   UNL     1       1.868 -12.740  -7.769  0.00  0.00    +0.196 C 
ENDROOT
BRANCH  13   8
ATOM      5  O   UNL     1       3.301 -15.550  -3.479  0.00  0.00    -0.252 OA
ATOM      8  N   UNL     1       2.344 -13.528  -4.063  0.00  0.00    -0.291 N 
ATOM     10  N   UNL     1       2.978 -13.856  -1.886  0.00  0.00    -0.269 N 
ATOM     23  C   UNL     1       2.918 -14.427  -3.161  0.00  0.00    +0.304 C 
ATOM     31  H   UNL     1       1.978 -12.650  -3.709  0.00  0.00    +0.151 HD
ATOM     35  H   UNL     1       2.616 -12.911  -1.791  0.00  0.00    +0.156 HD
BRANCH  10  24
ATOM     24  C   UNL     1       3.487 -14.434  -0.699  0.00  0.00    +0.035 A 
ATOM     25  C   UNL     1       4.852 -14.691  -0.579  0.00  0.00    +0.027 A 
ATOM     26  C   UNL     1       2.622 -14.748   0.350  0.00  0.00    +0.027 A 
ATOM     27  C   UNL     1       5.354 -15.261   0.591  0.00  0.00    +0.047 A 
ATOM     28  C   UNL     1       3.125 -15.318   1.520  0.00  0.00    +0.047 A 
ATOM     29  C   UNL     1       4.490 -15.575   1.640  0.00  0.00    +0.120 A 
BRANCH  29   6
ATOM      6  O   UNL     1       4.980 -16.131   2.782  0.00  0.00    -0.495 OA
ATOM     30  C   UNL     1       4.486 -17.422   3.138  0.00  0.00    +0.277 C 
ENDBRANCH  29   6
ENDBRANCH  10  24
ENDBRANCH  13   8
BRANCH  11   7
ATOM      7  N   UNL     1      -1.029 -13.664  -4.605  0.00  0.00    -0.293 NA
ATOM     17  C   UNL     1      -2.492 -13.642  -4.746  0.00  0.00    +0.085 C 
ATOM     18  C   UNL     1      -0.611 -14.609  -3.560  0.00  0.00    +0.085 C 
ATOM     19  C   UNL     1      -3.165 -13.239  -3.432  0.00  0.00    +0.028 C 
ATOM     20  C   UNL     1      -1.219 -14.240  -2.206  0.00  0.00    +0.028 C 
ATOM     21  C   UNL     1      -2.743 -14.158  -2.288  0.00  0.00    +0.077 C 
BRANCH  21  22
ATOM      4  O   UNL     1      -4.243 -14.184  -0.429  0.00  0.00    -0.276 OA
ATOM      9  N   UNL     1      -2.636 -12.540  -0.510  0.00  0.00    -0.329 N 
ATOM     22  C   UNL     1      -3.288 -13.651  -0.989  0.00  0.00    +0.214 C 
ATOM     33  H   UNL     1      -1.857 -12.111  -0.999  0.00  0.00    +0.145 HD
ATOM     34  H   UNL     1      -2.920 -12.104   0.362  0.00  0.00    +0.145 HD
ENDBRANCH  21  22
ENDBRANCH  11   7
BRANCH  12   3
ATOM      3  O   UNL     1       1.150 -15.619  -6.766  0.00  0.00    -0.388 OA
ATOM     32  H   UNL     1       0.536 -16.369  -6.695  0.00  0.00    +0.210 HD
ENDBRANCH  12   3
TORSDOF 6
ENDMDL
MODEL 8
REMARK VINA RESULT:      -5.6     13.770     18.814
REMARK  Name = 28960535
REMARK  7 active torsions:
REMARK  status: ('A' for Active; 'I' for Inactive)
REMARK    1  A    between atoms: O_3  and  C_12
REMARK    2  A    between atoms: O_6  and  C_29
REMARK    3  A    between atoms: O_6  and  C_30
REMARK    4  A    between atoms: N_7  and  C_11
REMARK    5  A    between atoms: N_8  and  C_13
REMARK    6  A    between atoms: N_10  and  C_24
REMARK    7  A    between atoms: C_21  and  C_22
REMARK                            x       y       z     vdW  Elec       q    Type
REMARK                         _______ _______ _______ _____ _____    ______ ____
ROOT
ATOM      1  O   UNL     1       0.509 -15.755  -3.212  0.00  0.00    -0.342 OA
ATOM      2  O   UNL     1       0.912 -14.442  -5.080  0.00  0.00    -0.347 OA
ATOM     11  C   UNL     1       2.246 -14.086  -3.094  0.00  0.00    +0.143 C 
ATOM     12  C   UNL     1       1.233 -13.040  -2.575  0.00  0.00    +0.159 C 
ATOM     13  C   UNL     1      -0.175 -13.621  -2.320  0.00  0.00    +0.136 C 
ATOM     14  C   UNL     1       1.541 -15.126  -3.984  0.00  0.00    +0.270 C 
ATOM     15  C   UNL     1      -0.536 -14.780  -3.273  0.00  0.00    +0.170 C 
ATOM     16  C   UNL     1      -0.483 -14.411  -4.744  0.00  0.00    +0.196 C 
ENDROOT
BRANCH  13   8
ATOM      5  O   UNL     1      -2.262 -12.954  -0.475  0.00  0.00    -0.252 OA
ATOM      8  N   UNL     1      -0.289 -14.064  -0.946  0.00  0.00    -0.291 N 
ATOM     10  N   UNL     1      -1.190 -14.266   1.151  0.00  0.00    -0.269 N 
ATOM     23  C   UNL     1      -1.346 -13.688  -0.113  0.00  0.00    +0.304 C 
ATOM     31  H   UNL     1       0.471 -14.608  -0.551  0.00  0.00    +0.151 HD
ATOM     35  H   UNL     1      -0.372 -14.852   1.287  0.00  0.00    +0.156 HD
BRANCH  10  24
ATOM     24  C   UNL     1      -2.039 -14.135   2.275  0.00  0.00    +0.035 A 
ATOM     25  C   UNL     1      -2.661 -15.261   2.813  0.00  0.00    +0.027 A 
ATOM     26  C   UNL     1      -2.254 -12.880   2.845  0.00  0.00    +0.027 A 
ATOM     27  C   UNL     1      -3.498 -15.133   3.922  0.00  0.00    +0.047 A 
ATOM     28  C   UNL     1      -3.091 -12.752   3.953  0.00  0.00    +0.047 A 
ATOM     29  C   UNL     1      -3.713 -13.878   4.491  0.00  0.00    +0.120 A 
BRANCH  29   6
ATOM      6  O   UNL     1      -4.530 -13.753   5.573  0.00  0.00    -0.495 OA
ATOM     30  C   UNL     1      -4.100 -12.875   6.612  0.00  0.00    +0.277 C 
ENDBRANCH  29   6
ENDBRANCH  10  24
ENDBRANCH  13   8
BRANCH  11   7
ATOM      7  N   UNL     1       2.898 -14.758  -1.969  0.00  0.00    -0.293 NA
ATOM     17  C   UNL     1       4.001 -15.604  -2.445  0.00  0.00    +0.085 C 
ATOM     18  C   UNL     1       3.372 -13.772  -0.987  0.00  0.00    +0.085 C 
ATOM     19  C   UNL     1       4.658 -16.356  -1.285  0.00  0.00    +0.028 C 
ATOM     20  C   UNL     1       4.008 -14.460   0.223  0.00  0.00    +0.028 C 
ATOM     21  C   UNL     1       5.141 -15.392  -0.203  0.00  0.00    +0.077 C 
BRANCH  21  22
ATOM      4  O   UNL     1       5.268 -15.897   2.128  0.00  0.00    -0.276 OA
ATOM      9  N   UNL     1       6.541 -17.142   0.673  0.00  0.00    -0.329 N 
ATOM     22  C   UNL     1       5.636 -16.156   0.986  0.00  0.00    +0.214 C 
ATOM     33  H   UNL     1       6.840 -17.327  -0.280  0.00  0.00    +0.145 HD
ATOM     34  H   UNL     1       6.951 -17.723   1.398  0.00  0.00    +0.145 HD
ENDBRANCH  21  22
ENDBRANCH  11   7
BRANCH  12   3
ATOM      3  O   UNL     1       1.132 -12.003  -3.561  0.00  0.00    -0.388 OA
ATOM     32  H   UNL     1       1.931 -12.043  -4.113  0.00  0.00    +0.210 HD
ENDBRANCH  12   3
TORSDOF 6
ENDMDL
MODEL 9
REMARK VINA RESULT:      -5.6     27.764     29.797
REMARK  Name = 28960535
REMARK  7 active torsions:
REMARK  status: ('A' for Active; 'I' for Inactive)
REMARK    1  A    between atoms: O_3  and  C_12
REMARK    2  A    between atoms: O_6  and  C_29
REMARK    3  A    between atoms: O_6  and  C_30
REMARK    4  A    between atoms: N_7  and  C_11
REMARK    5  A    between atoms: N_8  and  C_13
REMARK    6  A    between atoms: N_10  and  C_24
REMARK    7  A    between atoms: C_21  and  C_22
REMARK                            x       y       z     vdW  Elec       q    Type
REMARK                         _______ _______ _______ _____ _____    ______ ____
ROOT
ATOM      1  O   UNL     1      -2.075   7.768  37.492  0.00  0.00    -0.342 OA
ATOM      2  O   UNL     1      -0.547   9.435  38.003  0.00  0.00    -0.347 OA
ATOM     11  C   UNL     1      -2.344   8.982  39.558  0.00  0.00    +0.143 C 
ATOM     12  C   UNL     1      -3.245  10.021  38.852  0.00  0.00    +0.159 C 
ATOM     13  C   UNL     1      -3.552   9.670  37.380  0.00  0.00    +0.136 C 
ATOM     14  C   UNL     1      -1.339   8.375  38.563  0.00  0.00    +0.270 C 
ATOM     15  C   UNL     1      -2.408   8.902  36.687  0.00  0.00    +0.170 C 
ATOM     16  C   UNL     1      -1.081   9.638  36.685  0.00  0.00    +0.196 C 
ENDROOT
BRANCH  13   8
ATOM      5  O   UNL     1      -6.150  10.662  36.690  0.00  0.00    -0.252 OA
ATOM      8  N   UNL     1      -4.777   8.903  37.296  0.00  0.00    -0.291 N 
ATOM     10  N   UNL     1      -7.005   8.491  36.951  0.00  0.00    -0.269 N 
ATOM     23  C   UNL     1      -6.006   9.469  36.950  0.00  0.00    +0.304 C 
ATOM     31  H   UNL     1      -4.753   7.927  37.575  0.00  0.00    +0.151 HD
ATOM     35  H   UNL     1      -6.717   7.546  37.190  0.00  0.00    +0.156 HD
BRANCH  10  24
ATOM     24  C   UNL     1      -8.379   8.653  36.657  0.00  0.00    +0.035 A 
ATOM     25  C   UNL     1      -9.338   7.979  37.414  0.00  0.00    +0.027 A 
ATOM     26  C   UNL     1      -8.775   9.486  35.610  0.00  0.00    +0.027 A 
ATOM     27  C   UNL     1     -10.693   8.139  37.124  0.00  0.00    +0.047 A 
ATOM     28  C   UNL     1     -10.130   9.644  35.320  0.00  0.00    +0.047 A 
ATOM     29  C   UNL     1     -11.089   8.971  36.077  0.00  0.00    +0.120 A 
BRANCH  29   6
ATOM      6  O   UNL     1     -12.411   9.127  35.795  0.00  0.00    -0.495 OA
ATOM     30  C   UNL     1     -12.906   8.473  34.627  0.00  0.00    +0.277 C 
ENDBRANCH  29   6
ENDBRANCH  10  24
ENDBRANCH  13   8
BRANCH  11   7
ATOM      7  N   UNL     1      -3.163   7.921  40.145  0.00  0.00    -0.293 NA
ATOM     17  C   UNL     1      -2.314   6.937  40.831  0.00  0.00    +0.085 C 
ATOM     18  C   UNL     1      -4.161   8.490  41.061  0.00  0.00    +0.085 C 
ATOM     19  C   UNL     1      -3.151   5.792  41.404  0.00  0.00    +0.028 C 
ATOM     20  C   UNL     1      -5.062   7.399  41.643  0.00  0.00    +0.028 C 
ATOM     21  C   UNL     1      -4.240   6.315  42.338  0.00  0.00    +0.077 C 
BRANCH  21  22
ATOM      4  O   UNL     1      -6.361   5.261  42.648  0.00  0.00    -0.276 OA
ATOM      9  N   UNL     1      -4.472   4.119  43.295  0.00  0.00    -0.329 N 
ATOM     22  C   UNL     1      -5.140   5.196  42.761  0.00  0.00    +0.214 C 
ATOM     33  H   UNL     1      -3.462   4.096  43.390  0.00  0.00    +0.145 HD
ATOM     34  H   UNL     1      -4.978   3.302  43.622  0.00  0.00    +0.145 HD
ENDBRANCH  21  22
ENDBRANCH  11   7
BRANCH  12   3
ATOM      3  O   UNL     1      -2.570  11.286  38.893  0.00  0.00    -0.388 OA
ATOM     32  H   UNL     1      -3.077  11.908  38.344  0.00  0.00    +0.210 HD
ENDBRANCH  12   3
TORSDOF 6
ENDMDL
MODEL 10
REMARK VINA RESULT:      -5.6     18.516     22.626
REMARK  Name = 28960535
REMARK  7 active torsions:
REMARK  status: ('A' for Active; 'I' for Inactive)
REMARK    1  A    between atoms: O_3  and  C_12
REMARK    2  A    between atoms: O_6  and  C_29
REMARK    3  A    between atoms: O_6  and  C_30
REMARK    4  A    between atoms: N_7  and  C_11
REMARK    5  A    between atoms: N_8  and  C_13
REMARK    6  A    between atoms: N_10  and  C_24
REMARK    7  A    between atoms: C_21  and  C_22
REMARK                            x       y       z     vdW  Elec       q    Type
REMARK                         _______ _______ _______ _____ _____    ______ ____
ROOT
ATOM      1  O   UNL     1     -15.103   9.961  20.532  0.00  0.00    -0.342 OA
ATOM      2  O   UNL     1     -14.028   9.992  18.478  0.00  0.00    -0.347 OA
ATOM     11  C   UNL     1     -13.515   8.216  20.038  0.00  0.00    +0.143 C 
ATOM     12  C   UNL     1     -12.372   9.056  20.652  0.00  0.00    +0.159 C 
ATOM     13  C   UNL     1     -12.855  10.373  21.298  0.00  0.00    +0.136 C 
ATOM     14  C   UNL     1     -14.613   9.133  19.470  0.00  0.00    +0.270 C 
ATOM     15  C   UNL     1     -14.094  10.973  20.602  0.00  0.00    +0.170 C 
ATOM     16  C   UNL     1     -13.895  11.266  19.127  0.00  0.00    +0.196 C 
ENDROOT
BRANCH  13   8
ATOM      5  O   UNL     1     -11.436  11.506  23.514  0.00  0.00    -0.252 OA
ATOM      8  N   UNL     1     -13.135  10.165  22.703  0.00  0.00    -0.291 N 
ATOM     10  N   UNL     1     -12.890  10.377  24.972  0.00  0.00    -0.269 N 
ATOM     23  C   UNL     1     -12.389  10.760  23.723  0.00  0.00    +0.304 C 
ATOM     31  H   UNL     1     -13.858   9.497  22.955  0.00  0.00    +0.151 HD
ATOM     35  H   UNL     1     -13.689   9.750  24.970  0.00  0.00    +0.156 HD
BRANCH  10  24
ATOM     24  C   UNL     1     -12.418  10.758  26.250  0.00  0.00    +0.035 A 
ATOM     25  C   UNL     1     -11.640   9.875  26.997  0.00  0.00    +0.027 A 
ATOM     26  C   UNL     1     -12.732  12.018  26.762  0.00  0.00    +0.027 A 
ATOM     27  C   UNL     1     -11.175  10.251  28.258  0.00  0.00    +0.047 A 
ATOM     28  C   UNL     1     -12.267  12.393  28.023  0.00  0.00    +0.047 A 
ATOM     29  C   UNL     1     -11.489  11.509  28.770  0.00  0.00    +0.120 A 
BRANCH  29   6
ATOM      6  O   UNL     1     -11.034  11.876  30.000  0.00  0.00    -0.495 OA
ATOM     30  C   UNL     1     -11.072  13.266  30.318  0.00  0.00    +0.277 C 
ENDBRANCH  29   6
ENDBRANCH  10  24
ENDBRANCH  13   8
BRANCH  11   7
ATOM      7  N   UNL     1     -14.086   7.327  21.051  0.00  0.00    -0.293 NA
ATOM     17  C   UNL     1     -15.284   6.656  20.528  0.00  0.00    +0.085 C 
ATOM     18  C   UNL     1     -13.085   6.350  21.500  0.00  0.00    +0.085 C 
ATOM     19  C   UNL     1     -15.925   5.764  21.593  0.00  0.00    +0.028 C 
ATOM     20  C   UNL     1     -13.649   5.447  22.598  0.00  0.00    +0.028 C 
ATOM     21  C   UNL     1     -14.925   4.745  22.137  0.00  0.00    +0.077 C 
BRANCH  21  22
ATOM      4  O   UNL     1     -16.181   2.966  23.118  0.00  0.00    -0.276 OA
ATOM      9  N   UNL     1     -15.290   4.567  24.509  0.00  0.00    -0.329 N 
ATOM     22  C   UNL     1     -15.526   3.992  23.282  0.00  0.00    +0.214 C 
ATOM     33  H   UNL     1     -14.756   5.424  24.616  0.00  0.00    +0.145 HD
ATOM     34  H   UNL     1     -15.652   4.148  25.359  0.00  0.00    +0.145 HD
ENDBRANCH  21  22
ENDBRANCH  11   7
BRANCH  12   3
ATOM      3  O   UNL     1     -11.447   9.371  19.601  0.00  0.00    -0.388 OA
ATOM     32  H   UNL     1     -11.804   9.003  18.776  0.00  0.00    +0.210 HD
ENDBRANCH  12   3
TORSDOF 6
ENDMDL
