MODEL 1
REMARK VINA RESULT:      -6.6      0.000      0.000
REMARK  Name = 25314629
REMARK  10 active torsions:
REMARK  status: ('A' for Active; 'I' for Inactive)
REMARK    1  A    between atoms: O_3  and  C_11
REMARK    2  A    between atoms: O_5  and  C_25
REMARK    3  A    between atoms: O_5  and  C_26
REMARK    4  A    between atoms: N_6  and  C_9
REMARK    5  A    between atoms: N_6  and  C_15
REMARK    6  A    between atoms: N_6  and  C_16
REMARK    7  A    between atoms: N_7  and  C_10
REMARK    8  A    between atoms: N_8  and  C_20
REMARK    9  A    between atoms: C_15  and  C_18
REMARK   10  A    between atoms: C_16  and  C_19
REMARK                            x       y       z     vdW  Elec       q    Type
REMARK                         _______ _______ _______ _____ _____    ______ ____
ROOT
ATOM      1  O   UNL     1      13.935   9.879  18.244  0.00  0.00    -0.342 OA
ATOM      2  O   UNL     1      12.048   9.063  17.170  0.00  0.00    -0.347 OA
ATOM      9  C   UNL     1      12.265   8.739  19.557  0.00  0.00    +0.143 C 
ATOM     10  C   UNL     1      14.315   7.520  18.566  0.00  0.00    +0.136 C 
ATOM     11  C   UNL     1      12.980   7.388  19.330  0.00  0.00    +0.159 C 
ATOM     12  C   UNL     1      14.324   8.686  17.556  0.00  0.00    +0.170 C 
ATOM     13  C   UNL     1      12.519   9.691  18.374  0.00  0.00    +0.270 C 
ATOM     14  C   UNL     1      13.233   8.605  16.504  0.00  0.00    +0.196 C 
ENDROOT
BRANCH  10   7
ATOM      4  O   UNL     1      16.593   5.803  18.825  0.00  0.00    -0.252 OA
ATOM      7  N   UNL     1      15.411   7.671  19.499  0.00  0.00    -0.291 N 
ATOM      8  N   UNL     1      17.387   7.181  20.552  0.00  0.00    -0.269 N 
ATOM     17  C   UNL     1      16.487   6.783  19.558  0.00  0.00    +0.304 C 
ATOM     27  H   UNL     1      15.354   8.412  20.192  0.00  0.00    +0.151 HD
ATOM     29  H   UNL     1      17.149   8.022  21.073  0.00  0.00    +0.156 HD
BRANCH   8  20
ATOM     20  C   UNL     1      18.598   6.555  20.928  0.00  0.00    +0.035 A 
ATOM     21  C   UNL     1      19.163   5.578  20.110  0.00  0.00    +0.027 A 
ATOM     22  C   UNL     1      19.228   6.916  22.119  0.00  0.00    +0.027 A 
ATOM     23  C   UNL     1      20.359   4.961  20.481  0.00  0.00    +0.047 A 
ATOM     24  C   UNL     1      20.423   6.301  22.492  0.00  0.00    +0.047 A 
ATOM     25  C   UNL     1      20.988   5.323  21.673  0.00  0.00    +0.120 A 
BRANCH  25   5
ATOM      5  O   UNL     1      22.154   4.723  22.034  0.00  0.00    -0.495 OA
ATOM     26  C   UNL     1      22.131   3.306  22.205  0.00  0.00    +0.277 C 
ENDBRANCH  25   5
ENDBRANCH   8  20
ENDBRANCH  10   7
BRANCH  11   3
ATOM      3  O   UNL     1      12.097   6.548  18.574  0.00  0.00    -0.388 OA
ATOM     28  H   UNL     1      12.457   6.474  17.673  0.00  0.00    +0.210 HD
ENDBRANCH  11   3
BRANCH   9   6
ATOM      6  N   UNL     1      12.735   9.356  20.799  0.00  0.00    -0.293 NA
BRANCH   6  15
ATOM     15  C   UNL     1      12.554   8.439  21.923  0.00  0.00    +0.081 C 
ATOM     18  C   UNL     1      11.108   8.398  22.377  0.00  0.00    +0.020 C 
ENDBRANCH   6  15
BRANCH   6  16
ATOM     16  C   UNL     1      12.028  10.612  21.043  0.00  0.00    +0.081 C 
ATOM     19  C   UNL     1      12.971  11.694  21.527  0.00  0.00    +0.020 C 
ENDBRANCH   6  16
ENDBRANCH   9   6
TORSDOF 7
ENDMDL
MODEL 2
REMARK VINA RESULT:      -6.5      3.543      7.477
REMARK  Name = 25314629
REMARK  10 active torsions:
REMARK  status: ('A' for Active; 'I' for Inactive)
REMARK    1  A    between atoms: O_3  and  C_11
REMARK    2  A    between atoms: O_5  and  C_25
REMARK    3  A    between atoms: O_5  and  C_26
REMARK    4  A    between atoms: N_6  and  C_9
REMARK    5  A    between atoms: N_6  and  C_15
REMARK    6  A    between atoms: N_6  and  C_16
REMARK    7  A    between atoms: N_7  and  C_10
REMARK    8  A    between atoms: N_8  and  C_20
REMARK    9  A    between atoms: C_15  and  C_18
REMARK   10  A    between atoms: C_16  and  C_19
REMARK                            x       y       z     vdW  Elec       q    Type
REMARK                         _______ _______ _______ _____ _____    ______ ____
ROOT
ATOM      1  O   UNL     1      12.499   9.213  21.298  0.00  0.00    -0.342 OA
ATOM      2  O   UNL     1      11.618   7.115  21.748  0.00  0.00    -0.347 OA
ATOM      9  C   UNL     1      13.672   7.271  20.481  0.00  0.00    +0.143 C 
ATOM     10  C   UNL     1      11.947   8.551  19.046  0.00  0.00    +0.136 C 
ATOM     11  C   UNL     1      12.877   7.323  19.157  0.00  0.00    +0.159 C 
ATOM     12  C   UNL     1      11.395   9.020  20.408  0.00  0.00    +0.170 C 
ATOM     13  C   UNL     1      12.841   7.862  21.635  0.00  0.00    +0.270 C 
ATOM     14  C   UNL     1      10.616   7.958  21.161  0.00  0.00    +0.196 C 
ENDROOT
BRANCH  10   7
ATOM      4  O   UNL     1      12.633   8.733  16.271  0.00  0.00    -0.252 OA
ATOM      7  N   UNL     1      12.639   9.643  18.395  0.00  0.00    -0.291 N 
ATOM      8  N   UNL     1      13.604  10.829  16.689  0.00  0.00    -0.269 N 
ATOM     17  C   UNL     1      12.935   9.651  17.031  0.00  0.00    +0.304 C 
ATOM     27  H   UNL     1      12.991  10.401  18.973  0.00  0.00    +0.151 HD
ATOM     29  H   UNL     1      13.778  11.491  17.441  0.00  0.00    +0.156 HD
BRANCH   8  20
ATOM     20  C   UNL     1      14.076  11.222  15.414  0.00  0.00    +0.035 A 
ATOM     21  C   UNL     1      15.362  10.870  15.007  0.00  0.00    +0.027 A 
ATOM     22  C   UNL     1      13.253  11.961  14.564  0.00  0.00    +0.027 A 
ATOM     23  C   UNL     1      15.827  11.257  13.749  0.00  0.00    +0.047 A 
ATOM     24  C   UNL     1      13.716  12.349  13.307  0.00  0.00    +0.047 A 
ATOM     25  C   UNL     1      15.004  11.997  12.900  0.00  0.00    +0.120 A 
BRANCH  25   5
ATOM      5  O   UNL     1      15.456  12.373  11.673  0.00  0.00    -0.495 OA
ATOM     26  C   UNL     1      16.852  12.216  11.419  0.00  0.00    +0.277 C 
ENDBRANCH  25   5
ENDBRANCH   8  20
ENDBRANCH  10   7
BRANCH  11   3
ATOM      3  O   UNL     1      12.080   6.134  19.079  0.00  0.00    -0.388 OA
ATOM     28  H   UNL     1      12.568   5.484  18.544  0.00  0.00    +0.210 HD
ENDBRANCH  11   3
BRANCH   9   6
ATOM      6  N   UNL     1      14.927   8.014  20.344  0.00  0.00    -0.293 NA
BRANCH   6  15
ATOM     15  C   UNL     1      15.663   7.558  19.165  0.00  0.00    +0.081 C 
ATOM     18  C   UNL     1      16.333   6.221  19.414  0.00  0.00    +0.020 C 
ENDBRANCH   6  15
BRANCH   6  16
ATOM     16  C   UNL     1      15.743   7.861  21.548  0.00  0.00    +0.081 C 
ATOM     19  C   UNL     1      16.732   8.998  21.696  0.00  0.00    +0.020 C 
ENDBRANCH   6  16
ENDBRANCH   9   6
TORSDOF 7
ENDMDL
MODEL 3
REMARK VINA RESULT:      -6.2      2.329      3.799
REMARK  Name = 25314629
REMARK  10 active torsions:
REMARK  status: ('A' for Active; 'I' for Inactive)
REMARK    1  A    between atoms: O_3  and  C_11
REMARK    2  A    between atoms: O_5  and  C_25
REMARK    3  A    between atoms: O_5  and  C_26
REMARK    4  A    between atoms: N_6  and  C_9
REMARK    5  A    between atoms: N_6  and  C_15
REMARK    6  A    between atoms: N_6  and  C_16
REMARK    7  A    between atoms: N_7  and  C_10
REMARK    8  A    between atoms: N_8  and  C_20
REMARK    9  A    between atoms: C_15  and  C_18
REMARK   10  A    between atoms: C_16  and  C_19
REMARK                            x       y       z     vdW  Elec       q    Type
REMARK                         _______ _______ _______ _____ _____    ______ ____
ROOT
ATOM      1  O   UNL     1      12.264  10.424  22.971  0.00  0.00    -0.342 OA
ATOM      2  O   UNL     1      11.306  12.141  21.739  0.00  0.00    -0.347 OA
ATOM      9  C   UNL     1      12.024  10.138  20.589  0.00  0.00    +0.143 C 
ATOM     10  C   UNL     1      14.186  11.059  21.662  0.00  0.00    +0.136 C 
ATOM     11  C   UNL     1      13.424  10.749  20.355  0.00  0.00    +0.159 C 
ATOM     12  C   UNL     1      13.256  11.446  22.830  0.00  0.00    +0.170 C 
ATOM     13  C   UNL     1      11.391  10.712  21.870  0.00  0.00    +0.270 C 
ATOM     14  C   UNL     1      12.375  12.649  22.550  0.00  0.00    +0.196 C 
ENDROOT
BRANCH  10   7
ATOM      4  O   UNL     1      16.545  10.129  20.330  0.00  0.00    -0.252 OA
ATOM      7  N   UNL     1      15.006   9.928  22.042  0.00  0.00    -0.291 N 
ATOM      8  N   UNL     1      16.729   8.422  21.930  0.00  0.00    -0.269 N 
ATOM     17  C   UNL     1      16.145   9.542  21.332  0.00  0.00    +0.304 C 
ATOM     27  H   UNL     1      14.693   9.346  22.813  0.00  0.00    +0.151 HD
ATOM     29  H   UNL     1      16.270   8.056  22.761  0.00  0.00    +0.156 HD
BRANCH   8  20
ATOM     20  C   UNL     1      17.891   7.726  21.522  0.00  0.00    +0.035 A 
ATOM     21  C   UNL     1      19.146   8.137  21.971  0.00  0.00    +0.027 A 
ATOM     22  C   UNL     1      17.782   6.626  20.670  0.00  0.00    +0.027 A 
ATOM     23  C   UNL     1      20.291   7.449  21.569  0.00  0.00    +0.047 A 
ATOM     24  C   UNL     1      18.926   5.938  20.267  0.00  0.00    +0.047 A 
ATOM     25  C   UNL     1      20.181   6.350  20.716  0.00  0.00    +0.120 A 
BRANCH  25   5
ATOM      5  O   UNL     1      21.298   5.679  20.325  0.00  0.00    -0.495 OA
ATOM     26  C   UNL     1      21.444   4.336  20.787  0.00  0.00    +0.277 C 
ENDBRANCH  25   5
ENDBRANCH   8  20
ENDBRANCH  10   7
BRANCH  11   3
ATOM      3  O   UNL     1      13.252  11.969  19.622  0.00  0.00    -0.388 OA
ATOM     28  H   UNL     1      13.703  12.677  20.113  0.00  0.00    +0.210 HD
ENDBRANCH  11   3
BRANCH   9   6
ATOM      6  N   UNL     1      12.122   8.681  20.695  0.00  0.00    -0.293 NA
BRANCH   6  15
ATOM     15  C   UNL     1      12.914   8.142  19.590  0.00  0.00    +0.081 C 
ATOM     18  C   UNL     1      13.789   6.991  20.046  0.00  0.00    +0.020 C 
ENDBRANCH   6  15
BRANCH   6  16
ATOM     16  C   UNL     1      10.788   8.081  20.709  0.00  0.00    +0.081 C 
ATOM     19  C   UNL     1      10.586   7.209  21.931  0.00  0.00    +0.020 C 
ENDBRANCH   6  16
ENDBRANCH   9   6
TORSDOF 7
ENDMDL
MODEL 4
REMARK VINA RESULT:      -6.1      3.421      7.819
REMARK  Name = 25314629
REMARK  10 active torsions:
REMARK  status: ('A' for Active; 'I' for Inactive)
REMARK    1  A    between atoms: O_3  and  C_11
REMARK    2  A    between atoms: O_5  and  C_25
REMARK    3  A    between atoms: O_5  and  C_26
REMARK    4  A    between atoms: N_6  and  C_9
REMARK    5  A    between atoms: N_6  and  C_15
REMARK    6  A    between atoms: N_6  and  C_16
REMARK    7  A    between atoms: N_7  and  C_10
REMARK    8  A    between atoms: N_8  and  C_20
REMARK    9  A    between atoms: C_15  and  C_18
REMARK   10  A    between atoms: C_16  and  C_19
REMARK                            x       y       z     vdW  Elec       q    Type
REMARK                         _______ _______ _______ _____ _____    ______ ____
ROOT
ATOM      1  O   UNL     1      12.064   7.336  19.308  0.00  0.00    -0.342 OA
ATOM      2  O   UNL     1      12.595   7.752  17.088  0.00  0.00    -0.347 OA
ATOM      9  C   UNL     1      14.246   8.223  18.792  0.00  0.00    +0.143 C 
ATOM     10  C   UNL     1      12.248   9.737  19.414  0.00  0.00    +0.136 C 
ATOM     11  C   UNL     1      13.715   9.667  18.937  0.00  0.00    +0.159 C 
ATOM     12  C   UNL     1      11.396   8.545  18.934  0.00  0.00    +0.170 C 
ATOM     13  C   UNL     1      13.119   7.276  18.339  0.00  0.00    +0.270 C 
ATOM     14  C   UNL     1      11.350   8.381  17.426  0.00  0.00    +0.196 C 
ENDROOT
BRANCH  10   7
ATOM      4  O   UNL     1      12.363  12.129  20.986  0.00  0.00    -0.252 OA
ATOM      7  N   UNL     1      12.196   9.828  20.857  0.00  0.00    -0.291 N 
ATOM      8  N   UNL     1      12.187  10.817  22.924  0.00  0.00    -0.269 N 
ATOM     17  C   UNL     1      12.259  11.041  21.546  0.00  0.00    +0.304 C 
ATOM     27  H   UNL     1      12.192   8.964  21.393  0.00  0.00    +0.151 HD
ATOM     29  H   UNL     1      12.103   9.850  23.226  0.00  0.00    +0.156 HD
BRANCH   8  20
ATOM     20  C   UNL     1      12.217  11.777  23.963  0.00  0.00    +0.035 A 
ATOM     21  C   UNL     1      13.411  12.046  24.631  0.00  0.00    +0.027 A 
ATOM     22  C   UNL     1      11.051  12.456  24.319  0.00  0.00    +0.027 A 
ATOM     23  C   UNL     1      13.440  12.993  25.655  0.00  0.00    +0.047 A 
ATOM     24  C   UNL     1      11.079  13.403  25.342  0.00  0.00    +0.047 A 
ATOM     25  C   UNL     1      12.274  13.671  26.011  0.00  0.00    +0.120 A 
BRANCH  25   5
ATOM      5  O   UNL     1      12.303  14.596  27.009  0.00  0.00    -0.495 OA
ATOM     26  C   UNL     1      11.105  15.337  27.243  0.00  0.00    +0.277 C 
ENDBRANCH  25   5
ENDBRANCH   8  20
ENDBRANCH  10   7
BRANCH  11   3
ATOM      3  O   UNL     1      13.813  10.300  17.655  0.00  0.00    -0.388 OA
ATOM     28  H   UNL     1      14.138   9.639  17.020  0.00  0.00    +0.210 HD
ENDBRANCH  11   3
BRANCH   9   6
ATOM      6  N   UNL     1      14.801   7.760  20.065  0.00  0.00    -0.293 NA
BRANCH   6  15
ATOM     15  C   UNL     1      15.815   8.695  20.549  0.00  0.00    +0.081 C 
ATOM     18  C   UNL     1      15.549   9.106  21.984  0.00  0.00    +0.020 C 
ENDBRANCH   6  15
BRANCH   6  16
ATOM     16  C   UNL     1      15.368   6.421  19.916  0.00  0.00    +0.081 C 
ATOM     19  C   UNL     1      16.859   6.475  19.654  0.00  0.00    +0.020 C 
ENDBRANCH   6  16
ENDBRANCH   9   6
TORSDOF 7
ENDMDL
MODEL 5
REMARK VINA RESULT:      -6.0      2.138      3.618
REMARK  Name = 25314629
REMARK  10 active torsions:
REMARK  status: ('A' for Active; 'I' for Inactive)
REMARK    1  A    between atoms: O_3  and  C_11
REMARK    2  A    between atoms: O_5  and  C_25
REMARK    3  A    between atoms: O_5  and  C_26
REMARK    4  A    between atoms: N_6  and  C_9
REMARK    5  A    between atoms: N_6  and  C_15
REMARK    6  A    between atoms: N_6  and  C_16
REMARK    7  A    between atoms: N_7  and  C_10
REMARK    8  A    between atoms: N_8  and  C_20
REMARK    9  A    between atoms: C_15  and  C_18
REMARK   10  A    between atoms: C_16  and  C_19
REMARK                            x       y       z     vdW  Elec       q    Type
REMARK                         _______ _______ _______ _____ _____    ______ ____
ROOT
ATOM      1  O   UNL     1      13.641   9.359  22.380  0.00  0.00    -0.342 OA
ATOM      2  O   UNL     1      13.094  11.390  21.401  0.00  0.00    -0.347 OA
ATOM      9  C   UNL     1      13.904   9.596  19.995  0.00  0.00    +0.143 C 
ATOM     10  C   UNL     1      15.841  10.024  21.650  0.00  0.00    +0.136 C 
ATOM     11  C   UNL     1      15.360  10.077  20.183  0.00  0.00    +0.159 C 
ATOM     12  C   UNL     1      14.708  10.267  22.669  0.00  0.00    +0.170 C 
ATOM     13  C   UNL     1      13.050   9.964  21.222  0.00  0.00    +0.270 C 
ATOM     14  C   UNL     1      13.995  11.595  22.499  0.00  0.00    +0.196 C 
ENDROOT
BRANCH  10   7
ATOM      4  O   UNL     1      18.539   9.294  21.023  0.00  0.00    -0.252 OA
ATOM      7  N   UNL     1      16.479   8.753  21.920  0.00  0.00    -0.291 N 
ATOM      8  N   UNL     1      18.143   7.178  21.960  0.00  0.00    -0.269 N 
ATOM     17  C   UNL     1      17.805   8.480  21.578  0.00  0.00    +0.304 C 
ATOM     27  H   UNL     1      15.911   8.003  22.304  0.00  0.00    +0.151 HD
ATOM     29  H   UNL     1      17.414   6.631  22.413  0.00  0.00    +0.156 HD
BRANCH   8  20
ATOM     20  C   UNL     1      19.383   6.519  21.795  0.00  0.00    +0.035 A 
ATOM     21  C   UNL     1      19.643   5.802  20.628  0.00  0.00    +0.027 A 
ATOM     22  C   UNL     1      20.348   6.586  22.800  0.00  0.00    +0.027 A 
ATOM     23  C   UNL     1      20.867   5.152  20.464  0.00  0.00    +0.047 A 
ATOM     24  C   UNL     1      21.572   5.937  22.639  0.00  0.00    +0.047 A 
ATOM     25  C   UNL     1      21.831   5.220  21.471  0.00  0.00    +0.120 A 
BRANCH  25   5
ATOM      5  O   UNL     1      23.025   4.587  21.311  0.00  0.00    -0.495 OA
ATOM     26  C   UNL     1      22.994   3.168  21.160  0.00  0.00    +0.277 C 
ENDBRANCH  25   5
ENDBRANCH   8  20
ENDBRANCH  10   7
BRANCH  11   3
ATOM      3  O   UNL     1      15.436  11.434  19.723  0.00  0.00    -0.388 OA
ATOM     28  H   UNL     1      15.307  11.428  18.759  0.00  0.00    +0.210 HD
ENDBRANCH  11   3
BRANCH   9   6
ATOM      6  N   UNL     1      13.876   8.147  19.787  0.00  0.00    -0.293 NA
BRANCH   6  15
ATOM     15  C   UNL     1      14.818   7.764  18.737  0.00  0.00    +0.081 C 
ATOM     18  C   UNL     1      15.683   6.596  19.169  0.00  0.00    +0.020 C 
ENDBRANCH   6  15
BRANCH   6  16
ATOM     16  C   UNL     1      12.523   7.708  19.447  0.00  0.00    +0.081 C 
ATOM     19  C   UNL     1      12.302   7.702  17.949  0.00  0.00    +0.020 C 
ENDBRANCH   6  16
ENDBRANCH   9   6
TORSDOF 7
ENDMDL
MODEL 6
REMARK VINA RESULT:      -5.9      1.880      2.334
REMARK  Name = 25314629
REMARK  10 active torsions:
REMARK  status: ('A' for Active; 'I' for Inactive)
REMARK    1  A    between atoms: O_3  and  C_11
REMARK    2  A    between atoms: O_5  and  C_25
REMARK    3  A    between atoms: O_5  and  C_26
REMARK    4  A    between atoms: N_6  and  C_9
REMARK    5  A    between atoms: N_6  and  C_15
REMARK    6  A    between atoms: N_6  and  C_16
REMARK    7  A    between atoms: N_7  and  C_10
REMARK    8  A    between atoms: N_8  and  C_20
REMARK    9  A    between atoms: C_15  and  C_18
REMARK   10  A    between atoms: C_16  and  C_19
REMARK                            x       y       z     vdW  Elec       q    Type
REMARK                         _______ _______ _______ _____ _____    ______ ____
ROOT
ATOM      1  O   UNL     1      14.298   8.817  17.627  0.00  0.00    -0.342 OA
ATOM      2  O   UNL     1      12.188   9.020  18.570  0.00  0.00    -0.347 OA
ATOM      9  C   UNL     1      14.120   9.634  19.888  0.00  0.00    +0.143 C 
ATOM     10  C   UNL     1      14.496   7.137  19.344  0.00  0.00    +0.136 C 
ATOM     11  C   UNL     1      14.230   8.195  20.438  0.00  0.00    +0.159 C 
ATOM     12  C   UNL     1      13.868   7.500  17.983  0.00  0.00    +0.170 C 
ATOM     13  C   UNL     1      13.486   9.631  18.485  0.00  0.00    +0.270 C 
ATOM     14  C   UNL     1      12.365   7.703  18.028  0.00  0.00    +0.196 C 
ENDROOT
BRANCH  10   7
ATOM      4  O   UNL     1      16.320   6.185  21.338  0.00  0.00    -0.252 OA
ATOM      7  N   UNL     1      15.920   6.930  19.187  0.00  0.00    -0.291 N 
ATOM      8  N   UNL     1      18.061   6.362  19.773  0.00  0.00    -0.269 N 
ATOM     17  C   UNL     1      16.739   6.461  20.216  0.00  0.00    +0.304 C 
ATOM     27  H   UNL     1      16.353   7.213  18.312  0.00  0.00    +0.151 HD
ATOM     29  H   UNL     1      18.242   6.631  18.809  0.00  0.00    +0.156 HD
BRANCH   8  20
ATOM     20  C   UNL     1      19.192   5.930  20.505  0.00  0.00    +0.035 A 
ATOM     21  C   UNL     1      19.904   4.805  20.090  0.00  0.00    +0.027 A 
ATOM     22  C   UNL     1      19.596   6.630  21.642  0.00  0.00    +0.027 A 
ATOM     23  C   UNL     1      21.021   4.379  20.811  0.00  0.00    +0.047 A 
ATOM     24  C   UNL     1      20.711   6.205  22.364  0.00  0.00    +0.047 A 
ATOM     25  C   UNL     1      21.423   5.080  21.949  0.00  0.00    +0.120 A 
BRANCH  25   5
ATOM      5  O   UNL     1      22.513   4.666  22.651  0.00  0.00    -0.495 OA
ATOM     26  C   UNL     1      23.008   5.546  23.660  0.00  0.00    +0.277 C 
ENDBRANCH  25   5
ENDBRANCH   8  20
ENDBRANCH  10   7
BRANCH  11   3
ATOM      3  O   UNL     1      12.993   7.880  21.091  0.00  0.00    -0.388 OA
ATOM     28  H   UNL     1      12.658   7.050  20.709  0.00  0.00    +0.210 HD
ENDBRANCH  11   3
BRANCH   9   6
ATOM      6  N   UNL     1      15.446  10.254  19.831  0.00  0.00    -0.293 NA
BRANCH   6  15
ATOM     15  C   UNL     1      16.147  10.076  21.102  0.00  0.00    +0.081 C 
ATOM     18  C   UNL     1      17.641   9.934  20.895  0.00  0.00    +0.020 C 
ENDBRANCH   6  15
BRANCH   6  16
ATOM     16  C   UNL     1      15.330  11.675  19.504  0.00  0.00    +0.081 C 
ATOM     19  C   UNL     1      14.856  12.481  20.696  0.00  0.00    +0.020 C 
ENDBRANCH   6  16
ENDBRANCH   9   6
TORSDOF 7
ENDMDL
MODEL 7
REMARK VINA RESULT:      -5.8     14.145     17.861
REMARK  Name = 25314629
REMARK  10 active torsions:
REMARK  status: ('A' for Active; 'I' for Inactive)
REMARK    1  A    between atoms: O_3  and  C_11
REMARK    2  A    between atoms: O_5  and  C_25
REMARK    3  A    between atoms: O_5  and  C_26
REMARK    4  A    between atoms: N_6  and  C_9
REMARK    5  A    between atoms: N_6  and  C_15
REMARK    6  A    between atoms: N_6  and  C_16
REMARK    7  A    between atoms: N_7  and  C_10
REMARK    8  A    between atoms: N_8  and  C_20
REMARK    9  A    between atoms: C_15  and  C_18
REMARK   10  A    between atoms: C_16  and  C_19
REMARK                            x       y       z     vdW  Elec       q    Type
REMARK                         _______ _______ _______ _____ _____    ______ ____
ROOT
ATOM      1  O   UNL     1      10.274   8.343   5.751  0.00  0.00    -0.342 OA
ATOM      2  O   UNL     1       9.774   7.876   7.968  0.00  0.00    -0.347 OA
ATOM      9  C   UNL     1      12.088   7.854   7.263  0.00  0.00    +0.143 C 
ATOM     10  C   UNL     1      10.969   6.036   5.810  0.00  0.00    +0.136 C 
ATOM     11  C   UNL     1      11.992   6.350   6.922  0.00  0.00    +0.159 C 
ATOM     12  C   UNL     1       9.769   7.005   5.796  0.00  0.00    +0.170 C 
ATOM     13  C   UNL     1      10.715   8.533   7.103  0.00  0.00    +0.270 C 
ATOM     14  C   UNL     1       8.990   7.047   7.098  0.00  0.00    +0.196 C 
ENDROOT
BRANCH  10   7
ATOM      4  O   UNL     1      10.391   4.317   3.592  0.00  0.00    -0.252 OA
ATOM      7  N   UNL     1      11.619   6.043   4.517  0.00  0.00    -0.291 N 
ATOM      8  N   UNL     1      12.069   5.405   2.362  0.00  0.00    -0.269 N 
ATOM     17  C   UNL     1      11.274   5.165   3.487  0.00  0.00    +0.304 C 
ATOM     27  H   UNL     1      12.414   6.662   4.382  0.00  0.00    +0.151 HD
ATOM     29  H   UNL     1      12.758   6.149   2.440  0.00  0.00    +0.156 HD
BRANCH   8  20
ATOM     20  C   UNL     1      12.036   4.736   1.116  0.00  0.00    +0.035 A 
ATOM     21  C   UNL     1      10.999   4.985   0.218  0.00  0.00    +0.027 A 
ATOM     22  C   UNL     1      13.042   3.828   0.785  0.00  0.00    +0.027 A 
ATOM     23  C   UNL     1      10.967   4.325  -1.012  0.00  0.00    +0.047 A 
ATOM     24  C   UNL     1      13.011   3.168  -0.443  0.00  0.00    +0.047 A 
ATOM     25  C   UNL     1      11.973   3.417  -1.341  0.00  0.00    +0.120 A 
BRANCH  25   5
ATOM      5  O   UNL     1      11.942   2.775  -2.541  0.00  0.00    -0.495 OA
ATOM     26  C   UNL     1      10.661   2.401  -3.046  0.00  0.00    +0.277 C 
ENDBRANCH  25   5
ENDBRANCH   8  20
ENDBRANCH  10   7
BRANCH  11   3
ATOM      3  O   UNL     1      11.604   5.655   8.115  0.00  0.00    -0.388 OA
ATOM     28  H   UNL     1      10.982   4.952   7.860  0.00  0.00    +0.210 HD
ENDBRANCH  11   3
BRANCH   9   6
ATOM      6  N   UNL     1      13.068   8.507   6.393  0.00  0.00    -0.293 NA
BRANCH   6  15
ATOM     15  C   UNL     1      14.341   7.788   6.430  0.00  0.00    +0.081 C 
ATOM     18  C   UNL     1      14.921   7.616   5.041  0.00  0.00    +0.020 C 
ENDBRANCH   6  15
BRANCH   6  16
ATOM     16  C   UNL     1      13.254   9.901   6.792  0.00  0.00    +0.081 C 
ATOM     19  C   UNL     1      13.183  10.833   5.600  0.00  0.00    +0.020 C 
ENDBRANCH   6  16
ENDBRANCH   9   6
TORSDOF 7
ENDMDL
MODEL 8
REMARK VINA RESULT:      -5.8      1.667      2.337
REMARK  Name = 25314629
REMARK  10 active torsions:
REMARK  status: ('A' for Active; 'I' for Inactive)
REMARK    1  A    between atoms: O_3  and  C_11
REMARK    2  A    between atoms: O_5  and  C_25
REMARK    3  A    between atoms: O_5  and  C_26
REMARK    4  A    between atoms: N_6  and  C_9
REMARK    5  A    between atoms: N_6  and  C_15
REMARK    6  A    between atoms: N_6  and  C_16
REMARK    7  A    between atoms: N_7  and  C_10
REMARK    8  A    between atoms: N_8  and  C_20
REMARK    9  A    between atoms: C_15  and  C_18
REMARK   10  A    between atoms: C_16  and  C_19
REMARK                            x       y       z     vdW  Elec       q    Type
REMARK                         _______ _______ _______ _____ _____    ______ ____
ROOT
ATOM      1  O   UNL     1      13.395   8.758  19.175  0.00  0.00    -0.342 OA
ATOM      2  O   UNL     1      11.178   8.077  19.207  0.00  0.00    -0.347 OA
ATOM      9  C   UNL     1      12.014   9.418  21.038  0.00  0.00    +0.143 C 
ATOM     10  C   UNL     1      13.484   7.294  21.089  0.00  0.00    +0.136 C 
ATOM     11  C   UNL     1      12.418   8.145  21.814  0.00  0.00    +0.159 C 
ATOM     12  C   UNL     1      13.384   7.378  19.551  0.00  0.00    +0.170 C 
ATOM     13  C   UNL     1      12.064   9.165  19.519  0.00  0.00    +0.270 C 
ATOM     14  C   UNL     1      12.039   6.950  18.993  0.00  0.00    +0.196 C 
ENDROOT
BRANCH  10   7
ATOM      4  O   UNL     1      15.972   6.264  20.114  0.00  0.00    -0.252 OA
ATOM      7  N   UNL     1      14.810   7.687  21.516  0.00  0.00    -0.291 N 
ATOM      8  N   UNL     1      17.100   7.701  21.588  0.00  0.00    -0.269 N 
ATOM     17  C   UNL     1      15.975   7.130  20.985  0.00  0.00    +0.304 C 
ATOM     27  H   UNL     1      14.892   8.340  22.290  0.00  0.00    +0.151 HD
ATOM     29  H   UNL     1      16.928   8.410  22.297  0.00  0.00    +0.156 HD
BRANCH   8  20
ATOM     20  C   UNL     1      18.462   7.414  21.334  0.00  0.00    +0.035 A 
ATOM     21  C   UNL     1      19.438   8.378  21.587  0.00  0.00    +0.027 A 
ATOM     22  C   UNL     1      18.829   6.166  20.829  0.00  0.00    +0.027 A 
ATOM     23  C   UNL     1      20.781   8.094  21.337  0.00  0.00    +0.047 A 
ATOM     24  C   UNL     1      20.171   5.882  20.579  0.00  0.00    +0.047 A 
ATOM     25  C   UNL     1      21.147   6.846  20.832  0.00  0.00    +0.120 A 
BRANCH  25   5
ATOM      5  O   UNL     1      22.457   6.569  20.590  0.00  0.00    -0.495 OA
ATOM     26  C   UNL     1      22.820   5.193  20.475  0.00  0.00    +0.277 C 
ENDBRANCH  25   5
ENDBRANCH   8  20
ENDBRANCH  10   7
BRANCH  11   3
ATOM      3  O   UNL     1      11.238   7.349  21.994  0.00  0.00    -0.388 OA
ATOM     28  H   UNL     1      10.587   7.887  22.476  0.00  0.00    +0.210 HD
ENDBRANCH  11   3
BRANCH   9   6
ATOM      6  N   UNL     1      12.907  10.525  21.385  0.00  0.00    -0.293 NA
BRANCH   6  15
ATOM     15  C   UNL     1      13.054  10.625  22.836  0.00  0.00    +0.081 C 
ATOM     18  C   UNL     1      14.485  10.931  23.229  0.00  0.00    +0.020 C 
ENDBRANCH   6  15
BRANCH   6  16
ATOM     16  C   UNL     1      12.401  11.780  20.832  0.00  0.00    +0.081 C 
ATOM     19  C   UNL     1      11.383  12.420  21.752  0.00  0.00    +0.020 C 
ENDBRANCH   6  16
ENDBRANCH   9   6
TORSDOF 7
ENDMDL
MODEL 9
REMARK VINA RESULT:      -5.6     27.278     30.630
REMARK  Name = 25314629
REMARK  10 active torsions:
REMARK  status: ('A' for Active; 'I' for Inactive)
REMARK    1  A    between atoms: O_3  and  C_11
REMARK    2  A    between atoms: O_5  and  C_25
REMARK    3  A    between atoms: O_5  and  C_26
REMARK    4  A    between atoms: N_6  and  C_9
REMARK    5  A    between atoms: N_6  and  C_15
REMARK    6  A    between atoms: N_6  and  C_16
REMARK    7  A    between atoms: N_7  and  C_10
REMARK    8  A    between atoms: N_8  and  C_20
REMARK    9  A    between atoms: C_15  and  C_18
REMARK   10  A    between atoms: C_16  and  C_19
REMARK                            x       y       z     vdW  Elec       q    Type
REMARK                         _______ _______ _______ _____ _____    ______ ____
ROOT
ATOM      1  O   UNL     1      -4.924 -10.325  17.912  0.00  0.00    -0.342 OA
ATOM      2  O   UNL     1      -4.599 -12.228  19.199  0.00  0.00    -0.347 OA
ATOM      9  C   UNL     1      -5.013 -12.478  16.829  0.00  0.00    +0.143 C 
ATOM     10  C   UNL     1      -7.126 -11.286  17.717  0.00  0.00    +0.136 C 
ATOM     11  C   UNL     1      -6.534 -12.564  17.082  0.00  0.00    +0.159 C 
ATOM     12  C   UNL     1      -6.133 -10.552  18.642  0.00  0.00    +0.170 C 
ATOM     13  C   UNL     1      -4.330 -11.631  17.920  0.00  0.00    +0.270 C 
ATOM     14  C   UNL     1      -5.611 -11.399  19.788  0.00  0.00    +0.196 C 
ENDROOT
BRANCH  10   7
ATOM      4  O   UNL     1      -9.563  -9.782  17.725  0.00  0.00    -0.252 OA
ATOM      7  N   UNL     1      -7.591 -10.386  16.683  0.00  0.00    -0.291 N 
ATOM      8  N   UNL     1      -8.981  -8.901  15.629  0.00  0.00    -0.269 N 
ATOM     17  C   UNL     1      -8.798  -9.689  16.768  0.00  0.00    +0.304 C 
ATOM     27  H   UNL     1      -7.051 -10.319  15.825  0.00  0.00    +0.151 HD
ATOM     29  H   UNL     1      -8.248  -8.938  14.925  0.00  0.00    +0.156 HD
BRANCH   8  20
ATOM     20  C   UNL     1     -10.069  -8.049  15.327  0.00  0.00    +0.035 A 
ATOM     21  C   UNL     1     -11.035  -8.449  14.404  0.00  0.00    +0.027 A 
ATOM     22  C   UNL     1     -10.177  -6.807  15.954  0.00  0.00    +0.027 A 
ATOM     23  C   UNL     1     -12.109  -7.609  14.108  0.00  0.00    +0.047 A 
ATOM     24  C   UNL     1     -11.249  -5.966  15.658  0.00  0.00    +0.047 A 
ATOM     25  C   UNL     1     -12.215  -6.367  14.735  0.00  0.00    +0.120 A 
BRANCH  25   5
ATOM      5  O   UNL     1     -13.263  -5.548  14.447  0.00  0.00    -0.495 OA
ATOM     26  C   UNL     1     -13.049  -4.543  13.455  0.00  0.00    +0.277 C 
ENDBRANCH  25   5
ENDBRANCH   8  20
ENDBRANCH  10   7
BRANCH  11   3
ATOM      3  O   UNL     1      -6.769 -13.668  17.967  0.00  0.00    -0.388 OA
ATOM     28  H   UNL     1      -5.908 -14.073  18.172  0.00  0.00    +0.210 HD
ENDBRANCH  11   3
BRANCH   9   6
ATOM      6  N   UNL     1      -4.754 -11.892  15.512  0.00  0.00    -0.293 NA
BRANCH   6  15
ATOM     15  C   UNL     1      -5.603 -12.519  14.500  0.00  0.00    +0.081 C 
ATOM     18  C   UNL     1      -6.150 -11.495  13.525  0.00  0.00    +0.020 C 
ENDBRANCH   6  15
BRANCH   6  16
ATOM     16  C   UNL     1      -3.342 -12.038  15.160  0.00  0.00    +0.081 C 
ATOM     19  C   UNL     1      -2.746 -10.723  14.703  0.00  0.00    +0.020 C 
ENDBRANCH   6  16
ENDBRANCH   9   6
TORSDOF 7
ENDMDL
MODEL 10
REMARK VINA RESULT:      -5.5     26.414     29.370
REMARK  Name = 25314629
REMARK  10 active torsions:
REMARK  status: ('A' for Active; 'I' for Inactive)
REMARK    1  A    between atoms: O_3  and  C_11
REMARK    2  A    between atoms: O_5  and  C_25
REMARK    3  A    between atoms: O_5  and  C_26
REMARK    4  A    between atoms: N_6  and  C_9
REMARK    5  A    between atoms: N_6  and  C_15
REMARK    6  A    between atoms: N_6  and  C_16
REMARK    7  A    between atoms: N_7  and  C_10
REMARK    8  A    between atoms: N_8  and  C_20
REMARK    9  A    between atoms: C_15  and  C_18
REMARK   10  A    between atoms: C_16  and  C_19
REMARK                            x       y       z     vdW  Elec       q    Type
REMARK                         _______ _______ _______ _____ _____    ______ ____
ROOT
ATOM      1  O   UNL     1      -4.994  -9.353  16.680  0.00  0.00    -0.342 OA
ATOM      2  O   UNL     1      -5.567 -11.143  18.040  0.00  0.00    -0.347 OA
ATOM      9  C   UNL     1      -4.256 -11.560  16.050  0.00  0.00    +0.143 C 
ATOM     10  C   UNL     1      -6.448 -10.526  15.157  0.00  0.00    +0.136 C 
ATOM     11  C   UNL     1      -5.543 -11.776  15.222  0.00  0.00    +0.159 C 
ATOM     12  C   UNL     1      -6.370  -9.652  16.426  0.00  0.00    +0.170 C 
ATOM     13  C   UNL     1      -4.521 -10.594  17.220  0.00  0.00    +0.270 C 
ATOM     14  C   UNL     1      -6.736 -10.382  17.705  0.00  0.00    +0.196 C 
ENDROOT
BRANCH  10   7
ATOM      4  O   UNL     1      -7.054 -11.151  12.427  0.00  0.00    -0.252 OA
ATOM      7  N   UNL     1      -6.118  -9.731  13.993  0.00  0.00    -0.291 N 
ATOM      8  N   UNL     1      -6.007  -9.152  11.779  0.00  0.00    -0.269 N 
ATOM     17  C   UNL     1      -6.452 -10.112  12.692  0.00  0.00    +0.304 C 
ATOM     27  H   UNL     1      -5.551  -8.898  14.125  0.00  0.00    +0.151 HD
ATOM     29  H   UNL     1      -5.523  -8.345  12.164  0.00  0.00    +0.156 HD
BRANCH   8  20
ATOM     20  C   UNL     1      -6.146  -9.162  10.371  0.00  0.00    +0.035 A 
ATOM     21  C   UNL     1      -5.070  -9.535   9.566  0.00  0.00    +0.027 A 
ATOM     22  C   UNL     1      -7.360  -8.798   9.787  0.00  0.00    +0.027 A 
ATOM     23  C   UNL     1      -5.207  -9.546   8.177  0.00  0.00    +0.047 A 
ATOM     24  C   UNL     1      -7.498  -8.807   8.400  0.00  0.00    +0.047 A 
ATOM     25  C   UNL     1      -6.422  -9.181   7.595  0.00  0.00    +0.120 A 
BRANCH  25   5
ATOM      5  O   UNL     1      -6.556  -9.192   6.241  0.00  0.00    -0.495 OA
ATOM     26  C   UNL     1      -7.480  -8.264   5.671  0.00  0.00    +0.277 C 
ENDBRANCH  25   5
ENDBRANCH   8  20
ENDBRANCH  10   7
BRANCH  11   3
ATOM      3  O   UNL     1      -6.279 -12.846  15.828  0.00  0.00    -0.388 OA
ATOM     28  H   UNL     1      -5.637 -13.467  16.215  0.00  0.00    +0.210 HD
ENDBRANCH  11   3
BRANCH   9   6
ATOM      6  N   UNL     1      -3.192 -11.026  15.198  0.00  0.00    -0.293 NA
BRANCH   6  15
ATOM     15  C   UNL     1      -3.103 -11.790  13.955  0.00  0.00    +0.081 C 
ATOM     18  C   UNL     1      -2.853 -10.885  12.765  0.00  0.00    +0.020 C 
ENDBRANCH   6  15
BRANCH   6  16
ATOM     16  C   UNL     1      -1.913 -11.048  15.907  0.00  0.00    +0.081 C 
ATOM     19  C   UNL     1      -1.082  -9.823  15.588  0.00  0.00    +0.020 C 
ENDBRANCH   6  16
ENDBRANCH   9   6
TORSDOF 7
ENDMDL
