MODEL 1
REMARK VINA RESULT:      -6.4      0.000      0.000
REMARK  Name = 11886423
REMARK  6 active torsions:
REMARK  status: ('A' for Active; 'I' for Inactive)
REMARK    1  A    between atoms: S_1  and  N_8
REMARK    2  A    between atoms: S_1  and  C_22
REMARK    3  A    between atoms: S_3  and  C_27
REMARK    4  A    between atoms: S_3  and  C_28
REMARK    5  A    between atoms: N_10  and  C_20
REMARK    6  A    between atoms: C_26  and  C_27
REMARK                            x       y       z     vdW  Elec       q    Type
REMARK                         _______ _______ _______ _____ _____    ______ ____
ROOT
ATOM      6  O   UNL     1      17.216   9.614  20.566  0.00  0.00    -0.266 OA
ATOM      8  N   UNL     1      12.304  10.409  20.812  0.00  0.00    -0.175 NA
ATOM      9  N   UNL     1      15.041   9.153  19.850  0.00  0.00    -0.310 N 
ATOM     11  C   UNL     1      13.556  10.900  18.708  0.00  0.00    +0.025 C 
ATOM     12  C   UNL     1      12.687   8.638  19.110  0.00  0.00    +0.052 C 
ATOM     13  C   UNL     1      12.904   9.699  18.034  0.00  0.00    +0.017 C 
ATOM     14  C   UNL     1      12.644  11.462  19.811  0.00  0.00    +0.114 C 
ATOM     15  C   UNL     1      11.730   9.181  20.185  0.00  0.00    +0.119 C 
ATOM     16  C   UNL     1      14.933  10.486  19.241  0.00  0.00    +0.130 C 
ATOM     17  C   UNL     1      14.004   8.220  19.737  0.00  0.00    +0.026 A 
ATOM     18  C   UNL     1      14.168   6.970  20.202  0.00  0.00    +0.024 A 
ATOM     19  C   UNL     1      16.271   8.833  20.459  0.00  0.00    +0.273 A 
ATOM     20  C   UNL     1      16.404   7.437  20.985  0.00  0.00    +0.099 A 
ATOM     21  C   UNL     1      15.393   6.573  20.839  0.00  0.00    +0.030 A 
ENDROOT
BRANCH  20  10
ATOM      7  O   UNL     1      18.646   6.162  19.744  0.00  0.00    -0.275 OA
ATOM     10  N   UNL     1      17.575   7.091  21.592  0.00  0.00    -0.281 N 
ATOM     26  C   UNL     1      18.631   6.479  20.932  0.00  0.00    +0.227 C 
ATOM     29  H   UNL     1      17.575   7.084  22.609  0.00  0.00    +0.155 HD
BRANCH  26  27
ATOM     27  C   UNL     1      19.808   6.206  21.839  0.00  0.00    +0.164 C 
BRANCH  27   3
ATOM      3  S   UNL     1      21.031   5.228  20.933  0.00  0.00    -0.155 S 
ATOM     28  C   UNL     1      22.151   6.568  20.463  0.00  0.00    +0.085 C 
ENDBRANCH  27   3
ENDBRANCH  26  27
ENDBRANCH  20  10
BRANCH   8   1
ATOM      1  S   UNL     1      11.509  10.962  22.223  0.00  0.00    +0.067 S 
ATOM      4  O   UNL     1      10.740   9.867  22.777  0.00  0.00    -0.152 OA
ATOM      5  O   UNL     1      10.919  12.257  21.961  0.00  0.00    -0.152 OA
BRANCH   1  22
ATOM      2  S   UNL     1      12.165  12.026  24.866  0.00  0.00    -0.077 S 
ATOM     22  C   UNL     1      12.766  11.303  23.450  0.00  0.00    +0.143 A 
ATOM     23  C   UNL     1      14.106  11.095  23.464  0.00  0.00    +0.036 A 
ATOM     24  C   UNL     1      14.682  11.543  24.687  0.00  0.00    +0.010 A 
ATOM     25  C   UNL     1      13.738  12.072  25.540  0.00  0.00    +0.047 A 
ENDBRANCH   1  22
ENDBRANCH   8   1
TORSDOF 5
ENDMDL
MODEL 2
REMARK VINA RESULT:      -6.0     28.562     30.341
REMARK  Name = 11886423
REMARK  6 active torsions:
REMARK  status: ('A' for Active; 'I' for Inactive)
REMARK    1  A    between atoms: S_1  and  N_8
REMARK    2  A    between atoms: S_1  and  C_22
REMARK    3  A    between atoms: S_3  and  C_27
REMARK    4  A    between atoms: S_3  and  C_28
REMARK    5  A    between atoms: N_10  and  C_20
REMARK    6  A    between atoms: C_26  and  C_27
REMARK                            x       y       z     vdW  Elec       q    Type
REMARK                         _______ _______ _______ _____ _____    ______ ____
ROOT
ATOM      6  O   UNL     1      -5.078 -12.188   8.649  0.00  0.00    -0.266 OA
ATOM      8  N   UNL     1      -4.485 -11.509  13.549  0.00  0.00    -0.175 NA
ATOM      9  N   UNL     1      -3.782 -11.500  10.467  0.00  0.00    -0.310 N 
ATOM     11  C   UNL     1      -3.017 -13.104  12.311  0.00  0.00    +0.025 C 
ATOM     12  C   UNL     1      -2.406 -10.728  12.432  0.00  0.00    +0.052 C 
ATOM     13  C   UNL     1      -1.841 -12.146  12.461  0.00  0.00    +0.017 C 
ATOM     14  C   UNL     1      -4.014 -12.921  13.467  0.00  0.00    +0.114 C 
ATOM     15  C   UNL     1      -3.361 -10.528  13.621  0.00  0.00    +0.119 C 
ATOM     16  C   UNL     1      -3.665 -12.886  10.938  0.00  0.00    +0.130 C 
ATOM     17  C   UNL     1      -3.125 -10.454  11.124  0.00  0.00    +0.026 A 
ATOM     18  C   UNL     1      -3.153  -9.213  10.612  0.00  0.00    +0.024 A 
ATOM     19  C   UNL     1      -4.499 -11.296   9.271  0.00  0.00    +0.273 A 
ATOM     20  C   UNL     1      -4.524  -9.894   8.746  0.00  0.00    +0.099 A 
ATOM     21  C   UNL     1      -3.868  -8.929   9.399  0.00  0.00    +0.030 A 
ENDROOT
BRANCH  20  10
ATOM      7  O   UNL     1      -7.282  -9.152   8.555  0.00  0.00    -0.275 OA
ATOM     10  N   UNL     1      -5.218  -9.653   7.597  0.00  0.00    -0.281 N 
ATOM     26  C   UNL     1      -6.557  -9.289   7.570  0.00  0.00    +0.227 C 
ATOM     29  H   UNL     1      -4.790  -9.972   6.732  0.00  0.00    +0.155 HD
BRANCH  26  27
ATOM     27  C   UNL     1      -7.079  -9.083   6.168  0.00  0.00    +0.164 C 
BRANCH  27   3
ATOM      3  S   UNL     1      -8.173  -7.641   6.157  0.00  0.00    -0.155 S 
ATOM     28  C   UNL     1      -8.818  -7.807   4.476  0.00  0.00    +0.085 C 
ENDBRANCH  27   3
ENDBRANCH  26  27
ENDBRANCH  20  10
BRANCH   8   1
ATOM      1  S   UNL     1      -5.785 -11.225  14.625  0.00  0.00    +0.067 S 
ATOM      4  O   UNL     1      -6.810 -12.219  14.382  0.00  0.00    -0.152 OA
ATOM      5  O   UNL     1      -6.082  -9.809  14.651  0.00  0.00    -0.152 OA
BRANCH   1  22
ATOM      2  S   UNL     1      -5.677 -13.090  16.874  0.00  0.00    -0.077 S 
ATOM     22  C   UNL     1      -5.198 -11.571  16.280  0.00  0.00    +0.143 A 
ATOM     23  C   UNL     1      -4.446 -10.852  17.149  0.00  0.00    +0.036 A 
ATOM     24  C   UNL     1      -4.242 -11.567  18.365  0.00  0.00    +0.010 A 
ATOM     25  C   UNL     1      -4.858 -12.799  18.349  0.00  0.00    +0.047 A 
ENDBRANCH   1  22
ENDBRANCH   8   1
TORSDOF 5
ENDMDL
MODEL 3
REMARK VINA RESULT:      -5.9      3.228      4.877
REMARK  Name = 11886423
REMARK  6 active torsions:
REMARK  status: ('A' for Active; 'I' for Inactive)
REMARK    1  A    between atoms: S_1  and  N_8
REMARK    2  A    between atoms: S_1  and  C_22
REMARK    3  A    between atoms: S_3  and  C_27
REMARK    4  A    between atoms: S_3  and  C_28
REMARK    5  A    between atoms: N_10  and  C_20
REMARK    6  A    between atoms: C_26  and  C_27
REMARK                            x       y       z     vdW  Elec       q    Type
REMARK                         _______ _______ _______ _____ _____    ______ ____
ROOT
ATOM      6  O   UNL     1      17.892   6.569  20.571  0.00  0.00    -0.266 OA
ATOM      8  N   UNL     1      13.630   8.481  18.841  0.00  0.00    -0.175 NA
ATOM      9  N   UNL     1      15.901   7.742  20.911  0.00  0.00    -0.310 N 
ATOM     11  C   UNL     1      13.593   6.685  20.574  0.00  0.00    +0.025 C 
ATOM     12  C   UNL     1      13.767   9.037  21.260  0.00  0.00    +0.052 C 
ATOM     13  C   UNL     1      13.134   7.695  21.618  0.00  0.00    +0.017 C 
ATOM     14  C   UNL     1      13.136   7.113  19.170  0.00  0.00    +0.114 C 
ATOM     15  C   UNL     1      13.266   9.492  19.878  0.00  0.00    +0.119 C 
ATOM     16  C   UNL     1      15.115   6.524  20.671  0.00  0.00    +0.130 C 
ATOM     17  C   UNL     1      15.282   8.944  21.269  0.00  0.00    +0.026 A 
ATOM     18  C   UNL     1      16.025  10.015  21.594  0.00  0.00    +0.024 A 
ATOM     19  C   UNL     1      17.303   7.610  20.863  0.00  0.00    +0.273 A 
ATOM     20  C   UNL     1      18.095   8.833  21.211  0.00  0.00    +0.099 A 
ATOM     21  C   UNL     1      17.460   9.956  21.563  0.00  0.00    +0.030 A 
ENDROOT
BRANCH  20  10
ATOM      7  O   UNL     1      19.815   7.982  23.334  0.00  0.00    -0.275 OA
ATOM     10  N   UNL     1      19.455   8.749  21.164  0.00  0.00    -0.281 N 
ATOM     26  C   UNL     1      20.236   8.321  22.229  0.00  0.00    +0.227 C 
ATOM     29  H   UNL     1      19.914   9.230  20.395  0.00  0.00    +0.155 HD
BRANCH  26  27
ATOM     27  C   UNL     1      21.712   8.323  21.910  0.00  0.00    +0.164 C 
BRANCH  27   3
ATOM      3  S   UNL     1      21.997   7.287  20.454  0.00  0.00    -0.155 S 
ATOM     28  C   UNL     1      21.401   5.716  21.122  0.00  0.00    +0.085 C 
ENDBRANCH  27   3
ENDBRANCH  26  27
ENDBRANCH  20  10
BRANCH   8   1
ATOM      1  S   UNL     1      13.410   8.975  17.217  0.00  0.00    +0.067 S 
ATOM      4  O   UNL     1      12.074   9.518  17.077  0.00  0.00    -0.152 OA
ATOM      5  O   UNL     1      13.915   7.947  16.333  0.00  0.00    -0.152 OA
BRANCH   1  22
ATOM      2  S   UNL     1      14.869  10.615  15.286  0.00  0.00    -0.077 S 
ATOM     22  C   UNL     1      14.499  10.365  16.925  0.00  0.00    +0.143 A 
ATOM     23  C   UNL     1      15.087  11.254  17.764  0.00  0.00    +0.036 A 
ATOM     24  C   UNL     1      15.879  12.193  17.043  0.00  0.00    +0.010 A 
ATOM     25  C   UNL     1      15.850  11.960  15.685  0.00  0.00    +0.047 A 
ENDBRANCH   1  22
ENDBRANCH   8   1
TORSDOF 5
ENDMDL
MODEL 4
REMARK VINA RESULT:      -5.9     28.209     30.298
REMARK  Name = 11886423
REMARK  6 active torsions:
REMARK  status: ('A' for Active; 'I' for Inactive)
REMARK    1  A    between atoms: S_1  and  N_8
REMARK    2  A    between atoms: S_1  and  C_22
REMARK    3  A    between atoms: S_3  and  C_27
REMARK    4  A    between atoms: S_3  and  C_28
REMARK    5  A    between atoms: N_10  and  C_20
REMARK    6  A    between atoms: C_26  and  C_27
REMARK                            x       y       z     vdW  Elec       q    Type
REMARK                         _______ _______ _______ _____ _____    ______ ____
ROOT
ATOM      6  O   UNL     1      -6.590 -10.027  14.204  0.00  0.00    -0.266 OA
ATOM      8  N   UNL     1      -2.810 -13.071  13.079  0.00  0.00    -0.175 NA
ATOM      9  N   UNL     1      -4.300 -10.482  14.110  0.00  0.00    -0.310 N 
ATOM     11  C   UNL     1      -3.054 -10.880  11.909  0.00  0.00    +0.025 C 
ATOM     12  C   UNL     1      -1.834 -10.996  14.038  0.00  0.00    +0.052 C 
ATOM     13  C   UNL     1      -1.844 -10.339  12.661  0.00  0.00    +0.017 C 
ATOM     14  C   UNL     1      -2.955 -12.406  11.752  0.00  0.00    +0.114 C 
ATOM     15  C   UNL     1      -1.679 -12.519  13.882  0.00  0.00    +0.119 C 
ATOM     16  C   UNL     1      -4.330 -10.447  12.642  0.00  0.00    +0.130 C 
ATOM     17  C   UNL     1      -3.101 -10.669  14.806  0.00  0.00    +0.026 A 
ATOM     18  C   UNL     1      -3.079 -10.584  16.147  0.00  0.00    +0.024 A 
ATOM     19  C   UNL     1      -5.515 -10.216  14.774  0.00  0.00    +0.273 A 
ATOM     20  C   UNL     1      -5.451 -10.152  16.269  0.00  0.00    +0.099 A 
ATOM     21  C   UNL     1      -4.279 -10.321  16.891  0.00  0.00    +0.030 A 
ENDROOT
BRANCH  20  10
ATOM      7  O   UNL     1      -7.165 -12.114  17.454  0.00  0.00    -0.275 OA
ATOM     10  N   UNL     1      -6.608  -9.909  16.949  0.00  0.00    -0.281 N 
ATOM     26  C   UNL     1      -7.394 -10.906  17.509  0.00  0.00    +0.227 C 
ATOM     29  H   UNL     1      -7.011  -8.982  16.843  0.00  0.00    +0.155 HD
BRANCH  26  27
ATOM     27  C   UNL     1      -8.619 -10.363  18.206  0.00  0.00    +0.164 C 
BRANCH  27   3
ATOM      3  S   UNL     1      -9.816  -9.832  16.956  0.00  0.00    -0.155 S 
ATOM     28  C   UNL     1      -9.705  -8.047  17.220  0.00  0.00    +0.085 C 
ENDBRANCH  27   3
ENDBRANCH  26  27
ENDBRANCH  20  10
BRANCH   8   1
ATOM      1  S   UNL     1      -2.946 -14.778  13.067  0.00  0.00    +0.067 S 
ATOM      4  O   UNL     1      -1.615 -15.345  13.007  0.00  0.00    -0.152 OA
ATOM      5  O   UNL     1      -3.988 -15.166  12.142  0.00  0.00    -0.152 OA
BRANCH   1  22
ATOM      2  S   UNL     1      -4.721 -14.197  15.317  0.00  0.00    -0.077 S 
ATOM     22  C   UNL     1      -3.582 -15.277  14.664  0.00  0.00    +0.143 A 
ATOM     23  C   UNL     1      -3.327 -16.351  15.452  0.00  0.00    +0.036 A 
ATOM     24  C   UNL     1      -4.095 -16.302  16.651  0.00  0.00    +0.010 A 
ATOM     25  C   UNL     1      -4.896 -15.183  16.706  0.00  0.00    +0.047 A 
ENDBRANCH   1  22
ENDBRANCH   8   1
TORSDOF 5
ENDMDL
MODEL 5
REMARK VINA RESULT:      -5.9     16.943     19.266
REMARK  Name = 11886423
REMARK  6 active torsions:
REMARK  status: ('A' for Active; 'I' for Inactive)
REMARK    1  A    between atoms: S_1  and  N_8
REMARK    2  A    between atoms: S_1  and  C_22
REMARK    3  A    between atoms: S_3  and  C_27
REMARK    4  A    between atoms: S_3  and  C_28
REMARK    5  A    between atoms: N_10  and  C_20
REMARK    6  A    between atoms: C_26  and  C_27
REMARK                            x       y       z     vdW  Elec       q    Type
REMARK                         _______ _______ _______ _____ _____    ______ ____
ROOT
ATOM      6  O   UNL     1      10.429   7.418   1.031  0.00  0.00    -0.266 OA
ATOM      8  N   UNL     1      11.181   7.040   5.941  0.00  0.00    -0.175 NA
ATOM      9  N   UNL     1      10.009   6.379   3.081  0.00  0.00    -0.310 N 
ATOM     11  C   UNL     1       8.915   7.594   5.053  0.00  0.00    +0.025 C 
ATOM     12  C   UNL     1       9.590   5.244   5.292  0.00  0.00    +0.052 C 
ATOM     13  C   UNL     1       8.417   6.209   5.446  0.00  0.00    +0.017 C 
ATOM     14  C   UNL     1      10.069   8.034   5.968  0.00  0.00    +0.114 C 
ATOM     15  C   UNL     1      10.723   5.652   6.249  0.00  0.00    +0.119 C 
ATOM     16  C   UNL     1       9.315   7.577   3.572  0.00  0.00    +0.130 C 
ATOM     17  C   UNL     1      10.090   5.220   3.859  0.00  0.00    +0.026 A 
ATOM     18  C   UNL     1      10.629   4.101   3.348  0.00  0.00    +0.024 A 
ATOM     19  C   UNL     1      10.494   6.427   1.759  0.00  0.00    +0.273 A 
ATOM     20  C   UNL     1      11.107   5.165   1.234  0.00  0.00    +0.099 A 
ATOM     21  C   UNL     1      11.148   4.075   2.009  0.00  0.00    +0.030 A 
ENDROOT
BRANCH  20  10
ATOM      7  O   UNL     1       9.647   4.565  -1.153  0.00  0.00    -0.275 OA
ATOM     10  N   UNL     1      11.600   5.174  -0.037  0.00  0.00    -0.281 N 
ATOM     26  C   UNL     1      10.837   4.879  -1.158  0.00  0.00    +0.227 C 
ATOM     29  H   UNL     1      12.612   5.179  -0.133  0.00  0.00    +0.155 HD
BRANCH  26  27
ATOM     27  C   UNL     1      11.628   4.962  -2.442  0.00  0.00    +0.164 C 
BRANCH  27   3
ATOM      3  S   UNL     1      12.961   3.740  -2.389  0.00  0.00    -0.155 S 
ATOM     28  C   UNL     1      11.953   2.241  -2.476  0.00  0.00    +0.085 C 
ENDBRANCH  27   3
ENDBRANCH  26  27
ENDBRANCH  20  10
BRANCH   8   1
ATOM      1  S   UNL     1      12.628   7.530   6.713  0.00  0.00    +0.067 S 
ATOM      4  O   UNL     1      13.035   6.489   7.634  0.00  0.00    -0.152 OA
ATOM      5  O   UNL     1      12.504   8.912   7.125  0.00  0.00    -0.152 OA
BRANCH   1  22
ATOM      2  S   UNL     1      13.328   7.656   3.877  0.00  0.00    -0.077 S 
ATOM     22  C   UNL     1      13.915   7.567   5.470  0.00  0.00    +0.143 A 
ATOM     23  C   UNL     1      15.268   7.535   5.557  0.00  0.00    +0.036 A 
ATOM     24  C   UNL     1      15.867   7.587   4.266  0.00  0.00    +0.010 A 
ATOM     25  C   UNL     1      14.926   7.655   3.262  0.00  0.00    +0.047 A 
ENDBRANCH   1  22
ENDBRANCH   8   1
TORSDOF 5
ENDMDL
MODEL 6
REMARK VINA RESULT:      -5.9     29.711     32.207
REMARK  Name = 11886423
REMARK  6 active torsions:
REMARK  status: ('A' for Active; 'I' for Inactive)
REMARK    1  A    between atoms: S_1  and  N_8
REMARK    2  A    between atoms: S_1  and  C_22
REMARK    3  A    between atoms: S_3  and  C_27
REMARK    4  A    between atoms: S_3  and  C_28
REMARK    5  A    between atoms: N_10  and  C_20
REMARK    6  A    between atoms: C_26  and  C_27
REMARK                            x       y       z     vdW  Elec       q    Type
REMARK                         _______ _______ _______ _____ _____    ______ ____
ROOT
ATOM      6  O   UNL     1     -10.089  -9.159  14.010  0.00  0.00    -0.266 OA
ATOM      8  N   UNL     1     -13.030  -5.439  12.484  0.00  0.00    -0.175 NA
ATOM      9  N   UNL     1     -11.991  -7.828  14.273  0.00  0.00    -0.310 N 
ATOM     11  C   UNL     1     -13.898  -7.778  12.564  0.00  0.00    +0.025 C 
ATOM     12  C   UNL     1     -14.021  -6.363  14.568  0.00  0.00    +0.052 C 
ATOM     13  C   UNL     1     -14.771  -7.419  13.760  0.00  0.00    +0.017 C 
ATOM     14  C   UNL     1     -13.644  -6.541  11.688  0.00  0.00    +0.114 C 
ATOM     15  C   UNL     1     -13.816  -5.104  13.708  0.00  0.00    +0.119 C 
ATOM     16  C   UNL     1     -12.597  -8.414  13.070  0.00  0.00    +0.130 C 
ATOM     17  C   UNL     1     -12.685  -6.896  15.052  0.00  0.00    +0.026 A 
ATOM     18  C   UNL     1     -12.158  -6.458  16.208  0.00  0.00    +0.024 A 
ATOM     19  C   UNL     1     -10.729  -8.327  14.653  0.00  0.00    +0.273 A 
ATOM     20  C   UNL     1     -10.167  -7.796  15.937  0.00  0.00    +0.099 A 
ATOM     21  C   UNL     1     -10.874  -6.918  16.657  0.00  0.00    +0.030 A 
ENDROOT
BRANCH  20  10
ATOM      7  O   UNL     1      -9.657  -9.906  17.803  0.00  0.00    -0.275 OA
ATOM     10  N   UNL     1      -8.942  -8.245  16.333  0.00  0.00    -0.281 N 
ATOM     26  C   UNL     1      -8.759  -9.280  17.239  0.00  0.00    +0.227 C 
ATOM     29  H   UNL     1      -8.148  -7.646  16.121  0.00  0.00    +0.155 HD
BRANCH  26  27
ATOM     27  C   UNL     1      -7.302  -9.576  17.502  0.00  0.00    +0.164 C 
BRANCH  27   3
ATOM      3  S   UNL     1      -6.463  -9.839  15.920  0.00  0.00    -0.155 S 
ATOM     28  C   UNL     1      -4.815 -10.231  16.552  0.00  0.00    +0.085 C 
ENDBRANCH  27   3
ENDBRANCH  26  27
ENDBRANCH  20  10
BRANCH   8   1
ATOM      1  S   UNL     1     -12.464  -4.101  11.578  0.00  0.00    +0.067 S 
ATOM      4  O   UNL     1     -11.603  -4.590  10.522  0.00  0.00    -0.152 OA
ATOM      5  O   UNL     1     -12.046  -3.054  12.486  0.00  0.00    -0.152 OA
BRANCH   1  22
ATOM      2  S   UNL     1     -13.734  -3.421   9.034  0.00  0.00    -0.077 S 
ATOM     22  C   UNL     1     -13.872  -3.394  10.727  0.00  0.00    +0.143 A 
ATOM     23  C   UNL     1     -15.024  -2.840  11.178  0.00  0.00    +0.036 A 
ATOM     24  C   UNL     1     -15.846  -2.414  10.095  0.00  0.00    +0.010 A 
ATOM     25  C   UNL     1     -15.264  -2.670   8.872  0.00  0.00    +0.047 A 
ENDBRANCH   1  22
ENDBRANCH   8   1
TORSDOF 5
ENDMDL
MODEL 7
REMARK VINA RESULT:      -5.8     26.184     28.880
REMARK  Name = 11886423
REMARK  6 active torsions:
REMARK  status: ('A' for Active; 'I' for Inactive)
REMARK    1  A    between atoms: S_1  and  N_8
REMARK    2  A    between atoms: S_1  and  C_22
REMARK    3  A    between atoms: S_3  and  C_27
REMARK    4  A    between atoms: S_3  and  C_28
REMARK    5  A    between atoms: N_10  and  C_20
REMARK    6  A    between atoms: C_26  and  C_27
REMARK                            x       y       z     vdW  Elec       q    Type
REMARK                         _______ _______ _______ _____ _____    ______ ____
ROOT
ATOM      6  O   UNL     1     -14.947   9.156  19.744  0.00  0.00    -0.266 OA
ATOM      8  N   UNL     1     -11.397   9.609  16.279  0.00  0.00    -0.175 NA
ATOM      9  N   UNL     1     -12.708   9.460  19.151  0.00  0.00    -0.310 N 
ATOM     11  C   UNL     1     -11.886  11.498  17.836  0.00  0.00    +0.025 C 
ATOM     12  C   UNL     1     -10.291   9.752  18.501  0.00  0.00    +0.052 C 
ATOM     13  C   UNL     1     -10.566  11.253  18.556  0.00  0.00    +0.017 C 
ATOM     14  C   UNL     1     -11.794  11.044  16.370  0.00  0.00    +0.114 C 
ATOM     15  C   UNL     1     -10.144   9.308  17.035  0.00  0.00    +0.119 C 
ATOM     16  C   UNL     1     -13.010  10.789  18.601  0.00  0.00    +0.130 C 
ATOM     17  C   UNL     1     -11.398   8.970  19.182  0.00  0.00    +0.026 A 
ATOM     18  C   UNL     1     -11.129   7.803  19.791  0.00  0.00    +0.024 A 
ATOM     19  C   UNL     1     -13.782   8.757  19.732  0.00  0.00    +0.273 A 
ATOM     20  C   UNL     1     -13.443   7.450  20.380  0.00  0.00    +0.099 A 
ATOM     21  C   UNL     1     -12.174   7.029  20.401  0.00  0.00    +0.030 A 
ENDROOT
BRANCH  20  10
ATOM      7  O   UNL     1     -14.439   7.730  23.049  0.00  0.00    -0.275 OA
ATOM     10  N   UNL     1     -14.457   6.733  20.943  0.00  0.00    -0.281 N 
ATOM     26  C   UNL     1     -14.901   6.921  22.245  0.00  0.00    +0.227 C 
ATOM     29  H   UNL     1     -14.740   5.886  20.457  0.00  0.00    +0.155 HD
BRANCH  26  27
ATOM     27  C   UNL     1     -16.036   5.996  22.616  0.00  0.00    +0.164 C 
BRANCH  27   3
ATOM      3  S   UNL     1     -15.388   4.661  23.651  0.00  0.00    -0.155 S 
ATOM     28  C   UNL     1     -16.630   4.715  24.965  0.00  0.00    +0.085 C 
ENDBRANCH  27   3
ENDBRANCH  26  27
ENDBRANCH  20  10
BRANCH   8   1
ATOM      1  S   UNL     1     -11.506   8.911  14.720  0.00  0.00    +0.067 S 
ATOM      4  O   UNL     1     -10.550   7.827  14.632  0.00  0.00    -0.152 OA
ATOM      5  O   UNL     1     -11.564   9.964  13.729  0.00  0.00    -0.152 OA
BRANCH   1  22
ATOM      2  S   UNL     1     -14.089   8.340  15.967  0.00  0.00    -0.077 S 
ATOM     22  C   UNL     1     -13.106   8.117  14.598  0.00  0.00    +0.143 A 
ATOM     23  C   UNL     1     -13.682   7.371  13.623  0.00  0.00    +0.036 A 
ATOM     24  C   UNL     1     -14.991   6.957  13.999  0.00  0.00    +0.010 A 
ATOM     25  C   UNL     1     -15.339   7.415  15.251  0.00  0.00    +0.047 A 
ENDBRANCH   1  22
ENDBRANCH   8   1
TORSDOF 5
ENDMDL
MODEL 8
REMARK VINA RESULT:      -5.7     27.568     29.444
REMARK  Name = 11886423
REMARK  6 active torsions:
REMARK  status: ('A' for Active; 'I' for Inactive)
REMARK    1  A    between atoms: S_1  and  N_8
REMARK    2  A    between atoms: S_1  and  C_22
REMARK    3  A    between atoms: S_3  and  C_27
REMARK    4  A    between atoms: S_3  and  C_28
REMARK    5  A    between atoms: N_10  and  C_20
REMARK    6  A    between atoms: C_26  and  C_27
REMARK                            x       y       z     vdW  Elec       q    Type
REMARK                         _______ _______ _______ _____ _____    ______ ____
ROOT
ATOM      6  O   UNL     1     -12.746   5.198  22.656  0.00  0.00    -0.266 OA
ATOM      8  N   UNL     1     -13.617   9.839  21.068  0.00  0.00    -0.175 NA
ATOM      9  N   UNL     1     -13.392   6.687  20.976  0.00  0.00    -0.310 N 
ATOM     11  C   UNL     1     -11.817   8.465  20.017  0.00  0.00    +0.025 C 
ATOM     12  C   UNL     1     -14.121   8.300  19.182  0.00  0.00    +0.052 C 
ATOM     13  C   UNL     1     -12.656   8.323  18.753  0.00  0.00    +0.017 C 
ATOM     14  C   UNL     1     -12.161   9.771  20.751  0.00  0.00    +0.114 C 
ATOM     15  C   UNL     1     -14.480   9.630  19.867  0.00  0.00    +0.119 C 
ATOM     16  C   UNL     1     -12.027   7.226  20.896  0.00  0.00    +0.130 C 
ATOM     17  C   UNL     1     -14.397   7.134  20.112  0.00  0.00    +0.026 A 
ATOM     18  C   UNL     1     -15.607   6.549  20.126  0.00  0.00    +0.024 A 
ATOM     19  C   UNL     1     -13.604   5.635  21.890  0.00  0.00    +0.273 A 
ATOM     20  C   UNL     1     -14.972   5.026  21.889  0.00  0.00    +0.099 A 
ATOM     21  C   UNL     1     -15.898   5.474  21.034  0.00  0.00    +0.030 A 
ENDROOT
BRANCH  20  10
ATOM      7  O   UNL     1     -16.228   5.274  24.449  0.00  0.00    -0.275 OA
ATOM     10  N   UNL     1     -15.222   4.013  22.767  0.00  0.00    -0.281 N 
ATOM     26  C   UNL     1     -15.843   4.197  23.995  0.00  0.00    +0.227 C 
ATOM     29  H   UNL     1     -14.733   3.137  22.602  0.00  0.00    +0.155 HD
BRANCH  26  27
ATOM     27  C   UNL     1     -15.997   2.910  24.770  0.00  0.00    +0.164 C 
BRANCH  27   3
ATOM      3  S   UNL     1     -17.194   3.169  26.102  0.00  0.00    -0.155 S 
ATOM     28  C   UNL     1     -16.047   3.157  27.500  0.00  0.00    +0.085 C 
ENDBRANCH  27   3
ENDBRANCH  26  27
ENDBRANCH  20  10
BRANCH   8   1
ATOM      1  S   UNL     1     -14.088  11.116  22.104  0.00  0.00    +0.067 S 
ATOM      4  O   UNL     1     -15.470  10.913  22.488  0.00  0.00    -0.152 OA
ATOM      5  O   UNL     1     -13.622  12.372  21.556  0.00  0.00    -0.152 OA
BRANCH   1  22
ATOM      2  S   UNL     1     -14.051  10.244  24.895  0.00  0.00    -0.077 S 
ATOM     22  C   UNL     1     -13.162  10.943  23.627  0.00  0.00    +0.143 A 
ATOM     23  C   UNL     1     -11.888  11.265  23.960  0.00  0.00    +0.036 A 
ATOM     24  C   UNL     1     -11.611  10.927  25.316  0.00  0.00    +0.010 A 
ATOM     25  C   UNL     1     -12.702  10.364  25.941  0.00  0.00    +0.047 A 
ENDBRANCH   1  22
ENDBRANCH   8   1
TORSDOF 5
ENDMDL
MODEL 9
REMARK VINA RESULT:      -5.7     17.475     20.365
REMARK  Name = 11886423
REMARK  6 active torsions:
REMARK  status: ('A' for Active; 'I' for Inactive)
REMARK    1  A    between atoms: S_1  and  N_8
REMARK    2  A    between atoms: S_1  and  C_22
REMARK    3  A    between atoms: S_3  and  C_27
REMARK    4  A    between atoms: S_3  and  C_28
REMARK    5  A    between atoms: N_10  and  C_20
REMARK    6  A    between atoms: C_26  and  C_27
REMARK                            x       y       z     vdW  Elec       q    Type
REMARK                         _______ _______ _______ _____ _____    ______ ____
ROOT
ATOM      6  O   UNL     1      10.374   4.029   4.660  0.00  0.00    -0.266 OA
ATOM      8  N   UNL     1      12.658   6.114   0.755  0.00  0.00    -0.175 NA
ATOM      9  N   UNL     1      10.291   5.186   2.632  0.00  0.00    -0.310 N 
ATOM     11  C   UNL     1      11.115   4.180   0.426  0.00  0.00    +0.025 C 
ATOM     12  C   UNL     1      10.214   6.465   0.462  0.00  0.00    +0.052 C 
ATOM     13  C   UNL     1      10.086   5.103  -0.215  0.00  0.00    +0.017 C 
ATOM     14  C   UNL     1      12.536   4.727   0.219  0.00  0.00    +0.114 C 
ATOM     15  C   UNL     1      11.620   7.038   0.208  0.00  0.00    +0.119 C 
ATOM     16  C   UNL     1      10.766   3.999   1.909  0.00  0.00    +0.130 C 
ATOM     17  C   UNL     1       9.948   6.359   1.952  0.00  0.00    +0.026 A 
ATOM     18  C   UNL     1       9.409   7.393   2.620  0.00  0.00    +0.024 A 
ATOM     19  C   UNL     1      10.103   5.047   4.022  0.00  0.00    +0.273 A 
ATOM     20  C   UNL     1       9.521   6.230   4.733  0.00  0.00    +0.099 A 
ATOM     21  C   UNL     1       9.193   7.325   4.038  0.00  0.00    +0.030 A 
ENDROOT
BRANCH  20  10
ATOM      7  O   UNL     1      11.464   6.806   6.754  0.00  0.00    -0.275 OA
ATOM     10  N   UNL     1       9.336   6.140   6.080  0.00  0.00    -0.281 N 
ATOM     26  C   UNL     1      10.318   6.440   7.013  0.00  0.00    +0.227 C 
ATOM     29  H   UNL     1       8.519   5.621   6.393  0.00  0.00    +0.155 HD
BRANCH  26  27
ATOM     27  C   UNL     1       9.849   6.256   8.437  0.00  0.00    +0.164 C 
BRANCH  27   3
ATOM      3  S   UNL     1       9.653   4.487   8.764  0.00  0.00    -0.155 S 
ATOM     28  C   UNL     1       8.850   4.600  10.380  0.00  0.00    +0.085 C 
ENDBRANCH  27   3
ENDBRANCH  26  27
ENDBRANCH  20  10
BRANCH   8   1
ATOM      1  S   UNL     1      14.248   6.744   0.819  0.00  0.00    +0.067 S 
ATOM      4  O   UNL     1      14.801   6.469   2.129  0.00  0.00    -0.152 OA
ATOM      5  O   UNL     1      14.258   8.073   0.246  0.00  0.00    -0.152 OA
BRANCH   1  22
ATOM      2  S   UNL     1      15.114   6.265  -1.932  0.00  0.00    -0.077 S 
ATOM     22  C   UNL     1      15.253   5.783  -0.309  0.00  0.00    +0.143 A 
ATOM     23  C   UNL     1      16.101   4.743  -0.114  0.00  0.00    +0.036 A 
ATOM     24  C   UNL     1      16.674   4.311  -1.344  0.00  0.00    +0.010 A 
ATOM     25  C   UNL     1      16.223   5.053  -2.414  0.00  0.00    +0.047 A 
ENDBRANCH   1  22
ENDBRANCH   8   1
TORSDOF 5
ENDMDL
MODEL 10
REMARK VINA RESULT:      -5.7      3.640      5.263
REMARK  Name = 11886423
REMARK  6 active torsions:
REMARK  status: ('A' for Active; 'I' for Inactive)
REMARK    1  A    between atoms: S_1  and  N_8
REMARK    2  A    between atoms: S_1  and  C_22
REMARK    3  A    between atoms: S_3  and  C_27
REMARK    4  A    between atoms: S_3  and  C_28
REMARK    5  A    between atoms: N_10  and  C_20
REMARK    6  A    between atoms: C_26  and  C_27
REMARK                            x       y       z     vdW  Elec       q    Type
REMARK                         _______ _______ _______ _____ _____    ______ ____
ROOT
ATOM      6  O   UNL     1      16.184   8.383  22.007  0.00  0.00    -0.266 OA
ATOM      8  N   UNL     1      12.586   8.377  18.562  0.00  0.00    -0.175 NA
ATOM      9  N   UNL     1      13.927   8.524  21.420  0.00  0.00    -0.310 N 
ATOM     11  C   UNL     1      12.659   6.596  20.309  0.00  0.00    +0.025 C 
ATOM     12  C   UNL     1      11.498   8.711  20.772  0.00  0.00    +0.052 C 
ATOM     13  C   UNL     1      11.434   7.201  20.984  0.00  0.00    +0.017 C 
ATOM     14  C   UNL     1      12.656   6.907  18.804  0.00  0.00    +0.114 C 
ATOM     15  C   UNL     1      11.439   9.024  19.267  0.00  0.00    +0.119 C 
ATOM     16  C   UNL     1      13.921   7.113  21.012  0.00  0.00    +0.130 C 
ATOM     17  C   UNL     1      12.759   9.293  21.385  0.00  0.00    +0.026 A 
ATOM     18  C   UNL     1      12.762  10.547  21.868  0.00  0.00    +0.024 A 
ATOM     19  C   UNL     1      15.137   9.027  21.940  0.00  0.00    +0.273 A 
ATOM     20  C   UNL     1      15.103  10.436  22.447  0.00  0.00    +0.099 A 
ATOM     21  C   UNL     1      13.959  11.128  22.409  0.00  0.00    +0.030 A 
ENDROOT
BRANCH  20  10
ATOM      7  O   UNL     1      17.089  11.872  20.970  0.00  0.00    -0.275 OA
ATOM     10  N   UNL     1      16.256  10.964  22.947  0.00  0.00    -0.281 N 
ATOM     26  C   UNL     1      17.180  11.658  22.179  0.00  0.00    +0.227 C 
ATOM     29  H   UNL     1      16.544  10.639  23.867  0.00  0.00    +0.155 HD
BRANCH  26  27
ATOM     27  C   UNL     1      18.368  12.135  22.981  0.00  0.00    +0.164 C 
BRANCH  27   3
ATOM      3  S   UNL     1      19.649  10.858  22.945  0.00  0.00    -0.155 S 
ATOM     28  C   UNL     1      21.093  11.919  23.187  0.00  0.00    +0.085 C 
ENDBRANCH  27   3
ENDBRANCH  26  27
ENDBRANCH  20  10
BRANCH   8   1
ATOM      1  S   UNL     1      12.831   8.871  16.941  0.00  0.00    +0.067 S 
ATOM      4  O   UNL     1      11.565   9.313  16.397  0.00  0.00    -0.152 OA
ATOM      5  O   UNL     1      13.657   7.893  16.266  0.00  0.00    -0.152 OA
BRANCH   1  22
ATOM      2  S   UNL     1      14.731  10.533  18.418  0.00  0.00    -0.077 S 
ATOM     22  C   UNL     1      13.850  10.342  16.977  0.00  0.00    +0.143 A 
ATOM     23  C   UNL     1      14.051  11.334  16.074  0.00  0.00    +0.036 A 
ATOM     24  C   UNL     1      14.969  12.303  16.571  0.00  0.00    +0.010 A 
ATOM     25  C   UNL     1      15.417  11.990  17.836  0.00  0.00    +0.047 A 
ENDBRANCH   1  22
ENDBRANCH   8   1
TORSDOF 5
ENDMDL
