MODEL 1
REMARK VINA RESULT:      -6.6      0.000      0.000
REMARK  Name = 75368550
REMARK  3 active torsions:
REMARK  status: ('A' for Active; 'I' for Inactive)
REMARK    1  A    between atoms: N_3  and  C_11
REMARK    2  A    between atoms: N_5  and  C_19
REMARK    3  A    between atoms: C_11  and  C_13
REMARK                            x       y       z     vdW  Elec       q    Type
REMARK                         _______ _______ _______ _____ _____    ______ ____
ROOT
ATOM      1  O   UNL     1      11.870   7.265  17.487  0.00  0.00    -0.253 OA
ATOM      2  N   UNL     1      13.577   7.600  19.072  0.00  0.00    -0.279 N 
ATOM      3  N   UNL     1      15.979   7.194  20.477  0.00  0.00    -0.295 NA
ATOM      4  N   UNL     1      11.438   7.699  19.753  0.00  0.00    -0.297 N 
ATOM      6  C   UNL     1      13.654   8.004  20.460  0.00  0.00    +0.109 C 
ATOM      7  C   UNL     1      14.691   7.159  21.201  0.00  0.00    +0.109 C 
ATOM      8  C   UNL     1      14.797   7.458  18.306  0.00  0.00    +0.125 C 
ATOM      9  C   UNL     1      15.828   6.660  19.109  0.00  0.00    +0.104 C 
ATOM     10  C   UNL     1      12.220   7.845  20.959  0.00  0.00    +0.129 C 
ATOM     12  C   UNL     1      12.256   7.496  18.625  0.00  0.00    +0.303 C 
ATOM     22  H   UNL     1      10.424   7.662  19.728  0.00  0.00    +0.150 HD
ENDROOT
BRANCH   3  11
ATOM     11  C   UNL     1      16.994   6.438  21.210  0.00  0.00    +0.121 C 
BRANCH  11  13
ATOM      5  N   UNL     1      19.855   8.742  21.424  0.00  0.00    -0.349 N 
ATOM     13  C   UNL     1      18.320   7.151  21.227  0.00  0.00    -0.008 A 
ATOM     14  C   UNL     1      19.594   6.577  20.955  0.00  0.00    +0.004 A 
ATOM     15  C   UNL     1      18.514   8.482  21.511  0.00  0.00    +0.091 A 
ATOM     16  C   UNL     1      20.539   7.596  21.084  0.00  0.00    +0.049 A 
ATOM     17  C   UNL     1      20.035   5.284  20.608  0.00  0.00    +0.010 A 
ATOM     18  C   UNL     1      21.908   7.387  20.885  0.00  0.00    +0.026 A 
ATOM     19  C   UNL     1      20.452  10.039  21.656  0.00  0.00    +0.149 C 
ATOM     20  C   UNL     1      21.401   5.060  20.406  0.00  0.00    +0.001 A 
ATOM     21  C   UNL     1      22.321   6.096  20.542  0.00  0.00    +0.002 A 
ENDBRANCH  11  13
ENDBRANCH   3  11
TORSDOF 2
ENDMDL
MODEL 2
REMARK VINA RESULT:      -6.1     27.910     29.722
REMARK  Name = 75368550
REMARK  3 active torsions:
REMARK  status: ('A' for Active; 'I' for Inactive)
REMARK    1  A    between atoms: N_3  and  C_11
REMARK    2  A    between atoms: N_5  and  C_19
REMARK    3  A    between atoms: C_11  and  C_13
REMARK                            x       y       z     vdW  Elec       q    Type
REMARK                         _______ _______ _______ _____ _____    ______ ____
ROOT
ATOM      1  O   UNL     1      -6.260 -11.291  20.536  0.00  0.00    -0.253 OA
ATOM      2  N   UNL     1      -6.008 -11.574  18.213  0.00  0.00    -0.279 N 
ATOM      3  N   UNL     1      -5.817 -10.908  15.488  0.00  0.00    -0.295 NA
ATOM      4  N   UNL     1      -7.378 -12.964  19.326  0.00  0.00    -0.297 N 
ATOM      6  C   UNL     1      -6.426 -12.544  17.223  0.00  0.00    +0.109 C 
ATOM      7  C   UNL     1      -6.872 -11.837  15.944  0.00  0.00    +0.109 C 
ATOM      8  C   UNL     1      -5.086 -10.525  17.833  0.00  0.00    +0.125 C 
ATOM      9  C   UNL     1      -5.536  -9.886  16.516  0.00  0.00    +0.104 C 
ATOM     10  C   UNL     1      -7.522 -13.333  17.937  0.00  0.00    +0.129 C 
ATOM     12  C   UNL     1      -6.509 -11.868  19.486  0.00  0.00    +0.303 C 
ATOM     22  H   UNL     1      -7.902 -13.384  20.088  0.00  0.00    +0.150 HD
ENDROOT
BRANCH   3  11
ATOM     11  C   UNL     1      -6.209 -10.271  14.231  0.00  0.00    +0.121 C 
BRANCH  11  13
ATOM      5  N   UNL     1      -3.096 -10.574  12.293  0.00  0.00    -0.349 N 
ATOM     13  C   UNL     1      -5.079 -10.250  13.237  0.00  0.00    -0.008 A 
ATOM     14  C   UNL     1      -5.100  -9.659  11.943  0.00  0.00    +0.004 A 
ATOM     15  C   UNL     1      -3.834 -10.804  13.423  0.00  0.00    +0.091 A 
ATOM     16  C   UNL     1      -3.844  -9.876  11.372  0.00  0.00    +0.049 A 
ATOM     17  C   UNL     1      -6.070  -8.957  11.199  0.00  0.00    +0.010 A 
ATOM     18  C   UNL     1      -3.508  -9.425  10.091  0.00  0.00    +0.026 A 
ATOM     19  C   UNL     1      -1.728 -11.008  12.110  0.00  0.00    +0.149 C 
ATOM     20  C   UNL     1      -5.748  -8.500   9.916  0.00  0.00    +0.001 A 
ATOM     21  C   UNL     1      -4.486  -8.731   9.372  0.00  0.00    +0.002 A 
ENDBRANCH  11  13
ENDBRANCH   3  11
TORSDOF 2
ENDMDL
MODEL 3
REMARK VINA RESULT:      -6.0     32.880     34.383
REMARK  Name = 75368550
REMARK  3 active torsions:
REMARK  status: ('A' for Active; 'I' for Inactive)
REMARK    1  A    between atoms: N_3  and  C_11
REMARK    2  A    between atoms: N_5  and  C_19
REMARK    3  A    between atoms: C_11  and  C_13
REMARK                            x       y       z     vdW  Elec       q    Type
REMARK                         _______ _______ _______ _____ _____    ______ ____
ROOT
ATOM      1  O   UNL     1     -17.709   2.737  21.980  0.00  0.00    -0.253 OA
ATOM      2  N   UNL     1     -16.881   2.603  24.179  0.00  0.00    -0.279 N 
ATOM      3  N   UNL     1     -16.881   2.550  26.990  0.00  0.00    -0.295 NA
ATOM      4  N   UNL     1     -15.811   3.914  22.702  0.00  0.00    -0.297 N 
ATOM      6  C   UNL     1     -15.710   3.071  24.889  0.00  0.00    +0.109 C 
ATOM      7  C   UNL     1     -16.099   3.581  26.276  0.00  0.00    +0.109 C 
ATOM      8  C   UNL     1     -17.799   1.701  24.842  0.00  0.00    +0.125 C 
ATOM      9  C   UNL     1     -18.114   2.217  26.249  0.00  0.00    +0.104 C 
ATOM     10  C   UNL     1     -15.125   4.129  23.956  0.00  0.00    +0.129 C 
ATOM     12  C   UNL     1     -16.903   3.039  22.850  0.00  0.00    +0.303 C 
ATOM     22  H   UNL     1     -15.589   4.399  21.838  0.00  0.00    +0.150 HD
ENDROOT
BRANCH   3  11
ATOM     11  C   UNL     1     -17.207   3.005  28.342  0.00  0.00    +0.121 C 
BRANCH  11  13
ATOM      5  N   UNL     1     -15.330   0.764  30.576  0.00  0.00    -0.349 N 
ATOM     13  C   UNL     1     -16.353   2.331  29.382  0.00  0.00    -0.008 A 
ATOM     14  C   UNL     1     -15.585   2.973  30.393  0.00  0.00    +0.004 A 
ATOM     15  C   UNL     1     -16.176   0.974  29.521  0.00  0.00    +0.091 A 
ATOM     16  C   UNL     1     -14.953   1.968  31.129  0.00  0.00    +0.049 A 
ATOM     17  C   UNL     1     -15.365   4.317  30.755  0.00  0.00    +0.010 A 
ATOM     18  C   UNL     1     -14.111   2.241  32.212  0.00  0.00    +0.026 A 
ATOM     19  C   UNL     1     -14.904  -0.540  31.034  0.00  0.00    +0.149 C 
ATOM     20  C   UNL     1     -14.525   4.605  31.836  0.00  0.00    +0.001 A 
ATOM     21  C   UNL     1     -13.909   3.581  32.552  0.00  0.00    +0.002 A 
ENDBRANCH  11  13
ENDBRANCH   3  11
TORSDOF 2
ENDMDL
MODEL 4
REMARK VINA RESULT:      -5.9     32.282     33.705
REMARK  Name = 75368550
REMARK  3 active torsions:
REMARK  status: ('A' for Active; 'I' for Inactive)
REMARK    1  A    between atoms: N_3  and  C_11
REMARK    2  A    between atoms: N_5  and  C_19
REMARK    3  A    between atoms: C_11  and  C_13
REMARK                            x       y       z     vdW  Elec       q    Type
REMARK                         _______ _______ _______ _____ _____    ______ ____
ROOT
ATOM      1  O   UNL     1     -14.964  -0.462  31.578  0.00  0.00    -0.253 OA
ATOM      2  N   UNL     1     -14.537   1.848  31.723  0.00  0.00    -0.279 N 
ATOM      3  N   UNL     1     -14.651   4.489  32.682  0.00  0.00    -0.295 NA
ATOM      4  N   UNL     1     -14.997   0.961  29.711  0.00  0.00    -0.297 N 
ATOM      6  C   UNL     1     -14.353   2.941  30.791  0.00  0.00    +0.109 C 
ATOM      7  C   UNL     1     -15.069   4.193  31.296  0.00  0.00    +0.109 C 
ATOM      8  C   UNL     1     -14.297   2.070  33.133  0.00  0.00    +0.125 C 
ATOM      9  C   UNL     1     -14.980   3.365  33.582  0.00  0.00    +0.104 C 
ATOM     10  C   UNL     1     -14.886   2.382  29.474  0.00  0.00    +0.129 C 
ATOM     12  C   UNL     1     -14.842   0.647  31.074  0.00  0.00    +0.303 C 
ATOM     22  H   UNL     1     -15.241   0.279  28.999  0.00  0.00    +0.150 HD
ENDROOT
BRANCH   3  11
ATOM     11  C   UNL     1     -15.286   5.720  33.153  0.00  0.00    +0.121 C 
BRANCH  11  13
ATOM      5  N   UNL     1     -13.126   8.642  32.569  0.00  0.00    -0.349 N 
ATOM     13  C   UNL     1     -14.318   6.873  33.185  0.00  0.00    -0.008 A 
ATOM     14  C   UNL     1     -13.507   7.267  34.285  0.00  0.00    +0.004 A 
ATOM     15  C   UNL     1     -14.061   7.736  32.145  0.00  0.00    +0.091 A 
ATOM     16  C   UNL     1     -12.768   8.379  33.873  0.00  0.00    +0.049 A 
ATOM     17  C   UNL     1     -13.328   6.784  35.597  0.00  0.00    +0.010 A 
ATOM     18  C   UNL     1     -11.858   9.034  34.710  0.00  0.00    +0.026 A 
ATOM     19  C   UNL     1     -12.599   9.714  31.753  0.00  0.00    +0.149 C 
ATOM     20  C   UNL     1     -12.421   7.429  36.445  0.00  0.00    +0.001 A 
ATOM     21  C   UNL     1     -11.698   8.536  36.006  0.00  0.00    +0.002 A 
ENDBRANCH  11  13
ENDBRANCH   3  11
TORSDOF 2
ENDMDL
MODEL 5
REMARK VINA RESULT:      -5.8     28.568     30.969
REMARK  Name = 75368550
REMARK  3 active torsions:
REMARK  status: ('A' for Active; 'I' for Inactive)
REMARK    1  A    between atoms: N_3  and  C_11
REMARK    2  A    between atoms: N_5  and  C_19
REMARK    3  A    between atoms: C_11  and  C_13
REMARK                            x       y       z     vdW  Elec       q    Type
REMARK                         _______ _______ _______ _____ _____    ______ ____
ROOT
ATOM      1  O   UNL     1     -18.526   3.807  22.770  0.00  0.00    -0.253 OA
ATOM      2  N   UNL     1     -16.452   4.917  22.840  0.00  0.00    -0.279 N 
ATOM      3  N   UNL     1     -14.054   6.069  21.930  0.00  0.00    -0.295 NA
ATOM      4  N   UNL     1     -16.865   3.307  24.351  0.00  0.00    -0.297 N 
ATOM      6  C   UNL     1     -15.308   4.947  23.726  0.00  0.00    +0.109 C 
ATOM      7  C   UNL     1     -14.011   4.971  22.918  0.00  0.00    +0.109 C 
ATOM      8  C   UNL     1     -16.524   5.858  21.742  0.00  0.00    +0.125 C 
ATOM      9  C   UNL     1     -15.186   5.895  20.998  0.00  0.00    +0.104 C 
ATOM     10  C   UNL     1     -15.499   3.708  24.599  0.00  0.00    +0.129 C 
ATOM     12  C   UNL     1     -17.419   3.996  23.256  0.00  0.00    +0.303 C 
ATOM     22  H   UNL     1     -17.341   2.561  24.849  0.00  0.00    +0.150 HD
ENDROOT
BRANCH   3  11
ATOM     11  C   UNL     1     -12.792   6.139  21.192  0.00  0.00    +0.121 C 
BRANCH  11  13
ATOM      5  N   UNL     1     -12.216   9.763  20.932  0.00  0.00    -0.349 N 
ATOM     13  C   UNL     1     -12.427   7.555  20.839  0.00  0.00    -0.008 A 
ATOM     14  C   UNL     1     -11.726   7.985  19.677  0.00  0.00    +0.004 A 
ATOM     15  C   UNL     1     -12.715   8.671  21.590  0.00  0.00    +0.091 A 
ATOM     16  C   UNL     1     -11.608   9.374  19.759  0.00  0.00    +0.049 A 
ATOM     17  C   UNL     1     -11.180   7.323  18.559  0.00  0.00    +0.010 A 
ATOM     18  C   UNL     1     -10.968  10.137  18.776  0.00  0.00    +0.026 A 
ATOM     19  C   UNL     1     -12.322  11.124  21.411  0.00  0.00    +0.149 C 
ATOM     20  C   UNL     1     -10.537   8.073  17.568  0.00  0.00    +0.001 A 
ATOM     21  C   UNL     1     -10.434   9.458  17.677  0.00  0.00    +0.002 A 
ENDBRANCH  11  13
ENDBRANCH   3  11
TORSDOF 2
ENDMDL
MODEL 6
REMARK VINA RESULT:      -5.8     28.581     29.873
REMARK  Name = 75368550
REMARK  3 active torsions:
REMARK  status: ('A' for Active; 'I' for Inactive)
REMARK    1  A    between atoms: N_3  and  C_11
REMARK    2  A    between atoms: N_5  and  C_19
REMARK    3  A    between atoms: C_11  and  C_13
REMARK                            x       y       z     vdW  Elec       q    Type
REMARK                         _______ _______ _______ _____ _____    ______ ____
ROOT
ATOM      1  O   UNL     1      -3.391 -15.567  11.010  0.00  0.00    -0.253 OA
ATOM      2  N   UNL     1      -3.312 -14.267  12.971  0.00  0.00    -0.279 N 
ATOM      3  N   UNL     1      -3.745 -12.100  14.709  0.00  0.00    -0.295 NA
ATOM      4  N   UNL     1      -1.431 -15.275  12.268  0.00  0.00    -0.297 N 
ATOM      6  C   UNL     1      -2.343 -14.000  14.013  0.00  0.00    +0.109 C 
ATOM      7  C   UNL     1      -2.364 -12.519  14.389  0.00  0.00    +0.109 C 
ATOM      8  C   UNL     1      -4.664 -13.771  13.115  0.00  0.00    +0.125 C 
ATOM      9  C   UNL     1      -4.638 -12.304  13.552  0.00  0.00    +0.104 C 
ATOM     10  C   UNL     1      -1.028 -14.493  13.415  0.00  0.00    +0.129 C 
ATOM     12  C   UNL     1      -2.794 -15.094  11.969  0.00  0.00    +0.303 C 
ATOM     22  H   UNL     1      -0.795 -15.822  11.696  0.00  0.00    +0.150 HD
ENDROOT
BRANCH   3  11
ATOM     11  C   UNL     1      -3.766 -10.699  15.129  0.00  0.00    +0.121 C 
BRANCH  11  13
ATOM      5  N   UNL     1      -6.813  -9.658  16.911  0.00  0.00    -0.349 N 
ATOM     13  C   UNL     1      -4.899 -10.416  16.079  0.00  0.00    -0.008 A 
ATOM     14  C   UNL     1      -5.000 -10.852  17.430  0.00  0.00    +0.004 A 
ATOM     15  C   UNL     1      -6.028  -9.684  15.790  0.00  0.00    +0.091 A 
ATOM     16  C   UNL     1      -6.210 -10.363  17.930  0.00  0.00    +0.049 A 
ATOM     17  C   UNL     1      -4.177 -11.617  18.280  0.00  0.00    +0.010 A 
ATOM     18  C   UNL     1      -6.638 -10.602  19.240  0.00  0.00    +0.026 A 
ATOM     19  C   UNL     1      -8.089  -8.983  16.998  0.00  0.00    +0.149 C 
ATOM     20  C   UNL     1      -4.593 -11.865  19.592  0.00  0.00    +0.001 A 
ATOM     21  C   UNL     1      -5.804 -11.364  20.063  0.00  0.00    +0.002 A 
ENDBRANCH  11  13
ENDBRANCH   3  11
TORSDOF 2
ENDMDL
MODEL 7
REMARK VINA RESULT:      -5.7     31.407     33.176
REMARK  Name = 75368550
REMARK  3 active torsions:
REMARK  status: ('A' for Active; 'I' for Inactive)
REMARK    1  A    between atoms: N_3  and  C_11
REMARK    2  A    between atoms: N_5  and  C_19
REMARK    3  A    between atoms: C_11  and  C_13
REMARK                            x       y       z     vdW  Elec       q    Type
REMARK                         _______ _______ _______ _____ _____    ______ ____
ROOT
ATOM      1  O   UNL     1     -14.920   0.116  31.938  0.00  0.00    -0.253 OA
ATOM      2  N   UNL     1     -14.144   2.267  32.497  0.00  0.00    -0.279 N 
ATOM      3  N   UNL     1     -14.132   4.856  33.593  0.00  0.00    -0.295 NA
ATOM      4  N   UNL     1     -13.844   1.524  30.398  0.00  0.00    -0.297 N 
ATOM      6  C   UNL     1     -13.354   3.296  31.855  0.00  0.00    +0.109 C 
ATOM      7  C   UNL     1     -13.950   4.674  32.138  0.00  0.00    +0.109 C 
ATOM      8  C   UNL     1     -14.507   2.416  33.890  0.00  0.00    +0.125 C 
ATOM      9  C   UNL     1     -15.041   3.829  34.142  0.00  0.00    +0.104 C 
ATOM     10  C   UNL     1     -13.356   2.884  30.385  0.00  0.00    +0.129 C 
ATOM     12  C   UNL     1     -14.369   1.172  31.656  0.00  0.00    +0.303 C 
ATOM     22  H   UNL     1     -13.883   0.922  29.582  0.00  0.00    +0.150 HD
ENDROOT
BRANCH   3  11
ATOM     11  C   UNL     1     -14.645   6.196  33.879  0.00  0.00    +0.121 C 
BRANCH  11  13
ATOM      5  N   UNL     1     -12.146   8.205  35.683  0.00  0.00    -0.349 N 
ATOM     13  C   UNL     1     -13.559   7.122  34.358  0.00  0.00    -0.008 A 
ATOM     14  C   UNL     1     -12.771   7.991  33.552  0.00  0.00    +0.004 A 
ATOM     15  C   UNL     1     -13.152   7.276  35.662  0.00  0.00    +0.091 A 
ATOM     16  C   UNL     1     -11.893   8.659  34.408  0.00  0.00    +0.049 A 
ATOM     17  C   UNL     1     -12.721   8.275  32.173  0.00  0.00    +0.010 A 
ATOM     18  C   UNL     1     -10.964   9.600  33.952  0.00  0.00    +0.026 A 
ATOM     19  C   UNL     1     -11.458   8.636  36.881  0.00  0.00    +0.149 C 
ATOM     20  C   UNL     1     -11.797   9.214  31.703  0.00  0.00    +0.001 A 
ATOM     21  C   UNL     1     -10.932   9.865  32.580  0.00  0.00    +0.002 A 
ENDBRANCH  11  13
ENDBRANCH   3  11
TORSDOF 2
ENDMDL
MODEL 8
REMARK VINA RESULT:      -5.7     28.233     29.584
REMARK  Name = 75368550
REMARK  3 active torsions:
REMARK  status: ('A' for Active; 'I' for Inactive)
REMARK    1  A    between atoms: N_3  and  C_11
REMARK    2  A    between atoms: N_5  and  C_19
REMARK    3  A    between atoms: C_11  and  C_13
REMARK                            x       y       z     vdW  Elec       q    Type
REMARK                         _______ _______ _______ _____ _____    ______ ____
ROOT
ATOM      1  O   UNL     1      -6.281 -10.261  20.057  0.00  0.00    -0.253 OA
ATOM      2  N   UNL     1      -5.827 -10.710  17.791  0.00  0.00    -0.279 N 
ATOM      3  N   UNL     1      -4.366 -10.968  15.403  0.00  0.00    -0.295 NA
ATOM      4  N   UNL     1      -7.660  -9.518  18.309  0.00  0.00    -0.297 N 
ATOM      6  C   UNL     1      -6.510 -10.524  16.528  0.00  0.00    +0.109 C 
ATOM      7  C   UNL     1      -5.526 -10.053  15.458  0.00  0.00    +0.109 C 
ATOM      8  C   UNL     1      -4.596 -11.469  17.827  0.00  0.00    +0.125 C 
ATOM      9  C   UNL     1      -3.665 -11.008  16.701  0.00  0.00    +0.104 C 
ATOM     10  C   UNL     1      -7.619  -9.529  16.864  0.00  0.00    +0.129 C 
ATOM     12  C   UNL     1      -6.551 -10.181  18.865  0.00  0.00    +0.303 C 
ATOM     22  H   UNL     1      -8.355  -9.021  18.858  0.00  0.00    +0.150 HD
ENDROOT
BRANCH   3  11
ATOM     11  C   UNL     1      -3.447 -10.560  14.340  0.00  0.00    +0.121 C 
BRANCH  11  13
ATOM      5  N   UNL     1      -3.655 -13.235  11.822  0.00  0.00    -0.349 N 
ATOM     13  C   UNL     1      -3.571 -11.439  13.124  0.00  0.00    -0.008 A 
ATOM     14  C   UNL     1      -3.788 -11.008  11.786  0.00  0.00    +0.004 A 
ATOM     15  C   UNL     1      -3.493 -12.812  13.113  0.00  0.00    +0.091 A 
ATOM     16  C   UNL     1      -3.837 -12.153  10.988  0.00  0.00    +0.049 A 
ATOM     17  C   UNL     1      -3.949  -9.749  11.173  0.00  0.00    +0.010 A 
ATOM     18  C   UNL     1      -4.038 -12.103   9.605  0.00  0.00    +0.026 A 
ATOM     19  C   UNL     1      -3.635 -14.620  11.407  0.00  0.00    +0.149 C 
ATOM     20  C   UNL     1      -4.152  -9.683   9.791  0.00  0.00    +0.001 A 
ATOM     21  C   UNL     1      -4.195 -10.843   9.020  0.00  0.00    +0.002 A 
ENDBRANCH  11  13
ENDBRANCH   3  11
TORSDOF 2
ENDMDL
MODEL 9
REMARK VINA RESULT:      -5.7     28.805     30.593
REMARK  Name = 75368550
REMARK  3 active torsions:
REMARK  status: ('A' for Active; 'I' for Inactive)
REMARK    1  A    between atoms: N_3  and  C_11
REMARK    2  A    between atoms: N_5  and  C_19
REMARK    3  A    between atoms: C_11  and  C_13
REMARK                            x       y       z     vdW  Elec       q    Type
REMARK                         _______ _______ _______ _____ _____    ______ ____
ROOT
ATOM      1  O   UNL     1     -13.282  -7.425  13.533  0.00  0.00    -0.253 OA
ATOM      2  N   UNL     1     -11.252  -7.718  14.688  0.00  0.00    -0.279 N 
ATOM      3  N   UNL     1      -9.213  -9.001  16.138  0.00  0.00    -0.295 NA
ATOM      4  N   UNL     1     -12.492  -5.899  15.132  0.00  0.00    -0.297 N 
ATOM      6  C   UNL     1     -10.441  -6.938  15.599  0.00  0.00    +0.109 C 
ATOM      7  C   UNL     1      -9.896  -7.825  16.717  0.00  0.00    +0.109 C 
ATOM      8  C   UNL     1     -10.736  -8.969  14.174  0.00  0.00    +0.125 C 
ATOM      9  C   UNL     1     -10.145  -9.799  15.317  0.00  0.00    +0.104 C 
ATOM     10  C   UNL     1     -11.387  -5.831  16.061  0.00  0.00    +0.129 C 
ATOM     12  C   UNL     1     -12.440  -7.064  14.345  0.00  0.00    +0.303 C 
ATOM     22  H   UNL     1     -13.259  -5.234  15.106  0.00  0.00    +0.150 HD
ENDROOT
BRANCH   3  11
ATOM     11  C   UNL     1      -8.634  -9.827  17.199  0.00  0.00    +0.121 C 
BRANCH  11  13
ATOM      5  N   UNL     1      -5.302 -10.542  15.812  0.00  0.00    -0.349 N 
ATOM     13  C   UNL     1      -7.211 -10.211  16.896  0.00  0.00    -0.008 A 
ATOM     14  C   UNL     1      -6.271 -10.768  17.809  0.00  0.00    +0.004 A 
ATOM     15  C   UNL     1      -6.585 -10.085  15.677  0.00  0.00    +0.091 A 
ATOM     16  C   UNL     1      -5.082 -10.966  17.104  0.00  0.00    +0.049 A 
ATOM     17  C   UNL     1      -6.318 -11.124  19.172  0.00  0.00    +0.010 A 
ATOM     18  C   UNL     1      -3.934 -11.504  17.695  0.00  0.00    +0.026 A 
ATOM     19  C   UNL     1      -4.329 -10.569  14.742  0.00  0.00    +0.149 C 
ATOM     20  C   UNL     1      -5.177 -11.662  19.776  0.00  0.00    +0.001 A 
ATOM     21  C   UNL     1      -4.005 -11.849  19.048  0.00  0.00    +0.002 A 
ENDBRANCH  11  13
ENDBRANCH   3  11
TORSDOF 2
ENDMDL
MODEL 10
REMARK VINA RESULT:      -5.6      3.896      4.978
REMARK  Name = 75368550
REMARK  3 active torsions:
REMARK  status: ('A' for Active; 'I' for Inactive)
REMARK    1  A    between atoms: N_3  and  C_11
REMARK    2  A    between atoms: N_5  and  C_19
REMARK    3  A    between atoms: C_11  and  C_13
REMARK                            x       y       z     vdW  Elec       q    Type
REMARK                         _______ _______ _______ _____ _____    ______ ____
ROOT
ATOM      1  O   UNL     1       9.994  14.299  22.025  0.00  0.00    -0.253 OA
ATOM      2  N   UNL     1      11.737  12.717  22.002  0.00  0.00    -0.279 N 
ATOM      3  N   UNL     1      13.545  10.810  21.002  0.00  0.00    -0.295 NA
ATOM      4  N   UNL     1      10.215  12.621  23.652  0.00  0.00    -0.297 N 
ATOM      6  C   UNL     1      12.223  11.679  22.887  0.00  0.00    +0.109 C 
ATOM      7  C   UNL     1      12.611  10.438  22.086  0.00  0.00    +0.109 C 
ATOM      8  C   UNL     1      12.504  13.060  20.824  0.00  0.00    +0.125 C 
ATOM      9  C   UNL     1      12.924  11.786  20.085  0.00  0.00    +0.104 C 
ATOM     10  C   UNL     1      11.070  11.476  23.868  0.00  0.00    +0.129 C 
ATOM     12  C   UNL     1      10.584  13.335  22.496  0.00  0.00    +0.303 C 
ATOM     22  H   UNL     1       9.397  12.839  24.213  0.00  0.00    +0.150 HD
ENDROOT
BRANCH   3  11
ATOM     11  C   UNL     1      13.971   9.619  20.266  0.00  0.00    +0.121 C 
BRANCH  11  13
ATOM      5  N   UNL     1      17.439   9.269  21.444  0.00  0.00    -0.349 N 
ATOM     13  C   UNL     1      15.387   9.231  20.598  0.00  0.00    -0.008 A 
ATOM     14  C   UNL     1      16.069   8.061  20.163  0.00  0.00    +0.004 A 
ATOM     15  C   UNL     1      16.255   9.953  21.383  0.00  0.00    +0.091 A 
ATOM     16  C   UNL     1      17.355   8.109  20.706  0.00  0.00    +0.049 A 
ATOM     17  C   UNL     1      15.716   6.961  19.354  0.00  0.00    +0.010 A 
ATOM     18  C   UNL     1      18.307   7.109  20.482  0.00  0.00    +0.026 A 
ATOM     19  C   UNL     1      18.603   9.713  22.179  0.00  0.00    +0.149 C 
ATOM     20  C   UNL     1      16.658   5.954  19.122  0.00  0.00    +0.001 A 
ATOM     21  C   UNL     1      17.933   6.029  19.678  0.00  0.00    +0.002 A 
ENDBRANCH  11  13
ENDBRANCH   3  11
TORSDOF 2
ENDMDL
