MODEL 1
REMARK VINA RESULT:      -7.1      0.000      0.000
REMARK  Name = 75536603
REMARK  9 active torsions:
REMARK  status: ('A' for Active; 'I' for Inactive)
REMARK    1  A    between atoms: O_3  and  C_10
REMARK    2  A    between atoms: O_5  and  C_24
REMARK    3  A    between atoms: N_7  and  C_9
REMARK    4  A    between atoms: N_7  and  C_14
REMARK    5  A    between atoms: N_8  and  C_13
REMARK    6  A    between atoms: C_11  and  C_13
REMARK    7  A    between atoms: C_14  and  C_15
REMARK    8  A    between atoms: C_16  and  C_19
REMARK    9  A    between atoms: C_22  and  C_24
REMARK                            x       y       z     vdW  Elec       q    Type
REMARK                         _______ _______ _______ _____ _____    ______ ____
ROOT
ATOM      2  O   UNL     1      10.577   8.461  19.779  0.00  0.00    -0.371 OA
ATOM      9  C   UNL     1      12.534   7.266  19.162  0.00  0.00    +0.111 C 
ATOM     10  C   UNL     1      12.448   7.326  20.675  0.00  0.00    +0.164 C 
ATOM     11  C   UNL     1      10.967   7.615  20.874  0.00  0.00    +0.165 C 
ATOM     12  C   UNL     1      11.590   8.389  18.761  0.00  0.00    +0.181 C 
ENDROOT
BRANCH  10   3
ATOM      3  O   UNL     1      12.837   6.114  21.293  0.00  0.00    -0.388 OA
ATOM     28  H   UNL     1      12.121   5.467  21.173  0.00  0.00    +0.210 HD
ENDBRANCH  10   3
BRANCH   9   7
ATOM      7  N   UNL     1      13.881   7.448  18.646  0.00  0.00    -0.305 NA
ATOM     27  H   UNL     1      13.831   7.934  17.750  0.00  0.00    +0.123 HD
BRANCH   7  14
ATOM     14  C   UNL     1      14.693   8.236  19.566  0.00  0.00    +0.116 C 
BRANCH  14  15
ATOM     15  C   UNL     1      16.018   7.579  19.848  0.00  0.00    -0.034 A 
ATOM     17  C   UNL     1      16.350   6.381  19.214  0.00  0.00    +0.006 A 
ATOM     18  C   UNL     1      16.913   8.165  20.742  0.00  0.00    +0.006 A 
ATOM     20  C   UNL     1      17.577   5.771  19.474  0.00  0.00    +0.015 A 
ATOM     21  C   UNL     1      18.140   7.556  21.002  0.00  0.00    +0.015 A 
ATOM     22  C   UNL     1      18.472   6.359  20.368  0.00  0.00    +0.059 A 
BRANCH  22  24
ATOM      6  O   UNL     1      20.454   5.923  21.637  0.00  0.00    -0.245 OA
ATOM     24  C   UNL     1      19.752   5.724  20.640  0.00  0.00    +0.337 C 
BRANCH  24   5
ATOM      5  O   UNL     1      20.121   4.856  19.658  0.00  0.00    -0.477 OA
ATOM     30  H   UNL     1      19.442   4.163  19.509  0.00  0.00    +0.295 HD
ENDBRANCH  24   5
ENDBRANCH  22  24
ENDBRANCH  14  15
ENDBRANCH   7  14
ENDBRANCH   9   7
BRANCH  11  13
ATOM     13  C   UNL     1      10.660   8.305  22.191  0.00  0.00    +0.138 C 
BRANCH  13   8
ATOM      4  O   UNL     1      11.101  11.132  21.950  0.00  0.00    -0.270 OA
ATOM      8  N   UNL     1      11.795   9.039  22.673  0.00  0.00    -0.308 N 
ATOM     16  C   UNL     1      11.925  10.415  22.511  0.00  0.00    +0.251 C 
ATOM     29  H   UNL     1      12.525   8.508  23.135  0.00  0.00    +0.149 HD
BRANCH  16  19
ATOM      1  S   UNL     1      13.066  12.427  24.017  0.00  0.00    -0.092 S 
ATOM     19  C   UNL     1      13.172  11.023  23.043  0.00  0.00    +0.074 A 
ATOM     23  C   UNL     1      14.476  10.612  22.868  0.00  0.00    +0.021 A 
ATOM     25  C   UNL     1      15.399  11.462  23.542  0.00  0.00    +0.008 A 
ATOM     26  C   UNL     1      14.766  12.490  24.207  0.00  0.00    +0.046 A 
ENDBRANCH  16  19
ENDBRANCH  13   8
ENDBRANCH  11  13
TORSDOF 9
ENDMDL
MODEL 2
REMARK VINA RESULT:      -6.7      1.776      2.292
REMARK  Name = 75536603
REMARK  9 active torsions:
REMARK  status: ('A' for Active; 'I' for Inactive)
REMARK    1  A    between atoms: O_3  and  C_10
REMARK    2  A    between atoms: O_5  and  C_24
REMARK    3  A    between atoms: N_7  and  C_9
REMARK    4  A    between atoms: N_7  and  C_14
REMARK    5  A    between atoms: N_8  and  C_13
REMARK    6  A    between atoms: C_11  and  C_13
REMARK    7  A    between atoms: C_14  and  C_15
REMARK    8  A    between atoms: C_16  and  C_19
REMARK    9  A    between atoms: C_22  and  C_24
REMARK                            x       y       z     vdW  Elec       q    Type
REMARK                         _______ _______ _______ _____ _____    ______ ____
ROOT
ATOM      2  O   UNL     1      13.348   8.120  18.809  0.00  0.00    -0.371 OA
ATOM      9  C   UNL     1      14.314   6.666  20.420  0.00  0.00    +0.111 C 
ATOM     10  C   UNL     1      12.946   7.105  20.907  0.00  0.00    +0.164 C 
ATOM     11  C   UNL     1      12.296   7.543  19.602  0.00  0.00    +0.165 C 
ATOM     12  C   UNL     1      14.612   7.723  19.368  0.00  0.00    +0.181 C 
ENDROOT
BRANCH  10   3
ATOM      3  O   UNL     1      12.226   6.058  21.529  0.00  0.00    -0.388 OA
ATOM     28  H   UNL     1      11.354   6.400  21.789  0.00  0.00    +0.210 HD
ENDBRANCH  10   3
BRANCH   9   7
ATOM      7  N   UNL     1      15.319   6.615  21.470  0.00  0.00    -0.305 NA
ATOM     27  H   UNL     1      15.856   5.754  21.374  0.00  0.00    +0.123 HD
BRANCH   7  14
ATOM     14  C   UNL     1      16.229   7.751  21.382  0.00  0.00    +0.116 C 
BRANCH  14  15
ATOM     15  C   UNL     1      17.650   7.313  21.151  0.00  0.00    -0.034 A 
ATOM     17  C   UNL     1      17.913   6.162  20.408  0.00  0.00    +0.006 A 
ATOM     18  C   UNL     1      18.705   8.058  21.678  0.00  0.00    +0.006 A 
ATOM     20  C   UNL     1      19.230   5.756  20.193  0.00  0.00    +0.015 A 
ATOM     21  C   UNL     1      20.022   7.652  21.464  0.00  0.00    +0.015 A 
ATOM     22  C   UNL     1      20.284   6.501  20.721  0.00  0.00    +0.059 A 
BRANCH  22  24
ATOM      6  O   UNL     1      22.666   6.692  20.863  0.00  0.00    -0.245 OA
ATOM     24  C   UNL     1      21.658   6.078  20.497  0.00  0.00    +0.337 C 
BRANCH  24   5
ATOM      5  O   UNL     1      21.736   4.899  19.821  0.00  0.00    -0.477 OA
ATOM     30  H   UNL     1      21.893   5.037  18.862  0.00  0.00    +0.295 HD
ENDBRANCH  24   5
ENDBRANCH  22  24
ENDBRANCH  14  15
ENDBRANCH   7  14
ENDBRANCH   9   7
BRANCH  11  13
ATOM     13  C   UNL     1      11.184   8.558  19.796  0.00  0.00    +0.138 C 
BRANCH  13   8
ATOM      4  O   UNL     1      12.334  11.099  20.476  0.00  0.00    -0.270 OA
ATOM      8  N   UNL     1      11.238   9.151  21.101  0.00  0.00    -0.308 N 
ATOM     16  C   UNL     1      11.818  10.394  21.339  0.00  0.00    +0.251 C 
ATOM     29  H   UNL     1      10.844   8.617  21.867  0.00  0.00    +0.149 HD
BRANCH  16  19
ATOM      1  S   UNL     1      13.191  11.684  23.356  0.00  0.00    -0.092 S 
ATOM     19  C   UNL     1      11.819  10.857  22.751  0.00  0.00    +0.074 A 
ATOM     23  C   UNL     1      10.834  10.721  23.705  0.00  0.00    +0.021 A 
ATOM     25  C   UNL     1      11.212  11.303  24.949  0.00  0.00    +0.008 A 
ATOM     26  C   UNL     1      12.470  11.861  24.899  0.00  0.00    +0.046 A 
ENDBRANCH  16  19
ENDBRANCH  13   8
ENDBRANCH  11  13
TORSDOF 9
ENDMDL
MODEL 3
REMARK VINA RESULT:      -6.4     27.097     30.092
REMARK  Name = 75536603
REMARK  9 active torsions:
REMARK  status: ('A' for Active; 'I' for Inactive)
REMARK    1  A    between atoms: O_3  and  C_10
REMARK    2  A    between atoms: O_5  and  C_24
REMARK    3  A    between atoms: N_7  and  C_9
REMARK    4  A    between atoms: N_7  and  C_14
REMARK    5  A    between atoms: N_8  and  C_13
REMARK    6  A    between atoms: C_11  and  C_13
REMARK    7  A    between atoms: C_14  and  C_15
REMARK    8  A    between atoms: C_16  and  C_19
REMARK    9  A    between atoms: C_22  and  C_24
REMARK                            x       y       z     vdW  Elec       q    Type
REMARK                         _______ _______ _______ _____ _____    ______ ____
ROOT
ATOM      2  O   UNL     1     -17.503   5.355  24.401  0.00  0.00    -0.371 OA
ATOM      9  C   UNL     1     -15.975   4.170  23.023  0.00  0.00    +0.111 C 
ATOM     10  C   UNL     1     -15.708   3.816  24.474  0.00  0.00    +0.164 C 
ATOM     11  C   UNL     1     -17.034   4.200  25.117  0.00  0.00    +0.165 C 
ATOM     12  C   UNL     1     -16.771   5.457  23.167  0.00  0.00    +0.181 C 
ENDROOT
BRANCH  10   3
ATOM      3  O   UNL     1     -15.410   2.446  24.657  0.00  0.00    -0.388 OA
ATOM     28  H   UNL     1     -15.435   2.010  23.788  0.00  0.00    +0.210 HD
ENDBRANCH  10   3
BRANCH   9   7
ATOM      7  N   UNL     1     -14.766   4.338  22.232  0.00  0.00    -0.305 NA
ATOM     27  H   UNL     1     -15.023   4.441  21.250  0.00  0.00    +0.123 HD
BRANCH   7  14
ATOM     14  C   UNL     1     -14.025   5.521  22.652  0.00  0.00    +0.116 C 
BRANCH  14  15
ATOM     15  C   UNL     1     -13.520   6.314  21.476  0.00  0.00    -0.034 A 
ATOM     17  C   UNL     1     -12.156   6.331  21.181  0.00  0.00    +0.006 A 
ATOM     18  C   UNL     1     -14.414   7.031  20.681  0.00  0.00    +0.006 A 
ATOM     20  C   UNL     1     -11.688   7.065  20.092  0.00  0.00    +0.015 A 
ATOM     21  C   UNL     1     -13.945   7.765  19.591  0.00  0.00    +0.015 A 
ATOM     22  C   UNL     1     -12.582   7.781  19.297  0.00  0.00    +0.059 A 
BRANCH  22  24
ATOM      6  O   UNL     1     -11.710   9.720  18.198  0.00  0.00    -0.245 OA
ATOM     24  C   UNL     1     -12.094   8.546  18.160  0.00  0.00    +0.337 C 
BRANCH  24   5
ATOM      5  O   UNL     1     -12.098   7.824  17.006  0.00  0.00    -0.477 OA
ATOM     30  H   UNL     1     -11.189   7.668  16.670  0.00  0.00    +0.295 HD
ENDBRANCH  24   5
ENDBRANCH  22  24
ENDBRANCH  14  15
ENDBRANCH   7  14
ENDBRANCH   9   7
BRANCH  11  13
ATOM     13  C   UNL     1     -16.912   4.528  26.595  0.00  0.00    +0.138 C 
BRANCH  13   8
ATOM      4  O   UNL     1     -16.025   4.579  29.325  0.00  0.00    -0.270 OA
ATOM      8  N   UNL     1     -16.323   3.441  27.324  0.00  0.00    -0.308 N 
ATOM     16  C   UNL     1     -15.921   3.557  28.651  0.00  0.00    +0.251 C 
ATOM     29  H   UNL     1     -16.193   2.568  26.825  0.00  0.00    +0.149 HD
BRANCH  16  19
ATOM      1  S   UNL     1     -13.947   2.532  30.286  0.00  0.00    -0.092 S 
ATOM     19  C   UNL     1     -15.304   2.349  29.257  0.00  0.00    +0.074 A 
ATOM     23  C   UNL     1     -15.671   1.028  29.116  0.00  0.00    +0.021 A 
ATOM     25  C   UNL     1     -14.827   0.156  29.862  0.00  0.00    +0.008 A 
ATOM     26  C   UNL     1     -13.847   0.843  30.544  0.00  0.00    +0.046 A 
ENDBRANCH  16  19
ENDBRANCH  13   8
ENDBRANCH  11  13
TORSDOF 9
ENDMDL
MODEL 4
REMARK VINA RESULT:      -6.3     25.571     28.430
REMARK  Name = 75536603
REMARK  9 active torsions:
REMARK  status: ('A' for Active; 'I' for Inactive)
REMARK    1  A    between atoms: O_3  and  C_10
REMARK    2  A    between atoms: O_5  and  C_24
REMARK    3  A    between atoms: N_7  and  C_9
REMARK    4  A    between atoms: N_7  and  C_14
REMARK    5  A    between atoms: N_8  and  C_13
REMARK    6  A    between atoms: C_11  and  C_13
REMARK    7  A    between atoms: C_14  and  C_15
REMARK    8  A    between atoms: C_16  and  C_19
REMARK    9  A    between atoms: C_22  and  C_24
REMARK                            x       y       z     vdW  Elec       q    Type
REMARK                         _______ _______ _______ _____ _____    ______ ____
ROOT
ATOM      2  O   UNL     1     -11.403  10.650  16.154  0.00  0.00    -0.371 OA
ATOM      9  C   UNL     1     -10.115   9.546  17.817  0.00  0.00    +0.111 C 
ATOM     10  C   UNL     1     -10.865   8.509  17.003  0.00  0.00    +0.164 C 
ATOM     11  C   UNL     1     -11.170   9.295  15.735  0.00  0.00    +0.165 C 
ATOM     12  C   UNL     1     -10.899  10.808  17.492  0.00  0.00    +0.181 C 
ENDROOT
BRANCH  10   3
ATOM      3  O   UNL     1     -10.088   7.358  16.736  0.00  0.00    -0.388 OA
ATOM     28  H   UNL     1      -9.222   7.645  16.399  0.00  0.00    +0.210 HD
ENDBRANCH  10   3
BRANCH   9   7
ATOM      7  N   UNL     1     -10.078   9.255  19.241  0.00  0.00    -0.305 NA
ATOM     27  H   UNL     1      -9.260   9.705  19.651  0.00  0.00    +0.123 HD
BRANCH   7  14
ATOM     14  C   UNL     1     -11.275   9.752  19.910  0.00  0.00    +0.116 C 
BRANCH  14  15
ATOM     15  C   UNL     1     -12.043   8.644  20.581  0.00  0.00    -0.034 A 
ATOM     17  C   UNL     1     -13.149   8.946  21.375  0.00  0.00    +0.006 A 
ATOM     18  C   UNL     1     -11.649   7.317  20.409  0.00  0.00    +0.006 A 
ATOM     20  C   UNL     1     -13.861   7.921  21.997  0.00  0.00    +0.015 A 
ATOM     21  C   UNL     1     -12.361   6.292  21.031  0.00  0.00    +0.015 A 
ATOM     22  C   UNL     1     -13.467   6.594  21.825  0.00  0.00    +0.059 A 
BRANCH  22  24
ATOM      6  O   UNL     1     -14.625   4.501  21.917  0.00  0.00    -0.245 OA
ATOM     24  C   UNL     1     -14.211   5.524  22.473  0.00  0.00    +0.337 C 
BRANCH  24   5
ATOM      5  O   UNL     1     -14.415   5.762  23.797  0.00  0.00    -0.477 OA
ATOM     30  H   UNL     1     -13.645   5.489  24.341  0.00  0.00    +0.295 HD
ENDBRANCH  24   5
ENDBRANCH  22  24
ENDBRANCH  14  15
ENDBRANCH   7  14
ENDBRANCH   9   7
BRANCH  11  13
ATOM     13  C   UNL     1     -12.381   8.775  14.982  0.00  0.00    +0.138 C 
BRANCH  13   8
ATOM      4  O   UNL     1     -14.807   9.918  16.006  0.00  0.00    -0.270 OA
ATOM      8  N   UNL     1     -13.317   8.144  15.868  0.00  0.00    -0.308 N 
ATOM     16  C   UNL     1     -14.473   8.777  16.315  0.00  0.00    +0.251 C 
ATOM     29  H   UNL     1     -13.097   7.204  16.177  0.00  0.00    +0.149 HD
BRANCH  16  19
ATOM      1  S   UNL     1     -16.717   7.206  16.647  0.00  0.00    -0.092 S 
ATOM     19  C   UNL     1     -15.326   8.000  17.251  0.00  0.00    +0.074 A 
ATOM     23  C   UNL     1     -15.166   7.804  18.606  0.00  0.00    +0.021 A 
ATOM     25  C   UNL     1     -16.199   6.992  19.154  0.00  0.00    +0.008 A 
ATOM     26  C   UNL     1     -17.110   6.598  18.198  0.00  0.00    +0.046 A 
ENDBRANCH  16  19
ENDBRANCH  13   8
ENDBRANCH  11  13
TORSDOF 9
ENDMDL
MODEL 5
REMARK VINA RESULT:      -6.1     26.708     28.710
REMARK  Name = 75536603
REMARK  9 active torsions:
REMARK  status: ('A' for Active; 'I' for Inactive)
REMARK    1  A    between atoms: O_3  and  C_10
REMARK    2  A    between atoms: O_5  and  C_24
REMARK    3  A    between atoms: N_7  and  C_9
REMARK    4  A    between atoms: N_7  and  C_14
REMARK    5  A    between atoms: N_8  and  C_13
REMARK    6  A    between atoms: C_11  and  C_13
REMARK    7  A    between atoms: C_14  and  C_15
REMARK    8  A    between atoms: C_16  and  C_19
REMARK    9  A    between atoms: C_22  and  C_24
REMARK                            x       y       z     vdW  Elec       q    Type
REMARK                         _______ _______ _______ _____ _____    ______ ____
ROOT
ATOM      2  O   UNL     1      -5.080 -11.700  15.788  0.00  0.00    -0.371 OA
ATOM      9  C   UNL     1      -3.026 -11.199  14.706  0.00  0.00    +0.111 C 
ATOM     10  C   UNL     1      -2.929 -10.792  16.164  0.00  0.00    +0.164 C 
ATOM     11  C   UNL     1      -4.040 -11.632  16.778  0.00  0.00    +0.165 C 
ATOM     12  C   UNL     1      -4.532 -11.298  14.520  0.00  0.00    +0.181 C 
ENDROOT
BRANCH  10   3
ATOM      3  O   UNL     1      -1.667 -11.090  16.731  0.00  0.00    -0.388 OA
ATOM     28  H   UNL     1      -0.987 -10.603  16.235  0.00  0.00    +0.210 HD
ENDBRANCH  10   3
BRANCH   9   7
ATOM      7  N   UNL     1      -2.405 -10.253  13.793  0.00  0.00    -0.305 NA
ATOM     27  H   UNL     1      -1.637  -9.783  14.273  0.00  0.00    +0.123 HD
BRANCH   7  14
ATOM     14  C   UNL     1      -1.880 -10.929  12.613  0.00  0.00    +0.116 C 
BRANCH  14  15
ATOM     15  C   UNL     1      -2.717 -10.657  11.392  0.00  0.00    -0.034 A 
ATOM     17  C   UNL     1      -2.741  -9.378  10.834  0.00  0.00    +0.006 A 
ATOM     18  C   UNL     1      -3.469 -11.682  10.818  0.00  0.00    +0.006 A 
ATOM     20  C   UNL     1      -3.517  -9.125   9.703  0.00  0.00    +0.015 A 
ATOM     21  C   UNL     1      -4.245 -11.429   9.686  0.00  0.00    +0.015 A 
ATOM     22  C   UNL     1      -4.268 -10.151   9.129  0.00  0.00    +0.059 A 
BRANCH  22  24
ATOM      6  O   UNL     1      -5.043 -10.537   6.898  0.00  0.00    -0.245 OA
ATOM     24  C   UNL     1      -5.076  -9.888   7.948  0.00  0.00    +0.337 C 
BRANCH  24   5
ATOM      5  O   UNL     1      -5.905  -8.820   8.113  0.00  0.00    -0.477 OA
ATOM     30  H   UNL     1      -6.538  -8.731   7.369  0.00  0.00    +0.295 HD
ENDBRANCH  24   5
ENDBRANCH  22  24
ENDBRANCH  14  15
ENDBRANCH   7  14
ENDBRANCH   9   7
BRANCH  11  13
ATOM     13  C   UNL     1      -4.594 -11.049  18.065  0.00  0.00    +0.138 C 
BRANCH  13   8
ATOM      4  O   UNL     1      -6.591 -11.156  20.125  0.00  0.00    -0.270 OA
ATOM      8  N   UNL     1      -5.981 -10.709  17.931  0.00  0.00    -0.308 N 
ATOM     16  C   UNL     1      -6.882 -10.792  18.989  0.00  0.00    +0.251 C 
ATOM     29  H   UNL     1      -6.297 -10.413  17.014  0.00  0.00    +0.149 HD
BRANCH  16  19
ATOM      1  S   UNL     1      -9.546 -11.061  19.659  0.00  0.00    -0.092 S 
ATOM     19  C   UNL     1      -8.290 -10.430  18.681  0.00  0.00    +0.074 A 
ATOM     23  C   UNL     1      -8.774  -9.622  17.676  0.00  0.00    +0.021 A 
ATOM     25  C   UNL     1     -10.194  -9.519  17.710  0.00  0.00    +0.008 A 
ATOM     26  C   UNL     1     -10.742 -10.253  18.739  0.00  0.00    +0.046 A 
ENDBRANCH  16  19
ENDBRANCH  13   8
ENDBRANCH  11  13
TORSDOF 9
ENDMDL
MODEL 6
REMARK VINA RESULT:      -6.0     27.113     29.812
REMARK  Name = 75536603
REMARK  9 active torsions:
REMARK  status: ('A' for Active; 'I' for Inactive)
REMARK    1  A    between atoms: O_3  and  C_10
REMARK    2  A    between atoms: O_5  and  C_24
REMARK    3  A    between atoms: N_7  and  C_9
REMARK    4  A    between atoms: N_7  and  C_14
REMARK    5  A    between atoms: N_8  and  C_13
REMARK    6  A    between atoms: C_11  and  C_13
REMARK    7  A    between atoms: C_14  and  C_15
REMARK    8  A    between atoms: C_16  and  C_19
REMARK    9  A    between atoms: C_22  and  C_24
REMARK                            x       y       z     vdW  Elec       q    Type
REMARK                         _______ _______ _______ _____ _____    ______ ____
ROOT
ATOM      2  O   UNL     1     -10.303 -12.737  18.564  0.00  0.00    -0.371 OA
ATOM      9  C   UNL     1      -8.719 -11.437  19.765  0.00  0.00    +0.111 C 
ATOM     10  C   UNL     1     -10.025 -10.671  19.681  0.00  0.00    +0.164 C 
ATOM     11  C   UNL     1     -11.008 -11.797  19.393  0.00  0.00    +0.165 C 
ATOM     12  C   UNL     1      -8.895 -12.456  18.650  0.00  0.00    +0.181 C 
ENDROOT
BRANCH  10   3
ATOM      3  O   UNL     1     -10.339  -9.992  20.882  0.00  0.00    -0.388 OA
ATOM     28  H   UNL     1     -10.888  -9.220  20.662  0.00  0.00    +0.210 HD
ENDBRANCH  10   3
BRANCH   9   7
ATOM      7  N   UNL     1      -7.541 -10.603  19.587  0.00  0.00    -0.305 NA
ATOM     27  H   UNL     1      -6.708 -11.156  19.791  0.00  0.00    +0.123 HD
BRANCH   7  14
ATOM     14  C   UNL     1      -7.453 -10.103  18.220  0.00  0.00    +0.116 C 
BRANCH  14  15
ATOM     15  C   UNL     1      -6.097 -10.356  17.618  0.00  0.00    -0.034 A 
ATOM     17  C   UNL     1      -5.115 -11.011  18.361  0.00  0.00    +0.006 A 
ATOM     18  C   UNL     1      -5.821  -9.934  16.317  0.00  0.00    +0.006 A 
ATOM     20  C   UNL     1      -3.858 -11.246  17.803  0.00  0.00    +0.015 A 
ATOM     21  C   UNL     1      -4.564 -10.168  15.759  0.00  0.00    +0.015 A 
ATOM     22  C   UNL     1      -3.583 -10.824  16.502  0.00  0.00    +0.059 A 
BRANCH  22  24
ATOM      6  O   UNL     1      -1.293 -10.323  16.021  0.00  0.00    -0.245 OA
ATOM     24  C   UNL     1      -2.272 -11.069  15.920  0.00  0.00    +0.337 C 
BRANCH  24   5
ATOM      5  O   UNL     1      -2.221 -12.241  15.229  0.00  0.00    -0.477 OA
ATOM     30  H   UNL     1      -2.413 -13.013  15.804  0.00  0.00    +0.295 HD
ENDBRANCH  24   5
ENDBRANCH  22  24
ENDBRANCH  14  15
ENDBRANCH   7  14
ENDBRANCH   9   7
BRANCH  11  13
ATOM     13  C   UNL     1     -12.266 -11.330  18.683  0.00  0.00    +0.138 C 
BRANCH  13   8
ATOM      4  O   UNL     1     -11.612 -10.697  15.960  0.00  0.00    -0.270 OA
ATOM      8  N   UNL     1     -12.097 -10.019  18.126  0.00  0.00    -0.308 N 
ATOM     16  C   UNL     1     -11.778  -9.805  16.788  0.00  0.00    +0.251 C 
ATOM     29  H   UNL     1     -12.205  -9.232  18.757  0.00  0.00    +0.149 HD
BRANCH  16  19
ATOM      1  S   UNL     1     -10.030  -7.766  16.152  0.00  0.00    -0.092 S 
ATOM     19  C   UNL     1     -11.609  -8.389  16.372  0.00  0.00    +0.074 A 
ATOM     23  C   UNL     1     -12.578  -7.442  16.120  0.00  0.00    +0.021 A 
ATOM     25  C   UNL     1     -12.016  -6.189  15.741  0.00  0.00    +0.008 A 
ATOM     26  C   UNL     1     -10.639  -6.226  15.719  0.00  0.00    +0.046 A 
ENDBRANCH  16  19
ENDBRANCH  13   8
ENDBRANCH  11  13
TORSDOF 9
ENDMDL
MODEL 7
REMARK VINA RESULT:      -6.0     15.012     16.923
REMARK  Name = 75536603
REMARK  9 active torsions:
REMARK  status: ('A' for Active; 'I' for Inactive)
REMARK    1  A    between atoms: O_3  and  C_10
REMARK    2  A    between atoms: O_5  and  C_24
REMARK    3  A    between atoms: N_7  and  C_9
REMARK    4  A    between atoms: N_7  and  C_14
REMARK    5  A    between atoms: N_8  and  C_13
REMARK    6  A    between atoms: C_11  and  C_13
REMARK    7  A    between atoms: C_14  and  C_15
REMARK    8  A    between atoms: C_16  and  C_19
REMARK    9  A    between atoms: C_22  and  C_24
REMARK                            x       y       z     vdW  Elec       q    Type
REMARK                         _______ _______ _______ _____ _____    ______ ____
ROOT
ATOM      2  O   UNL     1       8.732   7.393   6.660  0.00  0.00    -0.371 OA
ATOM      9  C   UNL     1       9.699   5.265   6.239  0.00  0.00    +0.111 C 
ATOM     10  C   UNL     1      10.765   6.191   6.793  0.00  0.00    +0.164 C 
ATOM     11  C   UNL     1       9.909   7.250   7.474  0.00  0.00    +0.165 C 
ATOM     12  C   UNL     1       8.644   6.259   5.779  0.00  0.00    +0.181 C 
ENDROOT
BRANCH  10   3
ATOM      3  O   UNL     1      11.630   5.545   7.706  0.00  0.00    -0.388 OA
ATOM     28  H   UNL     1      12.542   5.643   7.383  0.00  0.00    +0.210 HD
ENDBRANCH  10   3
BRANCH   9   7
ATOM      7  N   UNL     1      10.172   4.406   5.165  0.00  0.00    -0.305 NA
ATOM     27  H   UNL     1       9.561   3.593   5.096  0.00  0.00    +0.123 HD
BRANCH   7  14
ATOM     14  C   UNL     1      10.166   5.111   3.889  0.00  0.00    +0.116 C 
BRANCH  14  15
ATOM     15  C   UNL     1      11.372   4.771   3.055  0.00  0.00    -0.034 A 
ATOM     17  C   UNL     1      12.340   5.743   2.800  0.00  0.00    +0.006 A 
ATOM     18  C   UNL     1      11.523   3.485   2.536  0.00  0.00    +0.006 A 
ATOM     20  C   UNL     1      13.458   5.429   2.028  0.00  0.00    +0.015 A 
ATOM     21  C   UNL     1      12.641   3.171   1.763  0.00  0.00    +0.015 A 
ATOM     22  C   UNL     1      13.609   4.142   1.510  0.00  0.00    +0.059 A 
BRANCH  22  24
ATOM      6  O   UNL     1      14.893   4.027  -0.507  0.00  0.00    -0.245 OA
ATOM     24  C   UNL     1      14.775   3.814   0.704  0.00  0.00    +0.337 C 
BRANCH  24   5
ATOM      5  O   UNL     1      15.764   3.229   1.435  0.00  0.00    -0.477 OA
ATOM     30  H   UNL     1      15.504   2.337   1.752  0.00  0.00    +0.295 HD
ENDBRANCH  24   5
ENDBRANCH  22  24
ENDBRANCH  14  15
ENDBRANCH   7  14
ENDBRANCH   9   7
BRANCH  11  13
ATOM     13  C   UNL     1      10.606   8.592   7.608  0.00  0.00    +0.138 C 
BRANCH  13   8
ATOM      4  O   UNL     1      12.404  10.792   7.199  0.00  0.00    -0.270 OA
ATOM      8  N   UNL     1      11.979   8.511   7.203  0.00  0.00    -0.308 N 
ATOM     16  C   UNL     1      12.780   9.636   7.028  0.00  0.00    +0.251 C 
ATOM     29  H   UNL     1      12.355   7.585   7.029  0.00  0.00    +0.149 HD
BRANCH  16  19
ATOM      1  S   UNL     1      15.270  10.697   6.489  0.00  0.00    -0.092 S 
ATOM     19  C   UNL     1      14.174   9.385   6.579  0.00  0.00    +0.074 A 
ATOM     23  C   UNL     1      14.759   8.196   6.202  0.00  0.00    +0.021 A 
ATOM     25  C   UNL     1      16.125   8.365   5.835  0.00  0.00    +0.008 A 
ATOM     26  C   UNL     1      16.532   9.677   5.944  0.00  0.00    +0.046 A 
ENDBRANCH  16  19
ENDBRANCH  13   8
ENDBRANCH  11  13
TORSDOF 9
ENDMDL
MODEL 8
REMARK VINA RESULT:      -5.9     27.183     30.570
REMARK  Name = 75536603
REMARK  9 active torsions:
REMARK  status: ('A' for Active; 'I' for Inactive)
REMARK    1  A    between atoms: O_3  and  C_10
REMARK    2  A    between atoms: O_5  and  C_24
REMARK    3  A    between atoms: N_7  and  C_9
REMARK    4  A    between atoms: N_7  and  C_14
REMARK    5  A    between atoms: N_8  and  C_13
REMARK    6  A    between atoms: C_11  and  C_13
REMARK    7  A    between atoms: C_14  and  C_15
REMARK    8  A    between atoms: C_16  and  C_19
REMARK    9  A    between atoms: C_22  and  C_24
REMARK                            x       y       z     vdW  Elec       q    Type
REMARK                         _______ _______ _______ _____ _____    ______ ____
ROOT
ATOM      2  O   UNL     1     -17.858   4.706  24.520  0.00  0.00    -0.371 OA
ATOM      9  C   UNL     1     -16.307   4.199  22.795  0.00  0.00    +0.111 C 
ATOM     10  C   UNL     1     -16.771   2.906  23.438  0.00  0.00    +0.164 C 
ATOM     11  C   UNL     1     -18.074   3.352  24.087  0.00  0.00    +0.165 C 
ATOM     12  C   UNL     1     -16.689   5.218  23.856  0.00  0.00    +0.181 C 
ENDROOT
BRANCH  10   3
ATOM      3  O   UNL     1     -16.978   1.870  22.496  0.00  0.00    -0.388 OA
ATOM     28  H   UNL     1     -16.677   2.184  21.627  0.00  0.00    +0.210 HD
ENDBRANCH  10   3
BRANCH   9   7
ATOM      7  N   UNL     1     -14.887   4.216  22.479  0.00  0.00    -0.305 NA
ATOM     27  H   UNL     1     -14.767   4.076  21.476  0.00  0.00    +0.123 HD
BRANCH   7  14
ATOM     14  C   UNL     1     -14.283   5.490  22.853  0.00  0.00    +0.116 C 
BRANCH  14  15
ATOM     15  C   UNL     1     -13.708   6.208  21.661  0.00  0.00    -0.034 A 
ATOM     17  C   UNL     1     -14.553   6.890  20.785  0.00  0.00    +0.006 A 
ATOM     18  C   UNL     1     -12.333   6.192  21.431  0.00  0.00    +0.006 A 
ATOM     20  C   UNL     1     -14.022   7.557  19.681  0.00  0.00    +0.015 A 
ATOM     21  C   UNL     1     -11.802   6.859  20.327  0.00  0.00    +0.015 A 
ATOM     22  C   UNL     1     -12.646   7.541  19.452  0.00  0.00    +0.059 A 
BRANCH  22  24
ATOM      6  O   UNL     1     -12.364   9.393  17.963  0.00  0.00    -0.245 OA
ATOM     24  C   UNL     1     -12.092   8.236  18.301  0.00  0.00    +0.337 C 
BRANCH  24   5
ATOM      5  O   UNL     1     -11.212   7.467  17.603  0.00  0.00    -0.477 OA
ATOM     30  H   UNL     1     -10.774   7.973  16.885  0.00  0.00    +0.295 HD
ENDBRANCH  24   5
ENDBRANCH  22  24
ENDBRANCH  14  15
ENDBRANCH   7  14
ENDBRANCH   9   7
BRANCH  11  13
ATOM     13  C   UNL     1     -18.481   2.494  25.271  0.00  0.00    +0.138 C 
BRANCH  13   8
ATOM      4  O   UNL     1     -17.159   0.494  26.851  0.00  0.00    -0.270 OA
ATOM      8  N   UNL     1     -17.627   2.722  26.401  0.00  0.00    -0.308 N 
ATOM     16  C   UNL     1     -17.026   1.687  27.111  0.00  0.00    +0.251 C 
ATOM     29  H   UNL     1     -17.483   3.686  26.682  0.00  0.00    +0.149 HD
BRANCH  16  19
ATOM      1  S   UNL     1     -15.927   0.963  29.537  0.00  0.00    -0.092 S 
ATOM     19  C   UNL     1     -16.191   2.087  28.273  0.00  0.00    +0.074 A 
ATOM     23  C   UNL     1     -15.558   3.288  28.509  0.00  0.00    +0.021 A 
ATOM     25  C   UNL     1     -14.847   3.285  29.743  0.00  0.00    +0.008 A 
ATOM     26  C   UNL     1     -14.964   2.082  30.404  0.00  0.00    +0.046 A 
ENDBRANCH  16  19
ENDBRANCH  13   8
ENDBRANCH  11  13
TORSDOF 9
ENDMDL
MODEL 9
REMARK VINA RESULT:      -5.9     16.570     19.448
REMARK  Name = 75536603
REMARK  9 active torsions:
REMARK  status: ('A' for Active; 'I' for Inactive)
REMARK    1  A    between atoms: O_3  and  C_10
REMARK    2  A    between atoms: O_5  and  C_24
REMARK    3  A    between atoms: N_7  and  C_9
REMARK    4  A    between atoms: N_7  and  C_14
REMARK    5  A    between atoms: N_8  and  C_13
REMARK    6  A    between atoms: C_11  and  C_13
REMARK    7  A    between atoms: C_14  and  C_15
REMARK    8  A    between atoms: C_16  and  C_19
REMARK    9  A    between atoms: C_22  and  C_24
REMARK                            x       y       z     vdW  Elec       q    Type
REMARK                         _______ _______ _______ _____ _____    ______ ____
ROOT
ATOM      2  O   UNL     1       7.986   9.199   0.422  0.00  0.00    -0.371 OA
ATOM      9  C   UNL     1       8.364   8.955   2.754  0.00  0.00    +0.111 C 
ATOM     10  C   UNL     1       9.249   7.977   2.004  0.00  0.00    +0.164 C 
ATOM     11  C   UNL     1       9.283   8.613   0.621  0.00  0.00    +0.165 C 
ATOM     12  C   UNL     1       7.326   9.293   1.696  0.00  0.00    +0.181 C 
ENDROOT
BRANCH  10   3
ATOM      3  O   UNL     1      10.543   7.868   2.566  0.00  0.00    -0.388 OA
ATOM     28  H   UNL     1      10.608   7.010   3.018  0.00  0.00    +0.210 HD
ENDBRANCH  10   3
BRANCH   9   7
ATOM      7  N   UNL     1       7.779   8.402   3.964  0.00  0.00    -0.305 NA
ATOM     27  H   UNL     1       7.848   7.385   3.933  0.00  0.00    +0.123 HD
BRANCH   7  14
ATOM     14  C   UNL     1       8.475   8.885   5.151  0.00  0.00    +0.116 C 
BRANCH  14  15
ATOM     15  C   UNL     1       8.771   7.770   6.119  0.00  0.00    -0.034 A 
ATOM     17  C   UNL     1       9.134   6.510   5.641  0.00  0.00    +0.006 A 
ATOM     18  C   UNL     1       8.683   7.995   7.493  0.00  0.00    +0.006 A 
ATOM     20  C   UNL     1       9.409   5.477   6.537  0.00  0.00    +0.015 A 
ATOM     21  C   UNL     1       8.957   6.962   8.389  0.00  0.00    +0.015 A 
ATOM     22  C   UNL     1       9.321   5.704   7.911  0.00  0.00    +0.059 A 
BRANCH  22  24
ATOM      6  O   UNL     1       9.109   4.500   9.969  0.00  0.00    -0.245 OA
ATOM     24  C   UNL     1       9.608   4.626   8.845  0.00  0.00    +0.337 C 
BRANCH  24   5
ATOM      5  O   UNL     1      10.510   3.735   8.350  0.00  0.00    -0.477 OA
ATOM     30  H   UNL     1      10.279   2.811   8.588  0.00  0.00    +0.295 HD
ENDBRANCH  24   5
ENDBRANCH  22  24
ENDBRANCH  14  15
ENDBRANCH   7  14
ENDBRANCH   9   7
BRANCH  11  13
ATOM     13  C   UNL     1       9.573   7.620  -0.490  0.00  0.00    +0.138 C 
BRANCH  13   8
ATOM      4  O   UNL     1       9.509   4.750  -0.471  0.00  0.00    -0.270 OA
ATOM      8  N   UNL     1      10.652   6.742  -0.138  0.00  0.00    -0.308 N 
ATOM     16  C   UNL     1      10.530   5.356  -0.157  0.00  0.00    +0.251 C 
ATOM     29  H   UNL     1      11.524   7.174   0.146  0.00  0.00    +0.149 HD
BRANCH  16  19
ATOM      1  S   UNL     1      11.867   4.072   1.888  0.00  0.00    -0.092 S 
ATOM     19  C   UNL     1      11.731   4.586   0.260  0.00  0.00    +0.074 A 
ATOM     23  C   UNL     1      12.814   4.197  -0.497  0.00  0.00    +0.021 A 
ATOM     25  C   UNL     1      13.768   3.467   0.268  0.00  0.00    +0.008 A 
ATOM     26  C   UNL     1      13.378   3.327   1.583  0.00  0.00    +0.046 A 
ENDBRANCH  16  19
ENDBRANCH  13   8
ENDBRANCH  11  13
TORSDOF 9
ENDMDL
MODEL 10
REMARK VINA RESULT:      -5.8     26.634     28.982
REMARK  Name = 75536603
REMARK  9 active torsions:
REMARK  status: ('A' for Active; 'I' for Inactive)
REMARK    1  A    between atoms: O_3  and  C_10
REMARK    2  A    between atoms: O_5  and  C_24
REMARK    3  A    between atoms: N_7  and  C_9
REMARK    4  A    between atoms: N_7  and  C_14
REMARK    5  A    between atoms: N_8  and  C_13
REMARK    6  A    between atoms: C_11  and  C_13
REMARK    7  A    between atoms: C_14  and  C_15
REMARK    8  A    between atoms: C_16  and  C_19
REMARK    9  A    between atoms: C_22  and  C_24
REMARK                            x       y       z     vdW  Elec       q    Type
REMARK                         _______ _______ _______ _____ _____    ______ ____
ROOT
ATOM      2  O   UNL     1      -1.928 -11.012  12.621  0.00  0.00    -0.371 OA
ATOM      9  C   UNL     1      -1.654 -11.685  14.883  0.00  0.00    +0.111 C 
ATOM     10  C   UNL     1      -2.470 -12.733  14.151  0.00  0.00    +0.164 C 
ATOM     11  C   UNL     1      -2.098 -12.438  12.705  0.00  0.00    +0.165 C 
ATOM     12  C   UNL     1      -1.798 -10.489  13.955  0.00  0.00    +0.181 C 
ENDROOT
BRANCH  10   3
ATOM      3  O   UNL     1      -2.125 -14.053  14.525  0.00  0.00    -0.388 OA
ATOM     28  H   UNL     1      -1.785 -14.033  15.436  0.00  0.00    +0.210 HD
ENDBRANCH  10   3
BRANCH   9   7
ATOM      7  N   UNL     1      -2.127 -11.414  16.231  0.00  0.00    -0.305 NA
ATOM     27  H   UNL     1      -1.340 -11.115  16.806  0.00  0.00    +0.123 HD
BRANCH   7  14
ATOM     14  C   UNL     1      -3.137 -10.362  16.232  0.00  0.00    +0.116 C 
BRANCH  14  15
ATOM     15  C   UNL     1      -4.304 -10.706  17.118  0.00  0.00    -0.034 A 
ATOM     17  C   UNL     1      -5.573 -10.203  16.826  0.00  0.00    +0.006 A 
ATOM     18  C   UNL     1      -4.119 -11.527  18.231  0.00  0.00    +0.006 A 
ATOM     20  C   UNL     1      -6.655 -10.521  17.647  0.00  0.00    +0.015 A 
ATOM     21  C   UNL     1      -5.201 -11.845  19.051  0.00  0.00    +0.015 A 
ATOM     22  C   UNL     1      -6.469 -11.342  18.759  0.00  0.00    +0.059 A 
BRANCH  22  24
ATOM      6  O   UNL     1      -7.934 -12.817  19.945  0.00  0.00    -0.245 OA
ATOM     24  C   UNL     1      -7.598 -11.675  19.615  0.00  0.00    +0.337 C 
BRANCH  24   5
ATOM      5  O   UNL     1      -8.274 -10.571  20.035  0.00  0.00    -0.477 OA
ATOM     30  H   UNL     1      -8.801 -10.168  19.312  0.00  0.00    +0.295 HD
ENDBRANCH  24   5
ENDBRANCH  22  24
ENDBRANCH  14  15
ENDBRANCH   7  14
ENDBRANCH   9   7
BRANCH  11  13
ATOM     13  C   UNL     1      -3.152 -12.888  11.709  0.00  0.00    +0.138 C 
BRANCH  13   8
ATOM      4  O   UNL     1      -5.762 -11.855  12.306  0.00  0.00    -0.270 OA
ATOM      8  N   UNL     1      -3.792 -11.767  11.083  0.00  0.00    -0.308 N 
ATOM     16  C   UNL     1      -5.067 -11.335  11.438  0.00  0.00    +0.251 C 
ATOM     29  H   UNL     1      -3.281 -11.297  10.344  0.00  0.00    +0.149 HD
BRANCH  16  19
ATOM      1  S   UNL     1      -7.280 -10.100  10.344  0.00  0.00    -0.092 S 
ATOM     19  C   UNL     1      -5.602 -10.176  10.677  0.00  0.00    +0.074 A 
ATOM     23  C   UNL     1      -4.924  -9.090  10.167  0.00  0.00    +0.021 A 
ATOM     25  C   UNL     1      -5.793  -8.184   9.495  0.00  0.00    +0.008 A 
ATOM     26  C   UNL     1      -7.103  -8.612   9.515  0.00  0.00    +0.046 A 
ENDBRANCH  16  19
ENDBRANCH  13   8
ENDBRANCH  11  13
TORSDOF 9
ENDMDL
