MODEL 1
REMARK VINA RESULT:      -5.7      0.000      0.000
REMARK  Name = 71693817
REMARK  10 active torsions:
REMARK  status: ('A' for Active; 'I' for Inactive)
REMARK    1  A    between atoms: O_1  and  C_7
REMARK    2  A    between atoms: O_2  and  C_9
REMARK    3  A    between atoms: O_3  and  C_12
REMARK    4  A    between atoms: N_4  and  C_5
REMARK    5  A    between atoms: N_4  and  C_11
REMARK    6  A    between atoms: C_6  and  C_10
REMARK    7  A    between atoms: C_11  and  C_12
REMARK    8  A    between atoms: C_12  and  C_16
REMARK    9  A    between atoms: C_12  and  C_17
REMARK   10  A    between atoms: C_13  and  C_18
REMARK                            x       y       z     vdW  Elec       q    Type
REMARK                         _______ _______ _______ _____ _____    ______ ____
ROOT
ATOM      5  C   UNL     1     -15.191   3.600  29.489  0.00  0.00    +0.092 C 
ATOM      6  C   UNL     1     -15.981   3.614  30.817  0.00  0.00    +0.041 C 
ATOM      7  C   UNL     1     -16.285   3.412  28.437  0.00  0.00    +0.160 C 
ATOM      8  C   UNL     1     -17.409   4.097  30.446  0.00  0.00    +0.043 C 
ATOM      9  C   UNL     1     -17.392   4.337  28.934  0.00  0.00    +0.145 C 
ENDROOT
BRANCH   6  10
ATOM     10  C   UNL     1     -15.313   4.436  31.899  0.00  0.00    -0.040 A 
ATOM     13  C   UNL     1     -14.892   3.846  33.091  0.00  0.00    -0.047 A 
ATOM     14  C   UNL     1     -15.119   5.802  31.690  0.00  0.00    +0.004 A 
ATOM     15  C   UNL     1     -14.278   4.622  34.074  0.00  0.00    +0.003 A 
ATOM     18  C   UNL     1     -15.088   2.386  33.337  0.00  0.00    +0.044 C 
ATOM     19  C   UNL     1     -14.505   6.578  32.674  0.00  0.00    +0.000 A 
ATOM     20  C   UNL     1     -14.084   5.988  33.865  0.00  0.00    +0.000 A 
ENDBRANCH   6  10
BRANCH   7   1
ATOM      1  O   UNL     1     -15.834   3.769  27.144  0.00  0.00    -0.388 OA
ATOM     22  H   UNL     1     -15.584   2.948  26.686  0.00  0.00    +0.210 HD
ENDBRANCH   7   1
BRANCH   9   2
ATOM      2  O   UNL     1     -17.051   5.695  28.672  0.00  0.00    -0.389 OA
ATOM     23  H   UNL     1     -16.722   6.078  29.504  0.00  0.00    +0.210 HD
ENDBRANCH   9   2
BRANCH   5   4
ATOM      4  N   UNL     1     -14.209   2.523  29.446  0.00  0.00    -0.308 NA
ATOM     21  H   UNL     1     -13.643   2.617  28.603  0.00  0.00    +0.122 HD
BRANCH   4  11
ATOM     11  C   UNL     1     -14.864   1.223  29.431  0.00  0.00    +0.115 C 
BRANCH  11  12
ATOM     12  C   UNL     1     -14.111   0.131  30.213  0.00  0.00    +0.073 C 
ATOM     16  C   UNL     1     -13.484  -0.917  29.288  0.00  0.00    +0.042 C 
ATOM     17  C   UNL     1     -15.005  -0.540  31.258  0.00  0.00    +0.042 C 
BRANCH  12   3
ATOM      3  O   UNL     1     -13.046   0.792  30.908  0.00  0.00    -0.388 OA
ATOM     24  H   UNL     1     -13.370   1.663  31.197  0.00  0.00    +0.210 HD
ENDBRANCH  12   3
ENDBRANCH  11  12
ENDBRANCH   4  11
ENDBRANCH   5   4
TORSDOF 7
ENDMDL
MODEL 2
REMARK VINA RESULT:      -5.6     35.973     37.862
REMARK  Name = 71693817
REMARK  10 active torsions:
REMARK  status: ('A' for Active; 'I' for Inactive)
REMARK    1  A    between atoms: O_1  and  C_7
REMARK    2  A    between atoms: O_2  and  C_9
REMARK    3  A    between atoms: O_3  and  C_12
REMARK    4  A    between atoms: N_4  and  C_5
REMARK    5  A    between atoms: N_4  and  C_11
REMARK    6  A    between atoms: C_6  and  C_10
REMARK    7  A    between atoms: C_11  and  C_12
REMARK    8  A    between atoms: C_12  and  C_16
REMARK    9  A    between atoms: C_12  and  C_17
REMARK   10  A    between atoms: C_13  and  C_18
REMARK                            x       y       z     vdW  Elec       q    Type
REMARK                         _______ _______ _______ _____ _____    ______ ____
ROOT
ATOM      5  C   UNL     1      11.298   6.271   5.782  0.00  0.00    +0.092 C 
ATOM      6  C   UNL     1      10.013   6.294   4.923  0.00  0.00    +0.041 C 
ATOM      7  C   UNL     1      10.760   6.136   7.207  0.00  0.00    +0.160 C 
ATOM      8  C   UNL     1       8.945   5.534   5.754  0.00  0.00    +0.043 C 
ATOM      9  C   UNL     1       9.643   5.108   7.048  0.00  0.00    +0.145 C 
ENDROOT
BRANCH   6  10
ATOM     10  C   UNL     1      10.220   5.743   3.529  0.00  0.00    -0.040 A 
ATOM     13  C   UNL     1       9.825   6.468   2.405  0.00  0.00    -0.047 A 
ATOM     14  C   UNL     1      10.814   4.489   3.377  0.00  0.00    +0.004 A 
ATOM     15  C   UNL     1      10.025   5.942   1.129  0.00  0.00    +0.003 A 
ATOM     18  C   UNL     1       9.187   7.812   2.542  0.00  0.00    +0.044 C 
ATOM     19  C   UNL     1      11.013   3.962   2.100  0.00  0.00    +0.000 A 
ATOM     20  C   UNL     1      10.619   4.688   0.977  0.00  0.00    +0.000 A 
ENDBRANCH   6  10
BRANCH   7   1
ATOM      1  O   UNL     1      11.763   5.697   8.105  0.00  0.00    -0.388 OA
ATOM     22  H   UNL     1      12.445   6.389   8.139  0.00  0.00    +0.210 HD
ENDBRANCH   7   1
BRANCH   9   2
ATOM      2  O   UNL     1      10.195   3.805   6.884  0.00  0.00    -0.389 OA
ATOM     23  H   UNL     1      11.150   3.911   6.731  0.00  0.00    +0.210 HD
ENDBRANCH   9   2
BRANCH   5   4
ATOM      4  N   UNL     1      12.090   7.484   5.616  0.00  0.00    -0.308 NA
ATOM     21  H   UNL     1      11.703   8.037   4.852  0.00  0.00    +0.122 HD
BRANCH   4  11
ATOM     11  C   UNL     1      13.476   7.161   5.306  0.00  0.00    +0.115 C 
BRANCH  11  12
ATOM     12  C   UNL     1      13.876   7.448   3.847  0.00  0.00    +0.073 C 
ATOM     16  C   UNL     1      15.309   7.978   3.733  0.00  0.00    +0.042 C 
ATOM     17  C   UNL     1      12.893   8.403   3.165  0.00  0.00    +0.042 C 
BRANCH  12   3
ATOM      3  O   UNL     1      13.819   6.193   3.158  0.00  0.00    -0.388 OA
ATOM     24  H   UNL     1      14.727   5.941   2.916  0.00  0.00    +0.210 HD
ENDBRANCH  12   3
ENDBRANCH  11  12
ENDBRANCH   4  11
ENDBRANCH   5   4
TORSDOF 7
ENDMDL
MODEL 3
REMARK VINA RESULT:      -5.5     19.598     22.339
REMARK  Name = 71693817
REMARK  10 active torsions:
REMARK  status: ('A' for Active; 'I' for Inactive)
REMARK    1  A    between atoms: O_1  and  C_7
REMARK    2  A    between atoms: O_2  and  C_9
REMARK    3  A    between atoms: O_3  and  C_12
REMARK    4  A    between atoms: N_4  and  C_5
REMARK    5  A    between atoms: N_4  and  C_11
REMARK    6  A    between atoms: C_6  and  C_10
REMARK    7  A    between atoms: C_11  and  C_12
REMARK    8  A    between atoms: C_12  and  C_16
REMARK    9  A    between atoms: C_12  and  C_17
REMARK   10  A    between atoms: C_13  and  C_18
REMARK                            x       y       z     vdW  Elec       q    Type
REMARK                         _______ _______ _______ _____ _____    ______ ____
ROOT
ATOM      5  C   UNL     1      -6.078 -10.158  17.463  0.00  0.00    +0.092 C 
ATOM      6  C   UNL     1      -5.582 -11.313  16.563  0.00  0.00    +0.041 C 
ATOM      7  C   UNL     1      -6.891 -10.879  18.538  0.00  0.00    +0.160 C 
ATOM      8  C   UNL     1      -5.548 -12.566  17.480  0.00  0.00    +0.043 C 
ATOM      9  C   UNL     1      -6.024 -12.094  18.855  0.00  0.00    +0.145 C 
ENDROOT
BRANCH   6  10
ATOM     10  C   UNL     1      -4.266 -11.012  15.879  0.00  0.00    -0.040 A 
ATOM     13  C   UNL     1      -4.202 -10.822  14.499  0.00  0.00    -0.047 A 
ATOM     14  C   UNL     1      -3.106 -10.926  16.649  0.00  0.00    +0.004 A 
ATOM     15  C   UNL     1      -2.979 -10.545  13.888  0.00  0.00    +0.003 A 
ATOM     18  C   UNL     1      -5.431 -10.909  13.654  0.00  0.00    +0.044 C 
ATOM     19  C   UNL     1      -1.882 -10.649  16.038  0.00  0.00    +0.000 A 
ATOM     20  C   UNL     1      -1.819 -10.459  14.659  0.00  0.00    +0.000 A 
ENDBRANCH   6  10
BRANCH   7   1
ATOM      1  O   UNL     1      -7.097 -10.061  19.674  0.00  0.00    -0.388 OA
ATOM     22  H   UNL     1      -6.851  -9.153  19.427  0.00  0.00    +0.210 HD
ENDBRANCH   7   1
BRANCH   9   2
ATOM      2  O   UNL     1      -4.900 -11.703  19.639  0.00  0.00    -0.389 OA
ATOM     23  H   UNL     1      -4.938 -10.737  19.740  0.00  0.00    +0.210 HD
ENDBRANCH   9   2
BRANCH   5   4
ATOM      4  N   UNL     1      -6.890  -9.197  16.724  0.00  0.00    -0.308 NA
ATOM     21  H   UNL     1      -7.095  -8.399  17.323  0.00  0.00    +0.122 HD
BRANCH   4  11
ATOM     11  C   UNL     1      -8.145  -9.799  16.297  0.00  0.00    +0.115 C 
BRANCH  11  12
ATOM     12  C   UNL     1      -9.398  -9.031  16.757  0.00  0.00    +0.073 C 
ATOM     16  C   UNL     1     -10.526  -9.971  17.195  0.00  0.00    +0.042 C 
ATOM     17  C   UNL     1      -9.895  -8.058  15.685  0.00  0.00    +0.042 C 
BRANCH  12   3
ATOM      3  O   UNL     1      -9.004  -8.260  17.899  0.00  0.00    -0.388 OA
ATOM     24  H   UNL     1      -9.763  -8.210  18.505  0.00  0.00    +0.210 HD
ENDBRANCH  12   3
ENDBRANCH  11  12
ENDBRANCH   4  11
ENDBRANCH   5   4
TORSDOF 7
ENDMDL
MODEL 4
REMARK VINA RESULT:      -5.4     35.289     37.181
REMARK  Name = 71693817
REMARK  10 active torsions:
REMARK  status: ('A' for Active; 'I' for Inactive)
REMARK    1  A    between atoms: O_1  and  C_7
REMARK    2  A    between atoms: O_2  and  C_9
REMARK    3  A    between atoms: O_3  and  C_12
REMARK    4  A    between atoms: N_4  and  C_5
REMARK    5  A    between atoms: N_4  and  C_11
REMARK    6  A    between atoms: C_6  and  C_10
REMARK    7  A    between atoms: C_11  and  C_12
REMARK    8  A    between atoms: C_12  and  C_16
REMARK    9  A    between atoms: C_12  and  C_17
REMARK   10  A    between atoms: C_13  and  C_18
REMARK                            x       y       z     vdW  Elec       q    Type
REMARK                         _______ _______ _______ _____ _____    ______ ____
ROOT
ATOM      5  C   UNL     1      11.419   6.212   5.789  0.00  0.00    +0.092 C 
ATOM      6  C   UNL     1      10.125   6.300   4.948  0.00  0.00    +0.041 C 
ATOM      7  C   UNL     1      10.895   6.117   7.223  0.00  0.00    +0.160 C 
ATOM      8  C   UNL     1       9.029   5.605   5.800  0.00  0.00    +0.043 C 
ATOM      9  C   UNL     1       9.721   5.151   7.087  0.00  0.00    +0.145 C 
ENDROOT
BRANCH   6  10
ATOM     10  C   UNL     1      10.281   5.728   3.555  0.00  0.00    -0.040 A 
ATOM     13  C   UNL     1       9.865   6.446   2.434  0.00  0.00    -0.047 A 
ATOM     14  C   UNL     1      10.851   4.464   3.402  0.00  0.00    +0.004 A 
ATOM     15  C   UNL     1      10.018   5.901   1.160  0.00  0.00    +0.003 A 
ATOM     18  C   UNL     1       9.252   7.801   2.574  0.00  0.00    +0.044 C 
ATOM     19  C   UNL     1      11.004   3.918   2.127  0.00  0.00    +0.000 A 
ATOM     20  C   UNL     1      10.588   4.636   1.006  0.00  0.00    +0.000 A 
ENDBRANCH   6  10
BRANCH   7   1
ATOM      1  O   UNL     1      11.884   5.630   8.109  0.00  0.00    -0.388 OA
ATOM     22  H   UNL     1      12.617   6.269   8.107  0.00  0.00    +0.210 HD
ENDBRANCH   7   1
BRANCH   9   2
ATOM      2  O   UNL     1      10.198   3.818   6.926  0.00  0.00    -0.389 OA
ATOM     23  H   UNL     1       9.956   3.324   7.728  0.00  0.00    +0.210 HD
ENDBRANCH   9   2
BRANCH   5   4
ATOM      4  N   UNL     1      12.274   7.379   5.603  0.00  0.00    -0.308 NA
ATOM     21  H   UNL     1      12.981   7.399   6.338  0.00  0.00    +0.122 HD
BRANCH   4  11
ATOM     11  C   UNL     1      11.497   8.608   5.665  0.00  0.00    +0.115 C 
BRANCH  11  12
ATOM     12  C   UNL     1      11.977   9.600   6.741  0.00  0.00    +0.073 C 
ATOM     16  C   UNL     1      10.937   9.802   7.848  0.00  0.00    +0.042 C 
ATOM     17  C   UNL     1      12.384  10.945   6.134  0.00  0.00    +0.042 C 
BRANCH  12   3
ATOM      3  O   UNL     1      13.142   9.018   7.338  0.00  0.00    -0.388 OA
ATOM     24  H   UNL     1      12.857   8.495   8.107  0.00  0.00    +0.210 HD
ENDBRANCH  12   3
ENDBRANCH  11  12
ENDBRANCH   4  11
ENDBRANCH   5   4
TORSDOF 7
ENDMDL
MODEL 5
REMARK VINA RESULT:      -5.3     12.858     15.003
REMARK  Name = 71693817
REMARK  10 active torsions:
REMARK  status: ('A' for Active; 'I' for Inactive)
REMARK    1  A    between atoms: O_1  and  C_7
REMARK    2  A    between atoms: O_2  and  C_9
REMARK    3  A    between atoms: O_3  and  C_12
REMARK    4  A    between atoms: N_4  and  C_5
REMARK    5  A    between atoms: N_4  and  C_11
REMARK    6  A    between atoms: C_6  and  C_10
REMARK    7  A    between atoms: C_11  and  C_12
REMARK    8  A    between atoms: C_12  and  C_16
REMARK    9  A    between atoms: C_12  and  C_17
REMARK   10  A    between atoms: C_13  and  C_18
REMARK                            x       y       z     vdW  Elec       q    Type
REMARK                         _______ _______ _______ _____ _____    ______ ____
ROOT
ATOM      5  C   UNL     1     -12.079   9.465  17.185  0.00  0.00    +0.092 C 
ATOM      6  C   UNL     1     -12.186   9.885  18.669  0.00  0.00    +0.041 C 
ATOM      7  C   UNL     1     -11.096  10.482  16.605  0.00  0.00    +0.160 C 
ATOM      8  C   UNL     1     -10.850  10.608  18.991  0.00  0.00    +0.043 C 
ATOM      9  C   UNL     1     -10.034  10.582  17.697  0.00  0.00    +0.145 C 
ENDROOT
BRANCH   6  10
ATOM     10  C   UNL     1     -12.503   8.730  19.594  0.00  0.00    -0.040 A 
ATOM     13  C   UNL     1     -13.790   8.549  20.100  0.00  0.00    -0.047 A 
ATOM     14  C   UNL     1     -11.486   7.839  19.939  0.00  0.00    +0.004 A 
ATOM     15  C   UNL     1     -14.061   7.477  20.951  0.00  0.00    +0.003 A 
ATOM     18  C   UNL     1     -14.895   9.489  19.745  0.00  0.00    +0.044 C 
ATOM     19  C   UNL     1     -11.756   6.768  20.790  0.00  0.00    +0.000 A 
ATOM     20  C   UNL     1     -13.043   6.586  21.296  0.00  0.00    +0.000 A 
ENDBRANCH   6  10
BRANCH   7   1
ATOM      1  O   UNL     1     -10.554  10.042  15.374  0.00  0.00    -0.388 OA
ATOM     22  H   UNL     1     -11.283  10.004  14.733  0.00  0.00    +0.210 HD
ENDBRANCH   7   1
BRANCH   9   2
ATOM      2  O   UNL     1      -9.204   9.423  17.682  0.00  0.00    -0.389 OA
ATOM     23  H   UNL     1      -9.577   8.807  17.028  0.00  0.00    +0.210 HD
ENDBRANCH   9   2
BRANCH   5   4
ATOM      4  N   UNL     1     -13.370   9.513  16.507  0.00  0.00    -0.308 NA
ATOM     21  H   UNL     1     -14.091   9.784  17.176  0.00  0.00    +0.122 HD
BRANCH   4  11
ATOM     11  C   UNL     1     -13.712   8.213  15.948  0.00  0.00    +0.115 C 
BRANCH  11  12
ATOM     12  C   UNL     1     -13.487   8.106  14.428  0.00  0.00    +0.073 C 
ATOM     16  C   UNL     1     -13.579   9.468  13.732  0.00  0.00    +0.042 C 
ATOM     17  C   UNL     1     -14.447   7.105  13.780  0.00  0.00    +0.042 C 
BRANCH  12   3
ATOM      3  O   UNL     1     -12.154   7.614  14.249  0.00  0.00    -0.388 OA
ATOM     24  H   UNL     1     -12.152   6.664  14.460  0.00  0.00    +0.210 HD
ENDBRANCH  12   3
ENDBRANCH  11  12
ENDBRANCH   4  11
ENDBRANCH   5   4
TORSDOF 7
ENDMDL
MODEL 6
REMARK VINA RESULT:      -5.1     14.061     15.867
REMARK  Name = 71693817
REMARK  10 active torsions:
REMARK  status: ('A' for Active; 'I' for Inactive)
REMARK    1  A    between atoms: O_1  and  C_7
REMARK    2  A    between atoms: O_2  and  C_9
REMARK    3  A    between atoms: O_3  and  C_12
REMARK    4  A    between atoms: N_4  and  C_5
REMARK    5  A    between atoms: N_4  and  C_11
REMARK    6  A    between atoms: C_6  and  C_10
REMARK    7  A    between atoms: C_11  and  C_12
REMARK    8  A    between atoms: C_12  and  C_16
REMARK    9  A    between atoms: C_12  and  C_17
REMARK   10  A    between atoms: C_13  and  C_18
REMARK                            x       y       z     vdW  Elec       q    Type
REMARK                         _______ _______ _______ _____ _____    ______ ____
ROOT
ATOM      5  C   UNL     1     -10.245   9.655  17.585  0.00  0.00    +0.092 C 
ATOM      6  C   UNL     1     -11.130  10.901  17.350  0.00  0.00    +0.041 C 
ATOM      7  C   UNL     1     -11.015   8.543  16.873  0.00  0.00    +0.160 C 
ATOM      8  C   UNL     1     -11.919  10.609  16.045  0.00  0.00    +0.043 C 
ATOM      9  C   UNL     1     -11.469   9.221  15.583  0.00  0.00    +0.145 C 
ENDROOT
BRANCH   6  10
ATOM     10  C   UNL     1     -10.343  12.193  17.321  0.00  0.00    -0.040 A 
ATOM     13  C   UNL     1     -10.822  13.339  17.956  0.00  0.00    -0.047 A 
ATOM     14  C   UNL     1      -9.122  12.228  16.646  0.00  0.00    +0.004 A 
ATOM     15  C   UNL     1     -10.080  14.520  17.917  0.00  0.00    +0.003 A 
ATOM     18  C   UNL     1     -12.126  13.326  18.684  0.00  0.00    +0.044 C 
ATOM     19  C   UNL     1      -8.380  13.409  16.607  0.00  0.00    +0.000 A 
ATOM     20  C   UNL     1      -8.859  14.555  17.242  0.00  0.00    +0.000 A 
ENDBRANCH   6  10
BRANCH   7   1
ATOM      1  O   UNL     1     -10.196   7.417  16.622  0.00  0.00    -0.388 OA
ATOM     22  H   UNL     1      -9.494   7.699  16.010  0.00  0.00    +0.210 HD
ENDBRANCH   7   1
BRANCH   9   2
ATOM      2  O   UNL     1     -10.370   9.353  14.686  0.00  0.00    -0.389 OA
ATOM     23  H   UNL     1     -10.515   8.727  13.955  0.00  0.00    +0.210 HD
ENDBRANCH   9   2
BRANCH   5   4
ATOM      4  N   UNL     1     -10.068   9.368  19.004  0.00  0.00    -0.308 NA
ATOM     21  H   UNL     1     -10.038   8.358  19.141  0.00  0.00    +0.122 HD
BRANCH   4  11
ATOM     11  C   UNL     1     -11.167   9.916  19.786  0.00  0.00    +0.115 C 
BRANCH  11  12
ATOM     12  C   UNL     1     -12.134   8.853  20.340  0.00  0.00    +0.073 C 
ATOM     16  C   UNL     1     -12.717   9.254  21.699  0.00  0.00    +0.042 C 
ATOM     17  C   UNL     1     -11.477   7.473  20.422  0.00  0.00    +0.042 C 
BRANCH  12   3
ATOM      3  O   UNL     1     -13.219   8.768  19.408  0.00  0.00    -0.388 OA
ATOM     24  H   UNL     1     -13.223   9.581  18.874  0.00  0.00    +0.210 HD
ENDBRANCH  12   3
ENDBRANCH  11  12
ENDBRANCH   4  11
ENDBRANCH   5   4
TORSDOF 7
ENDMDL
MODEL 7
REMARK VINA RESULT:      -5.1     21.222     25.143
REMARK  Name = 71693817
REMARK  10 active torsions:
REMARK  status: ('A' for Active; 'I' for Inactive)
REMARK    1  A    between atoms: O_1  and  C_7
REMARK    2  A    between atoms: O_2  and  C_9
REMARK    3  A    between atoms: O_3  and  C_12
REMARK    4  A    between atoms: N_4  and  C_5
REMARK    5  A    between atoms: N_4  and  C_11
REMARK    6  A    between atoms: C_6  and  C_10
REMARK    7  A    between atoms: C_11  and  C_12
REMARK    8  A    between atoms: C_12  and  C_16
REMARK    9  A    between atoms: C_12  and  C_17
REMARK   10  A    between atoms: C_13  and  C_18
REMARK                            x       y       z     vdW  Elec       q    Type
REMARK                         _______ _______ _______ _____ _____    ______ ____
ROOT
ATOM      5  C   UNL     1      -3.255 -10.823  14.160  0.00  0.00    +0.092 C 
ATOM      6  C   UNL     1      -4.238 -11.284  13.060  0.00  0.00    +0.041 C 
ATOM      7  C   UNL     1      -2.736 -12.141  14.736  0.00  0.00    +0.160 C 
ATOM      8  C   UNL     1      -3.745 -12.692  12.628  0.00  0.00    +0.043 C 
ATOM      9  C   UNL     1      -2.514 -12.989  13.487  0.00  0.00    +0.145 C 
ENDROOT
BRANCH   6  10
ATOM     10  C   UNL     1      -4.361 -10.295  11.920  0.00  0.00    -0.040 A 
ATOM     13  C   UNL     1      -5.499  -9.501  11.780  0.00  0.00    -0.047 A 
ATOM     14  C   UNL     1      -3.316 -10.186  11.002  0.00  0.00    +0.004 A 
ATOM     15  C   UNL     1      -5.592  -8.596  10.723  0.00  0.00    +0.003 A 
ATOM     18  C   UNL     1      -6.630  -9.601  12.751  0.00  0.00    +0.044 C 
ATOM     19  C   UNL     1      -3.410  -9.281   9.944  0.00  0.00    +0.000 A 
ATOM     20  C   UNL     1      -4.547  -8.486   9.804  0.00  0.00    +0.000 A 
ENDBRANCH   6  10
BRANCH   7   1
ATOM      1  O   UNL     1      -1.541 -11.955  15.472  0.00  0.00    -0.388 OA
ATOM     22  H   UNL     1      -1.325 -12.804  15.894  0.00  0.00    +0.210 HD
ENDBRANCH   7   1
BRANCH   9   2
ATOM      2  O   UNL     1      -1.341 -12.557  12.803  0.00  0.00    -0.389 OA
ATOM     23  H   UNL     1      -0.585 -13.018  13.204  0.00  0.00    +0.210 HD
ENDBRANCH   9   2
BRANCH   5   4
ATOM      4  N   UNL     1      -3.913 -10.010  15.177  0.00  0.00    -0.308 NA
ATOM     21  H   UNL     1      -3.240  -9.350  15.567  0.00  0.00    +0.122 HD
BRANCH   4  11
ATOM     11  C   UNL     1      -4.431 -10.844  16.253  0.00  0.00    +0.115 C 
BRANCH  11  12
ATOM     12  C   UNL     1      -5.897 -10.550  16.623  0.00  0.00    +0.073 C 
ATOM     16  C   UNL     1      -6.132 -10.595  18.137  0.00  0.00    +0.042 C 
ATOM     17  C   UNL     1      -6.866 -11.489  15.900  0.00  0.00    +0.042 C 
BRANCH  12   3
ATOM      3  O   UNL     1      -6.167  -9.214  16.179  0.00  0.00    -0.388 OA
ATOM     24  H   UNL     1      -6.185  -9.218  15.207  0.00  0.00    +0.210 HD
ENDBRANCH  12   3
ENDBRANCH  11  12
ENDBRANCH   4  11
ENDBRANCH   5   4
TORSDOF 7
ENDMDL
MODEL 8
REMARK VINA RESULT:      -4.9     20.664     23.327
REMARK  Name = 71693817
REMARK  10 active torsions:
REMARK  status: ('A' for Active; 'I' for Inactive)
REMARK    1  A    between atoms: O_1  and  C_7
REMARK    2  A    between atoms: O_2  and  C_9
REMARK    3  A    between atoms: O_3  and  C_12
REMARK    4  A    between atoms: N_4  and  C_5
REMARK    5  A    between atoms: N_4  and  C_11
REMARK    6  A    between atoms: C_6  and  C_10
REMARK    7  A    between atoms: C_11  and  C_12
REMARK    8  A    between atoms: C_12  and  C_16
REMARK    9  A    between atoms: C_12  and  C_17
REMARK   10  A    between atoms: C_13  and  C_18
REMARK                            x       y       z     vdW  Elec       q    Type
REMARK                         _______ _______ _______ _____ _____    ______ ____
ROOT
ATOM      5  C   UNL     1      -5.857 -10.485  17.323  0.00  0.00    +0.092 C 
ATOM      6  C   UNL     1      -5.330 -11.807  16.718  0.00  0.00    +0.041 C 
ATOM      7  C   UNL     1      -6.775 -10.960  18.450  0.00  0.00    +0.160 C 
ATOM      8  C   UNL     1      -5.410 -12.849  17.867  0.00  0.00    +0.043 C 
ATOM      9  C   UNL     1      -5.975 -12.100  19.076  0.00  0.00    +0.145 C 
ENDROOT
BRANCH   6  10
ATOM     10  C   UNL     1      -3.956 -11.673  16.099  0.00  0.00    -0.040 A 
ATOM     13  C   UNL     1      -3.613 -12.387  14.952  0.00  0.00    -0.047 A 
ATOM     14  C   UNL     1      -3.026 -10.819  16.693  0.00  0.00    +0.004 A 
ATOM     15  C   UNL     1      -2.341 -12.248  14.397  0.00  0.00    +0.003 A 
ATOM     18  C   UNL     1      -4.592 -13.307  14.298  0.00  0.00    +0.044 C 
ATOM     19  C   UNL     1      -1.753 -10.680  16.139  0.00  0.00    +0.000 A 
ATOM     20  C   UNL     1      -1.411 -11.394  14.991  0.00  0.00    +0.000 A 
ENDBRANCH   6  10
BRANCH   7   1
ATOM      1  O   UNL     1      -7.042  -9.926  19.378  0.00  0.00    -0.388 OA
ATOM     22  H   UNL     1      -7.777 -10.222  19.940  0.00  0.00    +0.210 HD
ENDBRANCH   7   1
BRANCH   9   2
ATOM      2  O   UNL     1      -4.903 -11.577  19.855  0.00  0.00    -0.389 OA
ATOM     23  H   UNL     1      -4.934 -12.016  20.723  0.00  0.00    +0.210 HD
ENDBRANCH   9   2
BRANCH   5   4
ATOM      4  N   UNL     1      -6.577  -9.682  16.342  0.00  0.00    -0.308 NA
ATOM     21  H   UNL     1      -7.129  -8.974  16.826  0.00  0.00    +0.122 HD
BRANCH   4  11
ATOM     11  C   UNL     1      -7.470 -10.512  15.546  0.00  0.00    +0.115 C 
BRANCH  11  12
ATOM     12  C   UNL     1      -7.386 -10.250  14.031  0.00  0.00    +0.073 C 
ATOM     16  C   UNL     1      -7.881 -11.444  13.208  0.00  0.00    +0.042 C 
ATOM     17  C   UNL     1      -5.973  -9.848  13.600  0.00  0.00    +0.042 C 
BRANCH  12   3
ATOM      3  O   UNL     1      -8.257  -9.144  13.762  0.00  0.00    -0.388 OA
ATOM     24  H   UNL     1      -8.718  -9.321  12.924  0.00  0.00    +0.210 HD
ENDBRANCH  12   3
ENDBRANCH  11  12
ENDBRANCH   4  11
ENDBRANCH   5   4
TORSDOF 7
ENDMDL
MODEL 9
REMARK VINA RESULT:      -4.9     21.691     24.786
REMARK  Name = 71693817
REMARK  10 active torsions:
REMARK  status: ('A' for Active; 'I' for Inactive)
REMARK    1  A    between atoms: O_1  and  C_7
REMARK    2  A    between atoms: O_2  and  C_9
REMARK    3  A    between atoms: O_3  and  C_12
REMARK    4  A    between atoms: N_4  and  C_5
REMARK    5  A    between atoms: N_4  and  C_11
REMARK    6  A    between atoms: C_6  and  C_10
REMARK    7  A    between atoms: C_11  and  C_12
REMARK    8  A    between atoms: C_12  and  C_16
REMARK    9  A    between atoms: C_12  and  C_17
REMARK   10  A    between atoms: C_13  and  C_18
REMARK                            x       y       z     vdW  Elec       q    Type
REMARK                         _______ _______ _______ _____ _____    ______ ____
ROOT
ATOM      5  C   UNL     1      -4.938 -12.822  16.659  0.00  0.00    +0.092 C 
ATOM      6  C   UNL     1      -4.001 -11.600  16.529  0.00  0.00    +0.041 C 
ATOM      7  C   UNL     1      -5.555 -12.641  18.047  0.00  0.00    +0.160 C 
ATOM      8  C   UNL     1      -4.604 -10.514  17.461  0.00  0.00    +0.043 C 
ATOM      9  C   UNL     1      -5.849 -11.144  18.090  0.00  0.00    +0.145 C 
ENDROOT
BRANCH   6  10
ATOM     10  C   UNL     1      -3.808 -11.148  15.097  0.00  0.00    -0.040 A 
ATOM     13  C   UNL     1      -2.535 -10.880  14.595  0.00  0.00    -0.047 A 
ATOM     14  C   UNL     1      -4.927 -11.000  14.276  0.00  0.00    +0.004 A 
ATOM     15  C   UNL     1      -2.380 -10.465  13.272  0.00  0.00    +0.003 A 
ATOM     18  C   UNL     1      -1.323 -11.030  15.454  0.00  0.00    +0.044 C 
ATOM     19  C   UNL     1      -4.772 -10.584  12.953  0.00  0.00    +0.000 A 
ATOM     20  C   UNL     1      -3.499 -10.317  12.452  0.00  0.00    +0.000 A 
ENDBRANCH   6  10
BRANCH   7   1
ATOM      1  O   UNL     1      -6.727 -13.418  18.204  0.00  0.00    -0.388 OA
ATOM     22  H   UNL     1      -6.496 -14.183  18.758  0.00  0.00    +0.210 HD
ENDBRANCH   7   1
BRANCH   9   2
ATOM      2  O   UNL     1      -6.989 -10.844  17.290  0.00  0.00    -0.389 OA
ATOM     23  H   UNL     1      -7.382 -11.691  17.015  0.00  0.00    +0.210 HD
ENDBRANCH   9   2
BRANCH   5   4
ATOM      4  N   UNL     1      -4.214 -14.083  16.550  0.00  0.00    -0.308 NA
ATOM     21  H   UNL     1      -3.216 -13.891  16.465  0.00  0.00    +0.122 HD
BRANCH   4  11
ATOM     11  C   UNL     1      -4.650 -14.833  15.381  0.00  0.00    +0.115 C 
BRANCH  11  12
ATOM     12  C   UNL     1      -3.555 -15.024  14.314  0.00  0.00    +0.073 C 
ATOM     16  C   UNL     1      -3.902 -14.323  12.997  0.00  0.00    +0.042 C 
ATOM     17  C   UNL     1      -3.249 -16.504  14.072  0.00  0.00    +0.042 C 
BRANCH  12   3
ATOM      3  O   UNL     1      -2.370 -14.411  14.836  0.00  0.00    -0.388 OA
ATOM     24  H   UNL     1      -1.645 -15.056  14.775  0.00  0.00    +0.210 HD
ENDBRANCH  12   3
ENDBRANCH  11  12
ENDBRANCH   4  11
ENDBRANCH   5   4
TORSDOF 7
ENDMDL
MODEL 10
REMARK VINA RESULT:      -4.9     24.238     26.430
REMARK  Name = 71693817
REMARK  10 active torsions:
REMARK  status: ('A' for Active; 'I' for Inactive)
REMARK    1  A    between atoms: O_1  and  C_7
REMARK    2  A    between atoms: O_2  and  C_9
REMARK    3  A    between atoms: O_3  and  C_12
REMARK    4  A    between atoms: N_4  and  C_5
REMARK    5  A    between atoms: N_4  and  C_11
REMARK    6  A    between atoms: C_6  and  C_10
REMARK    7  A    between atoms: C_11  and  C_12
REMARK    8  A    between atoms: C_12  and  C_16
REMARK    9  A    between atoms: C_12  and  C_17
REMARK   10  A    between atoms: C_13  and  C_18
REMARK                            x       y       z     vdW  Elec       q    Type
REMARK                         _______ _______ _______ _____ _____    ______ ____
ROOT
ATOM      5  C   UNL     1       8.140  -5.478  34.469  0.00  0.00    +0.092 C 
ATOM      6  C   UNL     1       9.451  -6.271  34.670  0.00  0.00    +0.041 C 
ATOM      7  C   UNL     1       7.706  -5.155  35.899  0.00  0.00    +0.160 C 
ATOM      8  C   UNL     1      10.017  -5.798  36.036  0.00  0.00    +0.043 C 
ATOM      9  C   UNL     1       9.021  -4.764  36.568  0.00  0.00    +0.145 C 
ENDROOT
BRANCH   6  10
ATOM     10  C   UNL     1      10.419  -6.124  33.516  0.00  0.00    -0.040 A 
ATOM     13  C   UNL     1      10.753  -7.217  32.716  0.00  0.00    -0.047 A 
ATOM     14  C   UNL     1      10.980  -4.873  33.257  0.00  0.00    +0.004 A 
ATOM     15  C   UNL     1      11.647  -7.060  31.657  0.00  0.00    +0.003 A 
ATOM     18  C   UNL     1      10.166  -8.566  32.974  0.00  0.00    +0.044 C 
ATOM     19  C   UNL     1      11.874  -4.716  32.197  0.00  0.00    +0.000 A 
ATOM     20  C   UNL     1      12.207  -5.808  31.398  0.00  0.00    +0.000 A 
ENDBRANCH   6  10
BRANCH   7   1
ATOM      1  O   UNL     1       6.759  -4.104  35.934  0.00  0.00    -0.388 OA
ATOM     22  H   UNL     1       6.928  -3.535  35.164  0.00  0.00    +0.210 HD
ENDBRANCH   7   1
BRANCH   9   2
ATOM      2  O   UNL     1       9.417  -3.462  36.147  0.00  0.00    -0.389 OA
ATOM     23  H   UNL     1       9.814  -3.016  36.915  0.00  0.00    +0.210 HD
ENDBRANCH   9   2
BRANCH   5   4
ATOM      4  N   UNL     1       7.131  -6.257  33.761  0.00  0.00    -0.308 NA
ATOM     21  H   UNL     1       6.234  -5.775  33.816  0.00  0.00    +0.122 HD
BRANCH   4  11
ATOM     11  C   UNL     1       6.989  -7.581  34.350  0.00  0.00    +0.115 C 
BRANCH  11  12
ATOM     12  C   UNL     1       6.182  -8.568  33.488  0.00  0.00    +0.073 C 
ATOM     16  C   UNL     1       6.769  -9.983  33.524  0.00  0.00    +0.042 C 
ATOM     17  C   UNL     1       6.042  -8.081  32.043  0.00  0.00    +0.042 C 
BRANCH  12   3
ATOM      3  O   UNL     1       4.869  -8.626  34.060  0.00  0.00    -0.388 OA
ATOM     24  H   UNL     1       4.781  -9.474  34.528  0.00  0.00    +0.210 HD
ENDBRANCH  12   3
ENDBRANCH  11  12
ENDBRANCH   4  11
ENDBRANCH   5   4
TORSDOF 7
ENDMDL
