MODEL 1
REMARK VINA RESULT:      -6.4      0.000      0.000
REMARK  Name = 56775817
REMARK  9 active torsions:
REMARK  status: ('A' for Active; 'I' for Inactive)
REMARK    1  A    between atoms: O_4  and  C_16
REMARK    2  A    between atoms: O_4  and  C_22
REMARK    3  A    between atoms: O_5  and  C_23
REMARK    4  A    between atoms: O_5  and  C_24
REMARK    5  A    between atoms: N_6  and  C_8
REMARK    6  A    between atoms: C_8  and  C_11
REMARK    7  A    between atoms: C_11  and  C_12
REMARK    8  A    between atoms: C_13  and  C_16
REMARK    9  A    between atoms: C_15  and  C_17
REMARK                            x       y       z     vdW  Elec       q    Type
REMARK                         _______ _______ _______ _____ _____    ______ ____
ROOT
ATOM      2  O   UNL     1      16.195   6.887  18.881  0.00  0.00    -0.354 OA
ATOM      7  N   UNL     1      14.837   6.901  18.586  0.00  0.00    -0.083 NA
ATOM     12  C   UNL     1      14.225   6.886  19.772  0.00  0.00    +0.086 A 
ATOM     14  C   UNL     1      15.136   6.865  20.843  0.00  0.00    +0.076 A 
ATOM     15  C   UNL     1      16.360   6.866  20.228  0.00  0.00    +0.167 A 
ENDROOT
BRANCH  15  17
ATOM     17  C   UNL     1      17.718   6.852  20.689  0.00  0.00    +0.020 A 
ATOM     18  C   UNL     1      18.613   5.904  20.192  0.00  0.00    +0.015 A 
ATOM     19  C   UNL     1      18.144   7.785  21.635  0.00  0.00    +0.015 A 
ATOM     20  C   UNL     1      19.934   5.891  20.640  0.00  0.00    +0.046 A 
ATOM     21  C   UNL     1      19.465   7.771  22.082  0.00  0.00    +0.046 A 
ATOM     23  C   UNL     1      20.360   6.824  21.586  0.00  0.00    +0.120 A 
BRANCH  23   5
ATOM      5  O   UNL     1      21.648   6.808  22.024  0.00  0.00    -0.495 OA
ATOM     24  C   UNL     1      21.883   6.269  23.325  0.00  0.00    +0.277 C 
ENDBRANCH  23   5
ENDBRANCH  15  17
BRANCH  12  11
ATOM     11  C   UNL     1      12.715   6.896  19.843  0.00  0.00    +0.089 C 
BRANCH  11   8
ATOM      1  O   UNL     1      11.247   9.113  21.663  0.00  0.00    -0.375 OA
ATOM      8  C   UNL     1      12.198   8.308  19.930  0.00  0.00    +0.086 C 
ATOM      9  C   UNL     1      10.777   8.460  20.462  0.00  0.00    +0.188 C 
ATOM     10  C   UNL     1      12.607   9.087  21.175  0.00  0.00    +0.188 C 
BRANCH   8   6
ATOM      3  O   UNL     1      11.205   7.599  17.304  0.00  0.00    -0.273 OA
ATOM      6  N   UNL     1      12.451   9.013  18.661  0.00  0.00    -0.303 N 
ATOM     13  C   UNL     1      11.923   8.585  17.451  0.00  0.00    +0.239 C 
ATOM     25  H   UNL     1      13.026   9.852  18.660  0.00  0.00    +0.149 HD
BRANCH  13  16
ATOM     16  C   UNL     1      12.336   9.483  16.305  0.00  0.00    +0.255 C 
BRANCH  16   4
ATOM      4  O   UNL     1      13.005   8.741  15.309  0.00  0.00    -0.374 OA
ATOM     22  C   UNL     1      14.417   8.747  15.501  0.00  0.00    +0.194 C 
ENDBRANCH  16   4
ENDBRANCH  13  16
ENDBRANCH   8   6
ENDBRANCH  11   8
ENDBRANCH  12  11
TORSDOF 7
ENDMDL
MODEL 2
REMARK VINA RESULT:      -6.3      1.365      3.526
REMARK  Name = 56775817
REMARK  9 active torsions:
REMARK  status: ('A' for Active; 'I' for Inactive)
REMARK    1  A    between atoms: O_4  and  C_16
REMARK    2  A    between atoms: O_4  and  C_22
REMARK    3  A    between atoms: O_5  and  C_23
REMARK    4  A    between atoms: O_5  and  C_24
REMARK    5  A    between atoms: N_6  and  C_8
REMARK    6  A    between atoms: C_8  and  C_11
REMARK    7  A    between atoms: C_11  and  C_12
REMARK    8  A    between atoms: C_13  and  C_16
REMARK    9  A    between atoms: C_15  and  C_17
REMARK                            x       y       z     vdW  Elec       q    Type
REMARK                         _______ _______ _______ _____ _____    ______ ____
ROOT
ATOM      2  O   UNL     1      15.245   6.990  21.260  0.00  0.00    -0.354 OA
ATOM      7  N   UNL     1      13.949   7.005  20.760  0.00  0.00    -0.083 NA
ATOM     12  C   UNL     1      14.088   6.958  19.433  0.00  0.00    +0.086 A 
ATOM     14  C   UNL     1      15.437   6.910  19.040  0.00  0.00    +0.076 A 
ATOM     15  C   UNL     1      16.123   6.933  20.225  0.00  0.00    +0.167 A 
ENDROOT
BRANCH  15  17
ATOM     17  C   UNL     1      17.510   6.909  20.586  0.00  0.00    +0.020 A 
ATOM     18  C   UNL     1      18.015   7.853  21.481  0.00  0.00    +0.015 A 
ATOM     19  C   UNL     1      18.357   5.942  20.042  0.00  0.00    +0.015 A 
ATOM     20  C   UNL     1      19.364   7.829  21.833  0.00  0.00    +0.046 A 
ATOM     21  C   UNL     1      19.706   5.919  20.395  0.00  0.00    +0.046 A 
ATOM     23  C   UNL     1      20.210   6.863  21.289  0.00  0.00    +0.120 A 
BRANCH  23   5
ATOM      5  O   UNL     1      21.527   6.842  21.630  0.00  0.00    -0.495 OA
ATOM     24  C   UNL     1      22.352   5.880  20.974  0.00  0.00    +0.277 C 
ENDBRANCH  23   5
ENDBRANCH  15  17
BRANCH  12  11
ATOM     11  C   UNL     1      12.865   6.958  18.545  0.00  0.00    +0.089 C 
BRANCH  11   8
ATOM      1  O   UNL     1      12.259   8.866  16.020  0.00  0.00    -0.375 OA
ATOM      8  C   UNL     1      12.554   8.352  18.072  0.00  0.00    +0.086 C 
ATOM      9  C   UNL     1      13.399   8.861  16.909  0.00  0.00    +0.188 C 
ATOM     10  C   UNL     1      11.383   8.477  17.103  0.00  0.00    +0.188 C 
BRANCH   8   6
ATOM      3  O   UNL     1      10.516   8.443  20.127  0.00  0.00    -0.273 OA
ATOM      6  N   UNL     1      12.490   9.269  19.223  0.00  0.00    -0.303 N 
ATOM     13  C   UNL     1      11.462   9.226  20.155  0.00  0.00    +0.239 C 
ATOM     25  H   UNL     1      13.226   9.958  19.358  0.00  0.00    +0.149 HD
BRANCH  13  16
ATOM     16  C   UNL     1      11.634  10.273  21.234  0.00  0.00    +0.255 C 
BRANCH  16   4
ATOM      4  O   UNL     1      11.554   9.683  22.514  0.00  0.00    -0.374 OA
ATOM     22  C   UNL     1      10.922  10.545  23.457  0.00  0.00    +0.194 C 
ENDBRANCH  16   4
ENDBRANCH  13  16
ENDBRANCH   8   6
ENDBRANCH  11   8
ENDBRANCH  12  11
TORSDOF 7
ENDMDL
MODEL 3
REMARK VINA RESULT:      -6.1      2.706      4.325
REMARK  Name = 56775817
REMARK  9 active torsions:
REMARK  status: ('A' for Active; 'I' for Inactive)
REMARK    1  A    between atoms: O_4  and  C_16
REMARK    2  A    between atoms: O_4  and  C_22
REMARK    3  A    between atoms: O_5  and  C_23
REMARK    4  A    between atoms: O_5  and  C_24
REMARK    5  A    between atoms: N_6  and  C_8
REMARK    6  A    between atoms: C_8  and  C_11
REMARK    7  A    between atoms: C_11  and  C_12
REMARK    8  A    between atoms: C_13  and  C_16
REMARK    9  A    between atoms: C_15  and  C_17
REMARK                            x       y       z     vdW  Elec       q    Type
REMARK                         _______ _______ _______ _____ _____    ______ ____
ROOT
ATOM      2  O   UNL     1      16.467   8.612  21.797  0.00  0.00    -0.354 OA
ATOM      7  N   UNL     1      15.231   9.244  21.724  0.00  0.00    -0.083 NA
ATOM     12  C   UNL     1      14.617   8.683  20.680  0.00  0.00    +0.086 A 
ATOM     14  C   UNL     1      15.407   7.697  20.061  0.00  0.00    +0.076 A 
ATOM     15  C   UNL     1      16.560   7.693  20.802  0.00  0.00    +0.167 A 
ENDROOT
BRANCH  15  17
ATOM     17  C   UNL     1      17.786   6.953  20.750  0.00  0.00    +0.020 A 
ATOM     18  C   UNL     1      18.814   7.243  21.648  0.00  0.00    +0.015 A 
ATOM     19  C   UNL     1      17.954   5.945  19.800  0.00  0.00    +0.015 A 
ATOM     20  C   UNL     1      20.008   6.523  21.598  0.00  0.00    +0.046 A 
ATOM     21  C   UNL     1      19.148   5.226  19.751  0.00  0.00    +0.046 A 
ATOM     23  C   UNL     1      20.175   5.515  20.649  0.00  0.00    +0.120 A 
BRANCH  23   5
ATOM      5  O   UNL     1      21.341   4.815  20.598  0.00  0.00    -0.495 OA
ATOM     24  C   UNL     1      22.549   5.573  20.547  0.00  0.00    +0.277 C 
ENDBRANCH  23   5
ENDBRANCH  15  17
BRANCH  12  11
ATOM     11  C   UNL     1      13.225   9.129  20.293  0.00  0.00    +0.089 C 
BRANCH  11   8
ATOM      1  O   UNL     1      10.905   6.997  20.963  0.00  0.00    -0.375 OA
ATOM      8  C   UNL     1      12.215   8.648  21.300  0.00  0.00    +0.086 C 
ATOM      9  C   UNL     1      10.804   8.426  20.768  0.00  0.00    +0.188 C 
ATOM     10  C   UNL     1      12.210   7.147  21.567  0.00  0.00    +0.188 C 
BRANCH   8   6
ATOM      3  O   UNL     1      11.386  11.408  21.580  0.00  0.00    -0.273 OA
ATOM      6  N   UNL     1      12.283   9.480  22.514  0.00  0.00    -0.303 N 
ATOM     13  C   UNL     1      11.856  10.800  22.538  0.00  0.00    +0.239 C 
ATOM     25  H   UNL     1      12.646   9.081  23.376  0.00  0.00    +0.149 HD
BRANCH  13  16
ATOM     16  C   UNL     1      12.035  11.427  23.905  0.00  0.00    +0.255 C 
BRANCH  16   4
ATOM      4  O   UNL     1      10.790  11.563  24.555  0.00  0.00    -0.374 OA
ATOM     22  C   UNL     1      10.425  12.930  24.723  0.00  0.00    +0.194 C 
ENDBRANCH  16   4
ENDBRANCH  13  16
ENDBRANCH   8   6
ENDBRANCH  11   8
ENDBRANCH  12  11
TORSDOF 7
ENDMDL
MODEL 4
REMARK VINA RESULT:      -6.0      1.481      1.958
REMARK  Name = 56775817
REMARK  9 active torsions:
REMARK  status: ('A' for Active; 'I' for Inactive)
REMARK    1  A    between atoms: O_4  and  C_16
REMARK    2  A    between atoms: O_4  and  C_22
REMARK    3  A    between atoms: O_5  and  C_23
REMARK    4  A    between atoms: O_5  and  C_24
REMARK    5  A    between atoms: N_6  and  C_8
REMARK    6  A    between atoms: C_8  and  C_11
REMARK    7  A    between atoms: C_11  and  C_12
REMARK    8  A    between atoms: C_13  and  C_16
REMARK    9  A    between atoms: C_15  and  C_17
REMARK                            x       y       z     vdW  Elec       q    Type
REMARK                         _______ _______ _______ _____ _____    ______ ____
ROOT
ATOM      2  O   UNL     1      16.395   8.908  20.374  0.00  0.00    -0.354 OA
ATOM      7  N   UNL     1      15.124   9.428  20.583  0.00  0.00    -0.083 NA
ATOM     12  C   UNL     1      14.514   8.545  21.377  0.00  0.00    +0.086 A 
ATOM     14  C   UNL     1      15.344   7.457  21.701  0.00  0.00    +0.076 A 
ATOM     15  C   UNL     1      16.514   7.733  21.045  0.00  0.00    +0.167 A 
ENDROOT
BRANCH  15  17
ATOM     17  C   UNL     1      17.781   7.074  20.926  0.00  0.00    +0.020 A 
ATOM     18  C   UNL     1      18.862   7.493  21.703  0.00  0.00    +0.015 A 
ATOM     19  C   UNL     1      17.936   6.015  20.031  0.00  0.00    +0.015 A 
ATOM     20  C   UNL     1      20.095   6.851  21.587  0.00  0.00    +0.046 A 
ATOM     21  C   UNL     1      19.169   5.374  19.915  0.00  0.00    +0.046 A 
ATOM     23  C   UNL     1      20.249   5.792  20.692  0.00  0.00    +0.120 A 
BRANCH  23   5
ATOM      5  O   UNL     1      21.453   5.169  20.578  0.00  0.00    -0.495 OA
ATOM     24  C   UNL     1      22.615   5.996  20.594  0.00  0.00    +0.277 C 
ENDBRANCH  23   5
ENDBRANCH  15  17
BRANCH  12  11
ATOM     11  C   UNL     1      13.090   8.786  21.822  0.00  0.00    +0.089 C 
BRANCH  11   8
ATOM      1  O   UNL     1      10.772   6.624  21.244  0.00  0.00    -0.375 OA
ATOM      8  C   UNL     1      12.119   8.225  20.818  0.00  0.00    +0.086 C 
ATOM      9  C   UNL     1      12.105   6.706  20.690  0.00  0.00    +0.188 C 
ATOM     10  C   UNL     1      10.683   8.066  21.304  0.00  0.00    +0.188 C 
BRANCH   8   6
ATOM      3  O   UNL     1      11.924   7.105  18.155  0.00  0.00    -0.273 OA
ATOM      6  N   UNL     1      12.252   8.942  19.538  0.00  0.00    -0.303 N 
ATOM     13  C   UNL     1      12.140   8.304  18.310  0.00  0.00    +0.239 C 
ATOM     25  H   UNL     1      12.422   9.945  19.540  0.00  0.00    +0.149 HD
BRANCH  13  16
ATOM     16  C   UNL     1      12.317   9.267  17.156  0.00  0.00    +0.255 C 
BRANCH  16   4
ATOM      4  O   UNL     1      12.756   8.582  16.002  0.00  0.00    -0.374 OA
ATOM     22  C   UNL     1      14.115   8.880  15.693  0.00  0.00    +0.194 C 
ENDBRANCH  16   4
ENDBRANCH  13  16
ENDBRANCH   8   6
ENDBRANCH  11   8
ENDBRANCH  12  11
TORSDOF 7
ENDMDL
MODEL 5
REMARK VINA RESULT:      -5.8      1.775      3.487
REMARK  Name = 56775817
REMARK  9 active torsions:
REMARK  status: ('A' for Active; 'I' for Inactive)
REMARK    1  A    between atoms: O_4  and  C_16
REMARK    2  A    between atoms: O_4  and  C_22
REMARK    3  A    between atoms: O_5  and  C_23
REMARK    4  A    between atoms: O_5  and  C_24
REMARK    5  A    between atoms: N_6  and  C_8
REMARK    6  A    between atoms: C_8  and  C_11
REMARK    7  A    between atoms: C_11  and  C_12
REMARK    8  A    between atoms: C_13  and  C_16
REMARK    9  A    between atoms: C_15  and  C_17
REMARK                            x       y       z     vdW  Elec       q    Type
REMARK                         _______ _______ _______ _____ _____    ______ ____
ROOT
ATOM      2  O   UNL     1      17.324   6.094  18.973  0.00  0.00    -0.354 OA
ATOM      7  N   UNL     1      15.988   6.285  18.640  0.00  0.00    -0.083 NA
ATOM     12  C   UNL     1      15.380   6.562  19.796  0.00  0.00    +0.086 A 
ATOM     14  C   UNL     1      16.273   6.561  20.883  0.00  0.00    +0.076 A 
ATOM     15  C   UNL     1      17.481   6.261  20.311  0.00  0.00    +0.167 A 
ENDROOT
BRANCH  15  17
ATOM     17  C   UNL     1      18.816   6.095  20.807  0.00  0.00    +0.020 A 
ATOM     18  C   UNL     1      19.687   5.202  20.182  0.00  0.00    +0.015 A 
ATOM     19  C   UNL     1      19.244   6.826  21.916  0.00  0.00    +0.015 A 
ATOM     20  C   UNL     1      20.986   5.042  20.664  0.00  0.00    +0.046 A 
ATOM     21  C   UNL     1      20.543   6.665  22.397  0.00  0.00    +0.046 A 
ATOM     23  C   UNL     1      21.414   5.772  21.772  0.00  0.00    +0.120 A 
BRANCH  23   5
ATOM      5  O   UNL     1      22.680   5.612  22.244  0.00  0.00    -0.495 OA
ATOM     24  C   UNL     1      22.998   4.352  22.832  0.00  0.00    +0.277 C 
ENDBRANCH  23   5
ENDBRANCH  15  17
BRANCH  12  11
ATOM     11  C   UNL     1      13.893   6.833  19.822  0.00  0.00    +0.089 C 
BRANCH  11   8
ATOM      1  O   UNL     1      14.300   9.737  18.485  0.00  0.00    -0.375 OA
ATOM      8  C   UNL     1      13.626   8.311  19.925  0.00  0.00    +0.086 C 
ATOM      9  C   UNL     1      14.836   9.217  19.724  0.00  0.00    +0.188 C 
ATOM     10  C   UNL     1      13.084   8.975  18.665  0.00  0.00    +0.188 C 
BRANCH   8   6
ATOM      3  O   UNL     1      10.845   7.676  20.418  0.00  0.00    -0.273 OA
ATOM      6  N   UNL     1      12.850   8.596  21.145  0.00  0.00    -0.303 N 
ATOM     13  C   UNL     1      11.513   8.246  21.276  0.00  0.00    +0.239 C 
ATOM     25  H   UNL     1      13.302   9.057  21.931  0.00  0.00    +0.149 HD
BRANCH  13  16
ATOM     16  C   UNL     1      10.953   8.652  22.623  0.00  0.00    +0.255 C 
BRANCH  16   4
ATOM      4  O   UNL     1      10.517   9.994  22.595  0.00  0.00    -0.374 OA
ATOM     22  C   UNL     1      11.069  10.754  23.667  0.00  0.00    +0.194 C 
ENDBRANCH  16   4
ENDBRANCH  13  16
ENDBRANCH   8   6
ENDBRANCH  11   8
ENDBRANCH  12  11
TORSDOF 7
ENDMDL
MODEL 6
REMARK VINA RESULT:      -5.6     15.002     19.079
REMARK  Name = 56775817
REMARK  9 active torsions:
REMARK  status: ('A' for Active; 'I' for Inactive)
REMARK    1  A    between atoms: O_4  and  C_16
REMARK    2  A    between atoms: O_4  and  C_22
REMARK    3  A    between atoms: O_5  and  C_23
REMARK    4  A    between atoms: O_5  and  C_24
REMARK    5  A    between atoms: N_6  and  C_8
REMARK    6  A    between atoms: C_8  and  C_11
REMARK    7  A    between atoms: C_11  and  C_12
REMARK    8  A    between atoms: C_13  and  C_16
REMARK    9  A    between atoms: C_15  and  C_17
REMARK                            x       y       z     vdW  Elec       q    Type
REMARK                         _______ _______ _______ _____ _____    ______ ____
ROOT
ATOM      2  O   UNL     1      10.461   4.545   2.756  0.00  0.00    -0.354 OA
ATOM      7  N   UNL     1      10.983   4.469   1.471  0.00  0.00    -0.083 NA
ATOM     12  C   UNL     1      12.083   5.227   1.498  0.00  0.00    +0.086 A 
ATOM     14  C   UNL     1      12.304   5.800   2.763  0.00  0.00    +0.076 A 
ATOM     15  C   UNL     1      11.256   5.341   3.516  0.00  0.00    +0.167 A 
ENDROOT
BRANCH  15  17
ATOM     17  C   UNL     1      10.843   5.514   4.878  0.00  0.00    +0.020 A 
ATOM     18  C   UNL     1       9.873   4.674   5.425  0.00  0.00    +0.015 A 
ATOM     19  C   UNL     1      11.410   6.524   5.656  0.00  0.00    +0.015 A 
ATOM     20  C   UNL     1       9.471   4.843   6.751  0.00  0.00    +0.046 A 
ATOM     21  C   UNL     1      11.008   6.692   6.981  0.00  0.00    +0.046 A 
ATOM     23  C   UNL     1      10.038   5.853   7.528  0.00  0.00    +0.120 A 
BRANCH  23   5
ATOM      5  O   UNL     1       9.643   6.018   8.819  0.00  0.00    -0.495 OA
ATOM     24  C   UNL     1       9.339   4.838   9.561  0.00  0.00    +0.277 C 
ENDBRANCH  23   5
ENDBRANCH  15  17
BRANCH  12  11
ATOM     11  C   UNL     1      12.926   5.381   0.253  0.00  0.00    +0.089 C 
BRANCH  11   8
ATOM      1  O   UNL     1      15.735   3.825   0.516  0.00  0.00    -0.375 OA
ATOM      8  C   UNL     1      13.691   4.115  -0.029  0.00  0.00    +0.086 C 
ATOM      9  C   UNL     1      15.061   4.300  -0.672  0.00  0.00    +0.188 C 
ATOM     10  C   UNL     1      14.467   3.536   1.148  0.00  0.00    +0.188 C 
BRANCH   8   6
ATOM      3  O   UNL     1      12.856   4.176  -2.800  0.00  0.00    -0.273 OA
ATOM      6  N   UNL     1      12.821   3.147  -0.719  0.00  0.00    -0.303 N 
ATOM     13  C   UNL     1      12.481   3.272  -2.059  0.00  0.00    +0.239 C 
ATOM     25  H   UNL     1      12.457   2.346  -0.207  0.00  0.00    +0.149 HD
BRANCH  13  16
ATOM     16  C   UNL     1      11.578   2.147  -2.519  0.00  0.00    +0.255 C 
BRANCH  16   4
ATOM      4  O   UNL     1      10.231   2.567  -2.533  0.00  0.00    -0.374 OA
ATOM     22  C   UNL     1       9.620   2.347  -3.802  0.00  0.00    +0.194 C 
ENDBRANCH  16   4
ENDBRANCH  13  16
ENDBRANCH   8   6
ENDBRANCH  11   8
ENDBRANCH  12  11
TORSDOF 7
ENDMDL
MODEL 7
REMARK VINA RESULT:      -5.5     24.000     28.059
REMARK  Name = 56775817
REMARK  9 active torsions:
REMARK  status: ('A' for Active; 'I' for Inactive)
REMARK    1  A    between atoms: O_4  and  C_16
REMARK    2  A    between atoms: O_4  and  C_22
REMARK    3  A    between atoms: O_5  and  C_23
REMARK    4  A    between atoms: O_5  and  C_24
REMARK    5  A    between atoms: N_6  and  C_8
REMARK    6  A    between atoms: C_8  and  C_11
REMARK    7  A    between atoms: C_11  and  C_12
REMARK    8  A    between atoms: C_13  and  C_16
REMARK    9  A    between atoms: C_15  and  C_17
REMARK                            x       y       z     vdW  Elec       q    Type
REMARK                         _______ _______ _______ _____ _____    ______ ____
ROOT
ATOM      2  O   UNL     1     -12.756   8.985  20.986  0.00  0.00    -0.354 OA
ATOM      7  N   UNL     1     -11.807   9.802  20.383  0.00  0.00    -0.083 NA
ATOM     12  C   UNL     1     -11.062   8.977  19.642  0.00  0.00    +0.086 A 
ATOM     14  C   UNL     1     -11.490   7.641  19.736  0.00  0.00    +0.076 A 
ATOM     15  C   UNL     1     -12.557   7.701  20.593  0.00  0.00    +0.167 A 
ENDROOT
BRANCH  15  17
ATOM     17  C   UNL     1     -13.468   6.736  21.136  0.00  0.00    +0.020 A 
ATOM     18  C   UNL     1     -12.991   5.705  21.946  0.00  0.00    +0.015 A 
ATOM     19  C   UNL     1     -14.831   6.826  20.853  0.00  0.00    +0.015 A 
ATOM     20  C   UNL     1     -13.877   4.766  22.475  0.00  0.00    +0.046 A 
ATOM     21  C   UNL     1     -15.716   5.887  21.381  0.00  0.00    +0.046 A 
ATOM     23  C   UNL     1     -15.240   4.857  22.191  0.00  0.00    +0.120 A 
BRANCH  23   5
ATOM      5  O   UNL     1     -16.103   3.939  22.704  0.00  0.00    -0.495 OA
ATOM     24  C   UNL     1     -15.885   3.527  24.053  0.00  0.00    +0.277 C 
ENDBRANCH  23   5
ENDBRANCH  15  17
BRANCH  12  11
ATOM     11  C   UNL     1      -9.911   9.524  18.829  0.00  0.00    +0.089 C 
BRANCH  11   8
ATOM      1  O   UNL     1     -11.893   8.657  16.442  0.00  0.00    -0.375 OA
ATOM      8  C   UNL     1     -10.332   9.752  17.402  0.00  0.00    +0.086 C 
ATOM      9  C   UNL     1     -10.459   8.500  16.541  0.00  0.00    +0.188 C 
ATOM     10  C   UNL     1     -11.832   9.903  17.171  0.00  0.00    +0.188 C 
BRANCH   8   6
ATOM      3  O   UNL     1     -10.326  12.559  18.114  0.00  0.00    -0.273 OA
ATOM      6  N   UNL     1      -9.515  10.822  16.803  0.00  0.00    -0.303 N 
ATOM     13  C   UNL     1      -9.591  12.143  17.222  0.00  0.00    +0.239 C 
ATOM     25  H   UNL     1      -8.858  10.595  16.060  0.00  0.00    +0.149 HD
BRANCH  13  16
ATOM     16  C   UNL     1      -8.649  13.037  16.445  0.00  0.00    +0.255 C 
BRANCH  16   4
ATOM      4  O   UNL     1      -8.110  14.037  17.283  0.00  0.00    -0.374 OA
ATOM     22  C   UNL     1      -6.703  14.178  17.105  0.00  0.00    +0.194 C 
ENDBRANCH  16   4
ENDBRANCH  13  16
ENDBRANCH   8   6
ENDBRANCH  11   8
ENDBRANCH  12  11
TORSDOF 7
ENDMDL
MODEL 8
REMARK VINA RESULT:      -5.5     26.994     30.865
REMARK  Name = 56775817
REMARK  9 active torsions:
REMARK  status: ('A' for Active; 'I' for Inactive)
REMARK    1  A    between atoms: O_4  and  C_16
REMARK    2  A    between atoms: O_4  and  C_22
REMARK    3  A    between atoms: O_5  and  C_23
REMARK    4  A    between atoms: O_5  and  C_24
REMARK    5  A    between atoms: N_6  and  C_8
REMARK    6  A    between atoms: C_8  and  C_11
REMARK    7  A    between atoms: C_11  and  C_12
REMARK    8  A    between atoms: C_13  and  C_16
REMARK    9  A    between atoms: C_15  and  C_17
REMARK                            x       y       z     vdW  Elec       q    Type
REMARK                         _______ _______ _______ _____ _____    ______ ____
ROOT
ATOM      2  O   UNL     1     -14.826   7.011  22.607  0.00  0.00    -0.354 OA
ATOM      7  N   UNL     1     -15.383   6.221  23.606  0.00  0.00    -0.083 NA
ATOM     12  C   UNL     1     -14.823   5.019  23.449  0.00  0.00    +0.086 A 
ATOM     14  C   UNL     1     -13.912   4.990  22.378  0.00  0.00    +0.076 A 
ATOM     15  C   UNL     1     -13.952   6.266  21.882  0.00  0.00    +0.167 A 
ENDROOT
BRANCH  15  17
ATOM     17  C   UNL     1     -13.293   6.950  20.809  0.00  0.00    +0.020 A 
ATOM     18  C   UNL     1     -11.902   7.057  20.800  0.00  0.00    +0.015 A 
ATOM     19  C   UNL     1     -14.042   7.509  19.773  0.00  0.00    +0.015 A 
ATOM     20  C   UNL     1     -11.260   7.722  19.755  0.00  0.00    +0.046 A 
ATOM     21  C   UNL     1     -13.400   8.174  18.728  0.00  0.00    +0.046 A 
ATOM     23  C   UNL     1     -12.009   8.282  18.719  0.00  0.00    +0.120 A 
BRANCH  23   5
ATOM      5  O   UNL     1     -11.383   8.933  17.702  0.00  0.00    -0.495 OA
ATOM     24  C   UNL     1     -10.490   8.167  16.895  0.00  0.00    +0.277 C 
ENDBRANCH  23   5
ENDBRANCH  15  17
BRANCH  12  11
ATOM     11  C   UNL     1     -15.196   3.886  24.378  0.00  0.00    +0.089 C 
BRANCH  11   8
ATOM      1  O   UNL     1     -17.484   3.602  26.628  0.00  0.00    -0.375 OA
ATOM      8  C   UNL     1     -16.670   3.910  24.678  0.00  0.00    +0.086 C 
ATOM      9  C   UNL     1     -17.197   2.741  25.503  0.00  0.00    +0.188 C 
ATOM     10  C   UNL     1     -17.089   4.767  25.868  0.00  0.00    +0.188 C 
BRANCH   8   6
ATOM      3  O   UNL     1     -17.051   2.114  22.440  0.00  0.00    -0.273 OA
ATOM      6  N   UNL     1     -17.429   4.174  23.443  0.00  0.00    -0.303 N 
ATOM     13  C   UNL     1     -17.549   3.237  22.427  0.00  0.00    +0.239 C 
ATOM     25  H   UNL     1     -17.896   5.070  23.323  0.00  0.00    +0.149 HD
BRANCH  13  16
ATOM     16  C   UNL     1     -18.378   3.758  21.272  0.00  0.00    +0.255 C 
BRANCH  16   4
ATOM      4  O   UNL     1     -17.586   3.886  20.111  0.00  0.00    -0.374 OA
ATOM     22  C   UNL     1     -17.019   5.189  19.996  0.00  0.00    +0.194 C 
ENDBRANCH  16   4
ENDBRANCH  13  16
ENDBRANCH   8   6
ENDBRANCH  11   8
ENDBRANCH  12  11
TORSDOF 7
ENDMDL
MODEL 9
REMARK VINA RESULT:      -5.4     13.075     17.299
REMARK  Name = 56775817
REMARK  9 active torsions:
REMARK  status: ('A' for Active; 'I' for Inactive)
REMARK    1  A    between atoms: O_4  and  C_16
REMARK    2  A    between atoms: O_4  and  C_22
REMARK    3  A    between atoms: O_5  and  C_23
REMARK    4  A    between atoms: O_5  and  C_24
REMARK    5  A    between atoms: N_6  and  C_8
REMARK    6  A    between atoms: C_8  and  C_11
REMARK    7  A    between atoms: C_11  and  C_12
REMARK    8  A    between atoms: C_13  and  C_16
REMARK    9  A    between atoms: C_15  and  C_17
REMARK                            x       y       z     vdW  Elec       q    Type
REMARK                         _______ _______ _______ _____ _____    ______ ____
ROOT
ATOM      2  O   UNL     1      10.684   3.616   3.992  0.00  0.00    -0.354 OA
ATOM      7  N   UNL     1      10.163   3.931   5.242  0.00  0.00    -0.083 NA
ATOM     12  C   UNL     1       9.736   5.191   5.131  0.00  0.00    +0.086 A 
ATOM     14  C   UNL     1       9.956   5.719   3.846  0.00  0.00    +0.076 A 
ATOM     15  C   UNL     1      10.554   4.689   3.169  0.00  0.00    +0.167 A 
ENDROOT
BRANCH  15  17
ATOM     17  C   UNL     1      11.047   4.513   1.835  0.00  0.00    +0.020 A 
ATOM     18  C   UNL     1      10.300   4.969   0.749  0.00  0.00    +0.015 A 
ATOM     19  C   UNL     1      12.274   3.884   1.622  0.00  0.00    +0.015 A 
ATOM     20  C   UNL     1      10.781   4.798  -0.549  0.00  0.00    +0.046 A 
ATOM     21  C   UNL     1      12.754   3.713   0.324  0.00  0.00    +0.046 A 
ATOM     23  C   UNL     1      12.008   4.170  -0.762  0.00  0.00    +0.120 A 
BRANCH  23   5
ATOM      5  O   UNL     1      12.474   4.000  -2.029  0.00  0.00    -0.495 OA
ATOM     24  C   UNL     1      13.889   4.030  -2.208  0.00  0.00    +0.277 C 
ENDBRANCH  23   5
ENDBRANCH  15  17
BRANCH  12  11
ATOM     11  C   UNL     1       9.098   5.880   6.316  0.00  0.00    +0.089 C 
BRANCH  11   8
ATOM      1  O   UNL     1       9.091   5.205   9.467  0.00  0.00    -0.375 OA
ATOM      8  C   UNL     1       9.924   5.672   7.557  0.00  0.00    +0.086 C 
ATOM      9  C   UNL     1       9.460   6.431   8.795  0.00  0.00    +0.188 C 
ATOM     10  C   UNL     1       9.602   4.420   8.365  0.00  0.00    +0.188 C 
BRANCH   8   6
ATOM      3  O   UNL     1      11.330   8.155   7.067  0.00  0.00    -0.273 OA
ATOM      6  N   UNL     1      11.354   5.840   7.241  0.00  0.00    -0.303 N 
ATOM     13  C   UNL     1      11.928   7.084   7.023  0.00  0.00    +0.239 C 
ATOM     25  H   UNL     1      11.955   5.021   7.187  0.00  0.00    +0.149 HD
BRANCH  13  16
ATOM     16  C   UNL     1      13.407   6.977   6.717  0.00  0.00    +0.255 C 
BRANCH  16   4
ATOM      4  O   UNL     1      14.021   8.246   6.785  0.00  0.00    -0.374 OA
ATOM     22  C   UNL     1      15.328   8.235   6.217  0.00  0.00    +0.194 C 
ENDBRANCH  16   4
ENDBRANCH  13  16
ENDBRANCH   8   6
ENDBRANCH  11   8
ENDBRANCH  12  11
TORSDOF 7
ENDMDL
MODEL 10
REMARK VINA RESULT:      -5.3      2.205      3.319
REMARK  Name = 56775817
REMARK  9 active torsions:
REMARK  status: ('A' for Active; 'I' for Inactive)
REMARK    1  A    between atoms: O_4  and  C_16
REMARK    2  A    between atoms: O_4  and  C_22
REMARK    3  A    between atoms: O_5  and  C_23
REMARK    4  A    between atoms: O_5  and  C_24
REMARK    5  A    between atoms: N_6  and  C_8
REMARK    6  A    between atoms: C_8  and  C_11
REMARK    7  A    between atoms: C_11  and  C_12
REMARK    8  A    between atoms: C_13  and  C_16
REMARK    9  A    between atoms: C_15  and  C_17
REMARK                            x       y       z     vdW  Elec       q    Type
REMARK                         _______ _______ _______ _____ _____    ______ ____
ROOT
ATOM      2  O   UNL     1      17.139   6.679  20.290  0.00  0.00    -0.354 OA
ATOM      7  N   UNL     1      16.112   7.572  20.005  0.00  0.00    -0.083 NA
ATOM     12  C   UNL     1      16.539   8.748  20.470  0.00  0.00    +0.086 A 
ATOM     14  C   UNL     1      17.816   8.661  21.053  0.00  0.00    +0.076 A 
ATOM     15  C   UNL     1      18.148   7.340  20.914  0.00  0.00    +0.167 A 
ENDROOT
BRANCH  15  17
ATOM     17  C   UNL     1      19.285   6.545  21.270  0.00  0.00    +0.020 A 
ATOM     18  C   UNL     1      19.734   5.542  20.409  0.00  0.00    +0.015 A 
ATOM     19  C   UNL     1      19.944   6.771  22.480  0.00  0.00    +0.015 A 
ATOM     20  C   UNL     1      20.842   4.769  20.757  0.00  0.00    +0.046 A 
ATOM     21  C   UNL     1      21.051   5.997  22.826  0.00  0.00    +0.046 A 
ATOM     23  C   UNL     1      21.500   4.996  21.966  0.00  0.00    +0.120 A 
BRANCH  23   5
ATOM      5  O   UNL     1      22.578   4.238  22.305  0.00  0.00    -0.495 OA
ATOM     24  C   UNL     1      22.944   4.212  23.684  0.00  0.00    +0.277 C 
ENDBRANCH  23   5
ENDBRANCH  15  17
BRANCH  12  11
ATOM     11  C   UNL     1      15.667   9.976  20.332  0.00  0.00    +0.089 C 
BRANCH  11   8
ATOM      1  O   UNL     1      14.216  11.290  22.891  0.00  0.00    -0.375 OA
ATOM      8  C   UNL     1      14.506   9.911  21.288  0.00  0.00    +0.086 C 
ATOM      9  C   UNL     1      14.861  10.002  22.768  0.00  0.00    +0.188 C 
ATOM     10  C   UNL     1      13.765  11.223  21.519  0.00  0.00    +0.188 C 
BRANCH   8   6
ATOM      3  O   UNL     1      12.764   9.678  18.986  0.00  0.00    -0.273 OA
ATOM      6  N   UNL     1      13.635   8.774  20.940  0.00  0.00    -0.303 N 
ATOM     13  C   UNL     1      12.835   8.766  19.806  0.00  0.00    +0.239 C 
ATOM     25  H   UNL     1      13.617   7.954  21.542  0.00  0.00    +0.149 HD
BRANCH  13  16
ATOM     16  C   UNL     1      12.041   7.484  19.684  0.00  0.00    +0.255 C 
BRANCH  16   4
ATOM      4  O   UNL     1      10.914   7.515  20.534  0.00  0.00    -0.374 OA
ATOM     22  C   UNL     1      11.028   6.575  21.600  0.00  0.00    +0.194 C 
ENDBRANCH  16   4
ENDBRANCH  13  16
ENDBRANCH   8   6
ENDBRANCH  11   8
ENDBRANCH  12  11
TORSDOF 7
ENDMDL
