MODEL 1
REMARK VINA RESULT:      -6.1      0.000      0.000
REMARK  Name = 11941507
REMARK  4 active torsions:
REMARK  status: ('A' for Active; 'I' for Inactive)
REMARK    1  A    between atoms: S_2  and  C_20
REMARK    2  A    between atoms: S_2  and  C_23
REMARK    3  A    between atoms: N_7  and  C_9
REMARK    4  A    between atoms: C_17  and  C_20
REMARK                            x       y       z     vdW  Elec       q    Type
REMARK                         _______ _______ _______ _____ _____    ______ ____
ROOT
ATOM      1 CL   UNL     1      -6.562 -11.189  19.771  0.00  0.00    -0.083 Cl
ATOM      3  O   UNL     1      -1.090 -10.133  15.065  0.00  0.00    -0.273 OA
ATOM      4  O   UNL     1      -6.072  -9.759  13.394  0.00  0.00    -0.270 OA
ATOM      6  N   UNL     1      -3.927 -10.587  13.451  0.00  0.00    -0.284 N 
ATOM      8  N   UNL     1      -3.040 -10.253  16.236  0.00  0.00    -0.283 N 
ATOM      9  C   UNL     1      -1.932 -11.736  12.906  0.00  0.00    +0.104 C 
ATOM     10  C   UNL     1      -2.885 -11.392  14.060  0.00  0.00    +0.183 C 
ATOM     11  C   UNL     1      -2.132 -10.579  11.924  0.00  0.00    +0.043 C 
ATOM     12  C   UNL     1      -3.606 -10.240  12.074  0.00  0.00    +0.111 C 
ATOM     13  C   UNL     1      -2.261 -10.512  15.128  0.00  0.00    +0.240 C 
ATOM     14  C   UNL     1      -5.157 -10.308  14.008  0.00  0.00    +0.249 C 
ATOM     15  C   UNL     1      -5.378 -10.668  15.432  0.00  0.00    +0.058 A 
ATOM     16  C   UNL     1      -4.406 -10.545  16.441  0.00  0.00    +0.047 A 
ATOM     18  C   UNL     1      -6.702 -10.987  15.784  0.00  0.00    +0.016 A 
ATOM     19  C   UNL     1      -4.801 -10.681  17.783  0.00  0.00    +0.044 A 
ATOM     21  C   UNL     1      -7.065 -11.165  17.119  0.00  0.00    +0.021 A 
ATOM     22  C   UNL     1      -6.116 -10.999  18.120  0.00  0.00    +0.043 A 
ATOM     25  H   UNL     1      -2.542  -9.873  17.039  0.00  0.00    +0.155 HD
ENDROOT
BRANCH   9   7
ATOM      5  O   UNL     1      -1.490 -14.380  13.996  0.00  0.00    -0.275 OA
ATOM      7  N   UNL     1      -2.287 -13.000  12.303  0.00  0.00    -0.309 N 
ATOM     17  C   UNL     1      -2.034 -14.223  12.904  0.00  0.00    +0.223 C 
ATOM     24  H   UNL     1      -2.685 -12.983  11.368  0.00  0.00    +0.149 HD
BRANCH  17  20
ATOM     20  C   UNL     1      -2.484 -15.396  12.064  0.00  0.00    +0.164 C 
BRANCH  20   2
ATOM      2  S   UNL     1      -1.168 -16.637  12.038  0.00  0.00    -0.155 S 
ATOM     23  C   UNL     1      -1.141 -16.964  10.260  0.00  0.00    +0.085 C 
ENDBRANCH  20   2
ENDBRANCH  17  20
ENDBRANCH   9   7
TORSDOF 3
ENDMDL
MODEL 2
REMARK VINA RESULT:      -5.9     24.615     27.255
REMARK  Name = 11941507
REMARK  4 active torsions:
REMARK  status: ('A' for Active; 'I' for Inactive)
REMARK    1  A    between atoms: S_2  and  C_20
REMARK    2  A    between atoms: S_2  and  C_23
REMARK    3  A    between atoms: N_7  and  C_9
REMARK    4  A    between atoms: C_17  and  C_20
REMARK                            x       y       z     vdW  Elec       q    Type
REMARK                         _______ _______ _______ _____ _____    ______ ____
ROOT
ATOM      1 CL   UNL     1     -13.896  -0.544  29.928  0.00  0.00    -0.083 Cl
ATOM      3  O   UNL     1     -14.034   4.764  34.928  0.00  0.00    -0.273 OA
ATOM      4  O   UNL     1     -16.805   5.301  30.481  0.00  0.00    -0.270 OA
ATOM      6  N   UNL     1     -15.223   5.855  32.055  0.00  0.00    -0.284 N 
ATOM      8  N   UNL     1     -14.355   3.295  33.217  0.00  0.00    -0.283 N 
ATOM      9  C   UNL     1     -13.595   7.028  33.308  0.00  0.00    +0.104 C 
ATOM     10  C   UNL     1     -13.934   5.663  32.693  0.00  0.00    +0.183 C 
ATOM     11  C   UNL     1     -14.968   7.659  33.551  0.00  0.00    +0.043 C 
ATOM     12  C   UNL     1     -15.800   7.151  32.385  0.00  0.00    +0.111 C 
ATOM     13  C   UNL     1     -14.145   4.563  33.717  0.00  0.00    +0.240 C 
ATOM     14  C   UNL     1     -15.788   5.021  31.115  0.00  0.00    +0.249 C 
ATOM     15  C   UNL     1     -15.147   3.702  30.874  0.00  0.00    +0.058 A 
ATOM     16  C   UNL     1     -14.578   2.902  31.879  0.00  0.00    +0.047 A 
ATOM     18  C   UNL     1     -15.288   3.183  29.575  0.00  0.00    +0.016 A 
ATOM     19  C   UNL     1     -14.225   1.576  31.572  0.00  0.00    +0.044 A 
ATOM     21  C   UNL     1     -14.887   1.881  29.277  0.00  0.00    +0.021 A 
ATOM     22  C   UNL     1     -14.367   1.072  30.280  0.00  0.00    +0.043 A 
ATOM     25  H   UNL     1     -14.257   2.539  33.892  0.00  0.00    +0.155 HD
ENDROOT
BRANCH   9   7
ATOM      5  O   UNL     1     -11.803   9.200  33.979  0.00  0.00    -0.275 OA
ATOM      7  N   UNL     1     -12.807   7.825  32.396  0.00  0.00    -0.309 N 
ATOM     17  C   UNL     1     -11.973   8.850  32.812  0.00  0.00    +0.223 C 
ATOM     24  H   UNL     1     -12.925   7.657  31.401  0.00  0.00    +0.149 HD
BRANCH  17  20
ATOM     20  C   UNL     1     -11.273   9.541  31.665  0.00  0.00    +0.164 C 
BRANCH  20   2
ATOM      2  S   UNL     1     -12.519  10.202  30.531  0.00  0.00    -0.155 S 
ATOM     23  C   UNL     1     -11.542  10.171  29.010  0.00  0.00    +0.085 C 
ENDBRANCH  20   2
ENDBRANCH  17  20
ENDBRANCH   9   7
TORSDOF 3
ENDMDL
MODEL 3
REMARK VINA RESULT:      -5.9      5.139      8.062
REMARK  Name = 11941507
REMARK  4 active torsions:
REMARK  status: ('A' for Active; 'I' for Inactive)
REMARK    1  A    between atoms: S_2  and  C_20
REMARK    2  A    between atoms: S_2  and  C_23
REMARK    3  A    between atoms: N_7  and  C_9
REMARK    4  A    between atoms: C_17  and  C_20
REMARK                            x       y       z     vdW  Elec       q    Type
REMARK                         _______ _______ _______ _____ _____    ______ ____
ROOT
ATOM      1 CL   UNL     1      -0.722 -10.373  15.721  0.00  0.00    -0.083 Cl
ATOM      3  O   UNL     1      -7.245 -10.491  18.981  0.00  0.00    -0.273 OA
ATOM      4  O   UNL     1      -6.824 -11.966  13.942  0.00  0.00    -0.270 OA
ATOM      6  N   UNL     1      -7.586 -10.710  15.711  0.00  0.00    -0.284 N 
ATOM      8  N   UNL     1      -5.395 -10.723  17.673  0.00  0.00    -0.283 N 
ATOM      9  C   UNL     1      -8.830  -9.200  17.041  0.00  0.00    +0.104 C 
ATOM     10  C   UNL     1      -7.408  -9.679  16.716  0.00  0.00    +0.183 C 
ATOM     11  C   UNL     1      -9.698 -10.417  16.717  0.00  0.00    +0.043 C 
ATOM     12  C   UNL     1      -8.991 -11.047  15.527  0.00  0.00    +0.111 C 
ATOM     13  C   UNL     1      -6.709 -10.360  17.879  0.00  0.00    +0.240 C 
ATOM     14  C   UNL     1      -6.601 -11.211  14.888  0.00  0.00    +0.249 C 
ATOM     15  C   UNL     1      -5.192 -10.839  15.178  0.00  0.00    +0.058 A 
ATOM     16  C   UNL     1      -4.656 -10.711  16.470  0.00  0.00    +0.047 A 
ATOM     18  C   UNL     1      -4.333 -10.785  14.065  0.00  0.00    +0.016 A 
ATOM     19  C   UNL     1      -3.262 -10.598  16.619  0.00  0.00    +0.044 A 
ATOM     21  C   UNL     1      -2.958 -10.625  14.230  0.00  0.00    +0.021 A 
ATOM     22  C   UNL     1      -2.420 -10.544  15.508  0.00  0.00    +0.043 A 
ATOM     25  H   UNL     1      -4.870 -10.954  18.515  0.00  0.00    +0.155 HD
ENDROOT
BRANCH   9   7
ATOM      5  O   UNL     1     -11.206  -7.563  17.269  0.00  0.00    -0.275 OA
ATOM      7  N   UNL     1      -9.192  -8.065  16.223  0.00  0.00    -0.309 N 
ATOM     17  C   UNL     1     -10.357  -7.339  16.407  0.00  0.00    +0.223 C 
ATOM     24  H   UNL     1      -8.586  -7.836  15.439  0.00  0.00    +0.149 HD
BRANCH  17  20
ATOM     20  C   UNL     1     -10.513  -6.213  15.412  0.00  0.00    +0.164 C 
BRANCH  20   2
ATOM      2  S   UNL     1     -12.248  -6.113  14.907  0.00  0.00    -0.155 S 
ATOM     23  C   UNL     1     -12.070  -4.912  13.568  0.00  0.00    +0.085 C 
ENDBRANCH  20   2
ENDBRANCH  17  20
ENDBRANCH   9   7
TORSDOF 3
ENDMDL
MODEL 4
REMARK VINA RESULT:      -5.8      4.999      8.097
REMARK  Name = 11941507
REMARK  4 active torsions:
REMARK  status: ('A' for Active; 'I' for Inactive)
REMARK    1  A    between atoms: S_2  and  C_20
REMARK    2  A    between atoms: S_2  and  C_23
REMARK    3  A    between atoms: N_7  and  C_9
REMARK    4  A    between atoms: C_17  and  C_20
REMARK                            x       y       z     vdW  Elec       q    Type
REMARK                         _______ _______ _______ _____ _____    ______ ____
ROOT
ATOM      1 CL   UNL     1      -0.967 -10.307  15.588  0.00  0.00    -0.083 Cl
ATOM      3  O   UNL     1      -5.917 -11.365  20.839  0.00  0.00    -0.273 OA
ATOM      4  O   UNL     1      -6.279 -14.071  16.335  0.00  0.00    -0.270 OA
ATOM      6  N   UNL     1      -6.974 -12.630  17.986  0.00  0.00    -0.284 N 
ATOM      8  N   UNL     1      -4.512 -11.419  19.047  0.00  0.00    -0.283 N 
ATOM      9  C   UNL     1      -8.305 -11.229  19.350  0.00  0.00    +0.104 C 
ATOM     10  C   UNL     1      -6.941 -11.343  18.656  0.00  0.00    +0.183 C 
ATOM     11  C   UNL     1      -8.712 -12.686  19.578  0.00  0.00    +0.043 C 
ATOM     12  C   UNL     1      -8.150 -13.403  18.361  0.00  0.00    +0.111 C 
ATOM     13  C   UNL     1      -5.768 -11.414  19.617  0.00  0.00    +0.240 C 
ATOM     14  C   UNL     1      -6.118 -13.040  16.988  0.00  0.00    +0.249 C 
ATOM     15  C   UNL     1      -4.924 -12.203  16.703  0.00  0.00    +0.058 A 
ATOM     16  C   UNL     1      -4.163 -11.547  17.685  0.00  0.00    +0.047 A 
ATOM     18  C   UNL     1      -4.460 -12.231  15.375  0.00  0.00    +0.016 A 
ATOM     19  C   UNL     1      -2.923 -10.991  17.324  0.00  0.00    +0.044 A 
ATOM     21  C   UNL     1      -3.250 -11.632  15.026  0.00  0.00    +0.021 A 
ATOM     22  C   UNL     1      -2.474 -11.023  16.004  0.00  0.00    +0.043 A 
ATOM     25  H   UNL     1      -3.743 -11.226  19.687  0.00  0.00    +0.155 HD
ENDROOT
BRANCH   9   7
ATOM      5  O   UNL     1     -10.788  -9.982  20.163  0.00  0.00    -0.275 OA
ATOM      7  N   UNL     1      -9.258 -10.545  18.506  0.00  0.00    -0.309 N 
ATOM     17  C   UNL     1     -10.426  -9.977  18.988  0.00  0.00    +0.223 C 
ATOM     24  H   UNL     1      -9.083 -10.541  17.505  0.00  0.00    +0.149 HD
BRANCH  17  20
ATOM     20  C   UNL     1     -11.261  -9.338  17.902  0.00  0.00    +0.164 C 
BRANCH  20   2
ATOM      2  S   UNL     1     -10.179  -8.365  16.827  0.00  0.00    -0.155 S 
ATOM     23  C   UNL     1     -11.230  -6.906  16.636  0.00  0.00    +0.085 C 
ENDBRANCH  20   2
ENDBRANCH  17  20
ENDBRANCH   9   7
TORSDOF 3
ENDMDL
MODEL 5
REMARK VINA RESULT:      -5.6      3.126      4.540
REMARK  Name = 11941507
REMARK  4 active torsions:
REMARK  status: ('A' for Active; 'I' for Inactive)
REMARK    1  A    between atoms: S_2  and  C_20
REMARK    2  A    between atoms: S_2  and  C_23
REMARK    3  A    between atoms: N_7  and  C_9
REMARK    4  A    between atoms: C_17  and  C_20
REMARK                            x       y       z     vdW  Elec       q    Type
REMARK                         _______ _______ _______ _____ _____    ______ ____
ROOT
ATOM      1 CL   UNL     1      -7.490 -12.515  19.767  0.00  0.00    -0.083 Cl
ATOM      3  O   UNL     1      -4.325 -14.189  13.413  0.00  0.00    -0.273 OA
ATOM      4  O   UNL     1      -2.053 -10.672  16.608  0.00  0.00    -0.270 OA
ATOM      6  N   UNL     1      -3.014 -11.437  14.665  0.00  0.00    -0.284 N 
ATOM      8  N   UNL     1      -4.918 -13.515  15.507  0.00  0.00    -0.283 N 
ATOM      9  C   UNL     1      -3.739 -11.618  12.420  0.00  0.00    +0.104 C 
ATOM     10  C   UNL     1      -4.170 -11.828  13.879  0.00  0.00    +0.183 C 
ATOM     11  C   UNL     1      -2.218 -11.776  12.471  0.00  0.00    +0.043 C 
ATOM     12  C   UNL     1      -1.849 -11.192  13.826  0.00  0.00    +0.111 C 
ATOM     13  C   UNL     1      -4.435 -13.279  14.236  0.00  0.00    +0.240 C 
ATOM     14  C   UNL     1      -3.016 -11.155  16.013  0.00  0.00    +0.249 C 
ATOM     15  C   UNL     1      -4.240 -11.474  16.793  0.00  0.00    +0.058 A 
ATOM     16  C   UNL     1      -5.036 -12.613  16.586  0.00  0.00    +0.047 A 
ATOM     18  C   UNL     1      -4.488 -10.651  17.906  0.00  0.00    +0.016 A 
ATOM     19  C   UNL     1      -6.020 -12.935  17.538  0.00  0.00    +0.044 A 
ATOM     21  C   UNL     1      -5.500 -10.960  18.814  0.00  0.00    +0.021 A 
ATOM     22  C   UNL     1      -6.258 -12.110  18.637  0.00  0.00    +0.043 A 
ATOM     25  H   UNL     1      -5.314 -14.441  15.656  0.00  0.00    +0.155 HD
ENDROOT
BRANCH   9   7
ATOM      5  O   UNL     1      -4.094 -10.761   9.678  0.00  0.00    -0.275 OA
ATOM      7  N   UNL     1      -4.113 -10.301  11.957  0.00  0.00    -0.309 N 
ATOM     17  C   UNL     1      -4.259  -9.983  10.616  0.00  0.00    +0.223 C 
ATOM     24  H   UNL     1      -4.210  -9.566  12.651  0.00  0.00    +0.149 HD
BRANCH  17  20
ATOM     20  C   UNL     1      -4.637  -8.537  10.391  0.00  0.00    +0.164 C 
BRANCH  20   2
ATOM      2  S   UNL     1      -6.154  -8.474   9.407  0.00  0.00    -0.155 S 
ATOM     23  C   UNL     1      -7.290  -9.193  10.616  0.00  0.00    +0.085 C 
ENDBRANCH  20   2
ENDBRANCH  17  20
ENDBRANCH   9   7
TORSDOF 3
ENDMDL
MODEL 6
REMARK VINA RESULT:      -5.6     24.303     26.244
REMARK  Name = 11941507
REMARK  4 active torsions:
REMARK  status: ('A' for Active; 'I' for Inactive)
REMARK    1  A    between atoms: S_2  and  C_20
REMARK    2  A    between atoms: S_2  and  C_23
REMARK    3  A    between atoms: N_7  and  C_9
REMARK    4  A    between atoms: C_17  and  C_20
REMARK                            x       y       z     vdW  Elec       q    Type
REMARK                         _______ _______ _______ _____ _____    ______ ____
ROOT
ATOM      1 CL   UNL     1       8.389   4.687  10.760  0.00  0.00    -0.083 Cl
ATOM      3  O   UNL     1      10.296   9.992   6.131  0.00  0.00    -0.273 OA
ATOM      4  O   UNL     1      10.416   4.974   4.535  0.00  0.00    -0.270 OA
ATOM      6  N   UNL     1      11.271   7.059   4.989  0.00  0.00    -0.284 N 
ATOM      8  N   UNL     1       9.651   8.095   7.215  0.00  0.00    -0.283 N 
ATOM      9  C   UNL     1      12.695   8.947   5.087  0.00  0.00    +0.104 C 
ATOM     10  C   UNL     1      11.741   8.074   5.915  0.00  0.00    +0.183 C 
ATOM     11  C   UNL     1      12.180   8.779   3.656  0.00  0.00    +0.043 C 
ATOM     12  C   UNL     1      11.694   7.339   3.624  0.00  0.00    +0.111 C 
ATOM     13  C   UNL     1      10.496   8.803   6.386  0.00  0.00    +0.240 C 
ATOM     14  C   UNL     1      10.652   5.879   5.336  0.00  0.00    +0.249 C 
ATOM     15  C   UNL     1      10.225   5.701   6.747  0.00  0.00    +0.058 A 
ATOM     16  C   UNL     1       9.689   6.724   7.548  0.00  0.00    +0.047 A 
ATOM     18  C   UNL     1      10.215   4.376   7.221  0.00  0.00    +0.016 A 
ATOM     19  C   UNL     1       9.097   6.384   8.777  0.00  0.00    +0.044 A 
ATOM     21  C   UNL     1       9.665   4.065   8.464  0.00  0.00    +0.021 A 
ATOM     22  C   UNL     1       9.094   5.067   9.237  0.00  0.00    +0.043 A 
ATOM     25  H   UNL     1       8.959   8.654   7.712  0.00  0.00    +0.155 HD
ENDROOT
BRANCH   9   7
ATOM      5  O   UNL     1      14.801  10.103   6.701  0.00  0.00    -0.275 OA
ATOM      7  N   UNL     1      14.057   8.481   5.211  0.00  0.00    -0.309 N 
ATOM     17  C   UNL     1      15.001   9.104   6.013  0.00  0.00    +0.223 C 
ATOM     24  H   UNL     1      14.343   7.697   4.631  0.00  0.00    +0.149 HD
BRANCH  17  20
ATOM     20  C   UNL     1      16.355   8.436   5.956  0.00  0.00    +0.164 C 
BRANCH  20   2
ATOM      2  S   UNL     1      16.872   8.306   4.227  0.00  0.00    -0.155 S 
ATOM     23  C   UNL     1      18.659   8.209   4.487  0.00  0.00    +0.085 C 
ENDBRANCH  20   2
ENDBRANCH  17  20
ENDBRANCH   9   7
TORSDOF 3
ENDMDL
MODEL 7
REMARK VINA RESULT:      -5.5      4.174      6.266
REMARK  Name = 11941507
REMARK  4 active torsions:
REMARK  status: ('A' for Active; 'I' for Inactive)
REMARK    1  A    between atoms: S_2  and  C_20
REMARK    2  A    between atoms: S_2  and  C_23
REMARK    3  A    between atoms: N_7  and  C_9
REMARK    4  A    between atoms: C_17  and  C_20
REMARK                            x       y       z     vdW  Elec       q    Type
REMARK                         _______ _______ _______ _____ _____    ______ ____
ROOT
ATOM      1 CL   UNL     1      -8.205  -7.187   8.283  0.00  0.00    -0.083 Cl
ATOM      3  O   UNL     1      -1.628  -9.173  10.732  0.00  0.00    -0.273 OA
ATOM      4  O   UNL     1      -5.476 -12.755  10.402  0.00  0.00    -0.270 OA
ATOM      6  N   UNL     1      -3.869 -11.482  11.443  0.00  0.00    -0.284 N 
ATOM      8  N   UNL     1      -3.740  -8.980   9.900  0.00  0.00    -0.283 N 
ATOM      9  C   UNL     1      -2.340 -10.632  13.036  0.00  0.00    +0.104 C 
ATOM     10  C   UNL     1      -3.393 -10.227  11.994  0.00  0.00    +0.183 C 
ATOM     11  C   UNL     1      -1.835 -11.983  12.524  0.00  0.00    +0.043 C 
ATOM     12  C   UNL     1      -3.074 -12.610  11.906  0.00  0.00    +0.111 C 
ATOM     13  C   UNL     1      -2.825  -9.454  10.817  0.00  0.00    +0.240 C 
ATOM     14  C   UNL     1      -5.024 -11.652  10.712  0.00  0.00    +0.249 C 
ATOM     15  C   UNL     1      -5.748 -10.439  10.253  0.00  0.00    +0.058 A 
ATOM     16  C   UNL     1      -5.120  -9.263   9.806  0.00  0.00    +0.047 A 
ATOM     18  C   UNL     1      -7.141 -10.573  10.114  0.00  0.00    +0.016 A 
ATOM     19  C   UNL     1      -5.897  -8.279   9.170  0.00  0.00    +0.044 A 
ATOM     21  C   UNL     1      -7.902  -9.565   9.523  0.00  0.00    +0.021 A 
ATOM     22  C   UNL     1      -7.278  -8.423   9.039  0.00  0.00    +0.043 A 
ATOM     25  H   UNL     1      -3.387  -8.273   9.258  0.00  0.00    +0.155 HD
ENDROOT
BRANCH   9   7
ATOM      5  O   UNL     1      -0.990 -10.473  15.592  0.00  0.00    -0.275 OA
ATOM      7  N   UNL     1      -2.933 -10.758  14.347  0.00  0.00    -0.309 N 
ATOM     17  C   UNL     1      -2.203 -10.667  15.521  0.00  0.00    +0.223 C 
ATOM     24  H   UNL     1      -3.923 -10.984  14.398  0.00  0.00    +0.149 HD
BRANCH  17  20
ATOM     20  C   UNL     1      -3.051 -10.851  16.758  0.00  0.00    +0.164 C 
BRANCH  20   2
ATOM      2  S   UNL     1      -4.739 -10.306  16.397  0.00  0.00    -0.155 S 
ATOM     23  C   UNL     1      -5.488 -10.672  18.002  0.00  0.00    +0.085 C 
ENDBRANCH  20   2
ENDBRANCH  17  20
ENDBRANCH   9   7
TORSDOF 3
ENDMDL
MODEL 8
REMARK VINA RESULT:      -5.4     21.372     22.270
REMARK  Name = 11941507
REMARK  4 active torsions:
REMARK  status: ('A' for Active; 'I' for Inactive)
REMARK    1  A    between atoms: S_2  and  C_20
REMARK    2  A    between atoms: S_2  and  C_23
REMARK    3  A    between atoms: N_7  and  C_9
REMARK    4  A    between atoms: C_17  and  C_20
REMARK                            x       y       z     vdW  Elec       q    Type
REMARK                         _______ _______ _______ _____ _____    ______ ____
ROOT
ATOM      1 CL   UNL     1     -13.083   4.697  23.103  0.00  0.00    -0.083 Cl
ATOM      3  O   UNL     1     -10.149   8.669  17.735  0.00  0.00    -0.273 OA
ATOM      4  O   UNL     1     -15.040   9.723  19.381  0.00  0.00    -0.270 OA
ATOM      6  N   UNL     1     -13.407   9.141  17.871  0.00  0.00    -0.284 N 
ATOM      8  N   UNL     1     -11.343   7.763  19.450  0.00  0.00    -0.283 N 
ATOM      9  C   UNL     1     -12.253   8.663  15.861  0.00  0.00    +0.104 C 
ATOM     10  C   UNL     1     -12.472   8.187  17.304  0.00  0.00    +0.183 C 
ATOM     11  C   UNL     1     -12.530  10.166  15.936  0.00  0.00    +0.043 C 
ATOM     12  C   UNL     1     -13.634  10.268  16.977  0.00  0.00    +0.111 C 
ATOM     13  C   UNL     1     -11.229   8.269  18.172  0.00  0.00    +0.240 C 
ATOM     14  C   UNL     1     -14.141   8.962  19.023  0.00  0.00    +0.249 C 
ATOM     15  C   UNL     1     -13.810   7.802  19.890  0.00  0.00    +0.058 A 
ATOM     16  C   UNL     1     -12.506   7.337  20.129  0.00  0.00    +0.047 A 
ATOM     18  C   UNL     1     -14.880   7.267  20.630  0.00  0.00    +0.016 A 
ATOM     19  C   UNL     1     -12.298   6.395  21.152  0.00  0.00    +0.044 A 
ATOM     21  C   UNL     1     -14.660   6.299  21.608  0.00  0.00    +0.021 A 
ATOM     22  C   UNL     1     -13.366   5.871  21.878  0.00  0.00    +0.043 A 
ATOM     25  H   UNL     1     -10.462   7.603  19.935  0.00  0.00    +0.155 HD
ENDROOT
BRANCH   9   7
ATOM      5  O   UNL     1     -11.647   7.539  13.264  0.00  0.00    -0.275 OA
ATOM      7  N   UNL     1     -13.169   8.007  14.957  0.00  0.00    -0.309 N 
ATOM     17  C   UNL     1     -12.785   7.497  13.727  0.00  0.00    +0.223 C 
ATOM     24  H   UNL     1     -14.151   7.977  15.219  0.00  0.00    +0.149 HD
BRANCH  17  20
ATOM     20  C   UNL     1     -13.932   6.876  12.963  0.00  0.00    +0.164 C 
BRANCH  20   2
ATOM      2  S   UNL     1     -15.401   6.863  14.019  0.00  0.00    -0.155 S 
ATOM     23  C   UNL     1     -16.365   5.623  13.124  0.00  0.00    +0.085 C 
ENDBRANCH  20   2
ENDBRANCH  17  20
ENDBRANCH   9   7
TORSDOF 3
ENDMDL
MODEL 9
REMARK VINA RESULT:      -5.4      4.162      6.738
REMARK  Name = 11941507
REMARK  4 active torsions:
REMARK  status: ('A' for Active; 'I' for Inactive)
REMARK    1  A    between atoms: S_2  and  C_20
REMARK    2  A    between atoms: S_2  and  C_23
REMARK    3  A    between atoms: N_7  and  C_9
REMARK    4  A    between atoms: C_17  and  C_20
REMARK                            x       y       z     vdW  Elec       q    Type
REMARK                         _______ _______ _______ _____ _____    ______ ____
ROOT
ATOM      1 CL   UNL     1      -1.392  -9.134  10.716  0.00  0.00    -0.083 Cl
ATOM      3  O   UNL     1      -2.121 -11.047  17.717  0.00  0.00    -0.273 OA
ATOM      4  O   UNL     1      -4.546 -13.860  13.982  0.00  0.00    -0.270 OA
ATOM      6  N   UNL     1      -4.395 -12.553  15.868  0.00  0.00    -0.284 N 
ATOM      8  N   UNL     1      -2.028 -10.857  15.449  0.00  0.00    -0.283 N 
ATOM      9  C   UNL     1      -4.911 -11.416  17.877  0.00  0.00    +0.104 C 
ATOM     10  C   UNL     1      -4.204 -11.272  16.522  0.00  0.00    +0.183 C 
ATOM     11  C   UNL     1      -4.852 -12.920  18.151  0.00  0.00    +0.043 C 
ATOM     12  C   UNL     1      -4.983 -13.535  16.767  0.00  0.00    +0.111 C 
ATOM     13  C   UNL     1      -2.701 -11.089  16.630  0.00  0.00    +0.240 C 
ATOM     14  C   UNL     1      -4.219 -12.804  14.524  0.00  0.00    +0.249 C 
ATOM     15  C   UNL     1      -3.576 -11.754  13.694  0.00  0.00    +0.058 A 
ATOM     16  C   UNL     1      -2.515 -10.940  14.126  0.00  0.00    +0.047 A 
ATOM     18  C   UNL     1      -3.969 -11.715  12.344  0.00  0.00    +0.016 A 
ATOM     19  C   UNL     1      -1.831 -10.157  13.180  0.00  0.00    +0.044 A 
ATOM     21  C   UNL     1      -3.309 -10.897  11.429  0.00  0.00    +0.021 A 
ATOM     22  C   UNL     1      -2.231 -10.127  11.845  0.00  0.00    +0.043 A 
ATOM     25  H   UNL     1      -1.078 -10.504  15.551  0.00  0.00    +0.155 HD
ENDROOT
BRANCH   9   7
ATOM      5  O   UNL     1      -6.675 -10.781  20.083  0.00  0.00    -0.275 OA
ATOM      7  N   UNL     1      -6.277 -10.952  17.799  0.00  0.00    -0.309 N 
ATOM     17  C   UNL     1      -7.047 -10.672  18.916  0.00  0.00    +0.223 C 
ATOM     24  H   UNL     1      -6.702 -10.889  16.878  0.00  0.00    +0.149 HD
BRANCH  17  20
ATOM     20  C   UNL     1      -8.447 -10.220  18.568  0.00  0.00    +0.164 C 
BRANCH  20   2
ATOM      2  S   UNL     1      -8.379  -9.205  17.072  0.00  0.00    -0.155 S 
ATOM     23  C   UNL     1      -9.389 -10.247  15.993  0.00  0.00    +0.085 C 
ENDBRANCH  20   2
ENDBRANCH  17  20
ENDBRANCH   9   7
TORSDOF 3
ENDMDL
MODEL 10
REMARK VINA RESULT:      -5.4      5.496      8.254
REMARK  Name = 11941507
REMARK  4 active torsions:
REMARK  status: ('A' for Active; 'I' for Inactive)
REMARK    1  A    between atoms: S_2  and  C_20
REMARK    2  A    between atoms: S_2  and  C_23
REMARK    3  A    between atoms: N_7  and  C_9
REMARK    4  A    between atoms: C_17  and  C_20
REMARK                            x       y       z     vdW  Elec       q    Type
REMARK                         _______ _______ _______ _____ _____    ______ ____
ROOT
ATOM      1 CL   UNL     1      -2.261 -10.605  15.635  0.00  0.00    -0.083 Cl
ATOM      3  O   UNL     1      -9.174  -8.475  16.570  0.00  0.00    -0.273 OA
ATOM      4  O   UNL     1      -6.708 -11.082  20.425  0.00  0.00    -0.270 OA
ATOM      6  N   UNL     1      -8.337 -10.705  18.847  0.00  0.00    -0.284 N 
ATOM      8  N   UNL     1      -7.011  -9.173  16.714  0.00  0.00    -0.283 N 
ATOM      9  C   UNL     1     -10.326 -10.842  17.574  0.00  0.00    +0.104 C 
ATOM     10  C   UNL     1      -8.803 -10.680  17.473  0.00  0.00    +0.183 C 
ATOM     11  C   UNL     1     -10.653 -10.279  18.959  0.00  0.00    +0.043 C 
ATOM     12  C   UNL     1      -9.443 -10.672  19.793  0.00  0.00    +0.111 C 
ATOM     13  C   UNL     1      -8.365  -9.337  16.918  0.00  0.00    +0.240 C 
ATOM     14  C   UNL     1      -7.035 -10.907  19.251  0.00  0.00    +0.249 C 
ATOM     15  C   UNL     1      -5.970 -10.888  18.216  0.00  0.00    +0.058 A 
ATOM     16  C   UNL     1      -5.951 -10.017  17.114  0.00  0.00    +0.047 A 
ATOM     18  C   UNL     1      -4.844 -11.689  18.482  0.00  0.00    +0.016 A 
ATOM     19  C   UNL     1      -4.779  -9.922  16.343  0.00  0.00    +0.044 A 
ATOM     21  C   UNL     1      -3.708 -11.616  17.678  0.00  0.00    +0.021 A 
ATOM     22  C   UNL     1      -3.670 -10.722  16.615  0.00  0.00    +0.043 A 
ATOM     25  H   UNL     1      -6.751  -8.381  16.129  0.00  0.00    +0.155 HD
ENDROOT
BRANCH   9   7
ATOM      5  O   UNL     1     -12.922 -11.903  16.857  0.00  0.00    -0.275 OA
ATOM      7  N   UNL     1     -10.704 -12.233  17.472  0.00  0.00    -0.309 N 
ATOM     17  C   UNL     1     -11.979 -12.648  17.120  0.00  0.00    +0.223 C 
ATOM     24  H   UNL     1     -10.013 -12.931  17.733  0.00  0.00    +0.149 HD
BRANCH  17  20
ATOM     20  C   UNL     1     -12.125 -14.152  17.102  0.00  0.00    +0.164 C 
BRANCH  20   2
ATOM      2  S   UNL     1     -11.486 -14.821  18.657  0.00  0.00    -0.155 S 
ATOM     23  C   UNL     1     -12.741 -14.151  19.774  0.00  0.00    +0.085 C 
ENDBRANCH  20   2
ENDBRANCH  17  20
ENDBRANCH   9   7
TORSDOF 3
ENDMDL
