MODEL 1
REMARK VINA RESULT:      -7.7      0.000      0.000
REMARK  Name = 11912954
REMARK  9 active torsions:
REMARK  status: ('A' for Active; 'I' for Inactive)
REMARK    1  A    between atoms: N_3  and  C_9
REMARK    2  A    between atoms: N_3  and  C_13
REMARK    3  A    between atoms: N_4  and  C_10
REMARK    4  A    between atoms: C_13  and  C_15
REMARK    5  A    between atoms: C_16  and  C_17
REMARK    6  A    between atoms: C_16  and  C_22
REMARK    7  A    between atoms: C_16  and  C_23
REMARK    8  A    between atoms: C_16  and  C_24
REMARK    9  A    between atoms: C_27  and  C_28
REMARK                            x       y       z     vdW  Elec       q    Type
REMARK                         _______ _______ _______ _____ _____    ______ ____
ROOT
ATOM      1  O   UNL     1      -2.429 -12.621  12.644  0.00  0.00    -0.370 OA
ATOM      2  O   UNL     1      -1.423  -9.718  13.055  0.00  0.00    -0.370 OA
ATOM      7  C   UNL     1      -2.467 -10.484  13.681  0.00  0.00    +0.168 C 
ATOM      8  C   UNL     1      -3.095 -11.347  12.605  0.00  0.00    +0.171 C 
ATOM      9  C   UNL     1      -1.876 -11.479  14.655  0.00  0.00    +0.111 C 
ATOM     10  C   UNL     1      -2.767 -10.628  11.318  0.00  0.00    +0.130 C 
ATOM     11  C   UNL     1      -1.497 -12.629  13.736  0.00  0.00    +0.181 C 
ATOM     12  C   UNL     1      -1.442  -9.959  11.640  0.00  0.00    +0.185 C 
ENDROOT
BRANCH  10   4
ATOM      4  N   UNL     1      -3.776  -9.630  11.036  0.00  0.00    -0.306 N 
ATOM      5  N   UNL     1      -4.479 -10.732   9.087  0.00  0.00    -0.219 NA
ATOM      6  N   UNL     1      -5.526  -8.680   9.794  0.00  0.00    -0.223 NA
ATOM     14  C   UNL     1      -4.618  -9.682   9.939  0.00  0.00    +0.216 A 
ATOM     17  C   UNL     1      -5.316 -10.753   8.030  0.00  0.00    +0.052 A 
ATOM     20  C   UNL     1      -6.271  -9.786   7.790  0.00  0.00    +0.043 A 
ATOM     21  C   UNL     1      -6.331  -8.762   8.714  0.00  0.00    +0.116 A 
ATOM     35  H   UNL     1      -3.924  -8.871  11.692  0.00  0.00    +0.149 HD
BRANCH  17  16
ATOM     16  C   UNL     1      -5.176 -11.898   7.084  0.00  0.00    +0.005 C 
ATOM     22  C   UNL     1      -6.529 -12.653   6.907  0.00  0.00    +0.017 C 
ATOM     23  C   UNL     1      -4.125 -12.930   7.598  0.00  0.00    +0.017 C 
ATOM     24  C   UNL     1      -4.717 -11.520   5.637  0.00  0.00    +0.017 C 
ENDBRANCH  17  16
ENDBRANCH  10   4
BRANCH   9   3
ATOM      3  N   UNL     1      -2.887 -11.924  15.612  0.00  0.00    -0.305 NA
ATOM     34  H   UNL     1      -2.610 -12.827  15.997  0.00  0.00    +0.123 HD
BRANCH   3  13
ATOM     13  C   UNL     1      -3.036 -10.961  16.692  0.00  0.00    +0.116 C 
BRANCH  13  15
ATOM     15  C   UNL     1      -4.480 -10.617  16.942  0.00  0.00    -0.034 A 
ATOM     18  C   UNL     1      -5.233 -10.048  15.924  0.00  0.00    +0.005 A 
ATOM     19  C   UNL     1      -5.038 -10.873  18.187  0.00  0.00    +0.005 A 
ATOM     25  C   UNL     1      -6.572  -9.729  16.156  0.00  0.00    +0.009 A 
ATOM     26  C   UNL     1      -6.376 -10.554  18.419  0.00  0.00    +0.009 A 
ATOM     27  C   UNL     1      -7.142  -9.982  17.403  0.00  0.00    -0.018 A 
BRANCH  27  28
ATOM     28  C   UNL     1      -8.531  -9.652  17.644  0.00  0.00    -0.018 A 
ATOM     29  C   UNL     1      -9.099  -8.537  17.026  0.00  0.00    +0.008 A 
ATOM     30  C   UNL     1      -9.301 -10.447  18.491  0.00  0.00    +0.008 A 
ATOM     31  C   UNL     1     -10.437  -8.219  17.257  0.00  0.00    +0.001 A 
ATOM     32  C   UNL     1     -10.639 -10.128  18.723  0.00  0.00    +0.001 A 
ATOM     33  C   UNL     1     -11.207  -9.014  18.105  0.00  0.00    +0.000 A 
ENDBRANCH  27  28
ENDBRANCH  13  15
ENDBRANCH   3  13
ENDBRANCH   9   3
TORSDOF 6
ENDMDL
MODEL 2
REMARK VINA RESULT:      -7.6      3.427      6.531
REMARK  Name = 11912954
REMARK  9 active torsions:
REMARK  status: ('A' for Active; 'I' for Inactive)
REMARK    1  A    between atoms: N_3  and  C_9
REMARK    2  A    between atoms: N_3  and  C_13
REMARK    3  A    between atoms: N_4  and  C_10
REMARK    4  A    between atoms: C_13  and  C_15
REMARK    5  A    between atoms: C_16  and  C_17
REMARK    6  A    between atoms: C_16  and  C_22
REMARK    7  A    between atoms: C_16  and  C_23
REMARK    8  A    between atoms: C_16  and  C_24
REMARK    9  A    between atoms: C_27  and  C_28
REMARK                            x       y       z     vdW  Elec       q    Type
REMARK                         _______ _______ _______ _____ _____    ______ ____
ROOT
ATOM      1  O   UNL     1      -7.363 -11.745  16.283  0.00  0.00    -0.370 OA
ATOM      2  O   UNL     1      -5.947 -12.649  18.888  0.00  0.00    -0.370 OA
ATOM      7  C   UNL     1      -6.450 -11.376  18.444  0.00  0.00    +0.168 C 
ATOM      8  C   UNL     1      -6.179 -11.282  16.956  0.00  0.00    +0.171 C 
ATOM      9  C   UNL     1      -7.959 -11.343  18.550  0.00  0.00    +0.111 C 
ATOM     10  C   UNL     1      -5.040 -12.247  16.727  0.00  0.00    +0.130 C 
ATOM     11  C   UNL     1      -8.377 -12.028  17.259  0.00  0.00    +0.181 C 
ATOM     12  C   UNL     1      -5.275 -13.298  17.797  0.00  0.00    +0.185 C 
ENDROOT
BRANCH  10   4
ATOM      4  N   UNL     1      -3.774 -11.581  16.948  0.00  0.00    -0.306 N 
ATOM      5  N   UNL     1      -3.459 -11.183  14.657  0.00  0.00    -0.219 NA
ATOM      6  N   UNL     1      -1.830 -10.454  16.276  0.00  0.00    -0.223 NA
ATOM     14  C   UNL     1      -2.998 -11.057  15.930  0.00  0.00    +0.216 A 
ATOM     17  C   UNL     1      -2.678 -10.660  13.690  0.00  0.00    +0.052 A 
ATOM     20  C   UNL     1      -1.475 -10.028  13.934  0.00  0.00    +0.043 A 
ATOM     21  C   UNL     1      -1.097  -9.954  15.259  0.00  0.00    +0.116 A 
ATOM     35  H   UNL     1      -3.447 -11.436  17.896  0.00  0.00    +0.149 HD
BRANCH  17  16
ATOM     16  C   UNL     1      -3.168 -10.789  12.287  0.00  0.00    +0.005 C 
ATOM     22  C   UNL     1      -4.663 -10.360  12.168  0.00  0.00    +0.017 C 
ATOM     23  C   UNL     1      -3.060 -12.262  11.784  0.00  0.00    +0.017 C 
ATOM     24  C   UNL     1      -2.402  -9.930  11.227  0.00  0.00    +0.017 C 
ENDBRANCH  17  16
ENDBRANCH  10   4
BRANCH   9   3
ATOM      3  N   UNL     1      -8.442  -9.964  18.556  0.00  0.00    -0.305 NA
ATOM     34  H   UNL     1      -8.245  -9.536  17.651  0.00  0.00    +0.123 HD
BRANCH   3  13
ATOM     13  C   UNL     1      -9.873  -9.919  18.812  0.00  0.00    +0.116 C 
BRANCH  13  15
ATOM     15  C   UNL     1     -10.588  -9.015  17.844  0.00  0.00    -0.034 A 
ATOM     18  C   UNL     1      -9.889  -7.989  17.223  0.00  0.00    +0.005 A 
ATOM     19  C   UNL     1     -11.937  -9.218  17.587  0.00  0.00    +0.005 A 
ATOM     25  C   UNL     1     -10.552  -7.151  16.326  0.00  0.00    +0.009 A 
ATOM     26  C   UNL     1     -12.599  -8.381  16.690  0.00  0.00    +0.009 A 
ATOM     27  C   UNL     1     -11.907  -7.347  16.060  0.00  0.00    -0.018 A 
BRANCH  27  28
ATOM     28  C   UNL     1     -12.594  -6.478  15.129  0.00  0.00    -0.018 A 
ATOM     29  C   UNL     1     -11.872  -5.549  14.379  0.00  0.00    +0.008 A 
ATOM     30  C   UNL     1     -13.978  -6.568  14.981  0.00  0.00    +0.008 A 
ATOM     31  C   UNL     1     -12.533  -4.712  13.481  0.00  0.00    +0.001 A 
ATOM     32  C   UNL     1     -14.640  -5.730  14.084  0.00  0.00    +0.001 A 
ATOM     33  C   UNL     1     -13.917  -4.802  13.334  0.00  0.00    +0.000 A 
ENDBRANCH  27  28
ENDBRANCH  13  15
ENDBRANCH   3  13
ENDBRANCH   9   3
TORSDOF 6
ENDMDL
MODEL 3
REMARK VINA RESULT:      -7.5     27.577     30.361
REMARK  Name = 11912954
REMARK  9 active torsions:
REMARK  status: ('A' for Active; 'I' for Inactive)
REMARK    1  A    between atoms: N_3  and  C_9
REMARK    2  A    between atoms: N_3  and  C_13
REMARK    3  A    between atoms: N_4  and  C_10
REMARK    4  A    between atoms: C_13  and  C_15
REMARK    5  A    between atoms: C_16  and  C_17
REMARK    6  A    between atoms: C_16  and  C_22
REMARK    7  A    between atoms: C_16  and  C_23
REMARK    8  A    between atoms: C_16  and  C_24
REMARK    9  A    between atoms: C_27  and  C_28
REMARK                            x       y       z     vdW  Elec       q    Type
REMARK                         _______ _______ _______ _____ _____    ______ ____
ROOT
ATOM      1  O   UNL     1      13.459  12.681  21.621  0.00  0.00    -0.370 OA
ATOM      2  O   UNL     1      11.778  12.956  24.211  0.00  0.00    -0.370 OA
ATOM      7  C   UNL     1      12.950  12.187  23.888  0.00  0.00    +0.168 C 
ATOM      8  C   UNL     1      12.795  11.716  22.455  0.00  0.00    +0.171 C 
ATOM      9  C   UNL     1      14.171  13.080  23.854  0.00  0.00    +0.111 C 
ATOM     10  C   UNL     1      11.305  11.756  22.214  0.00  0.00    +0.130 C 
ATOM     11  C   UNL     1      14.091  13.665  22.453  0.00  0.00    +0.181 C 
ATOM     12  C   UNL     1      10.853  12.892  23.115  0.00  0.00    +0.185 C 
ENDROOT
BRANCH  10   4
ATOM      4  N   UNL     1      10.700  10.511  22.636  0.00  0.00    -0.306 N 
ATOM      5  N   UNL     1      11.848   9.273  21.006  0.00  0.00    -0.219 NA
ATOM      6  N   UNL     1      10.333   8.196  22.539  0.00  0.00    -0.223 NA
ATOM     14  C   UNL     1      10.968   9.290  22.042  0.00  0.00    +0.216 A 
ATOM     17  C   UNL     1      12.086   8.068  20.451  0.00  0.00    +0.052 A 
ATOM     20  C   UNL     1      11.494   6.897  20.879  0.00  0.00    +0.043 A 
ATOM     21  C   UNL     1      10.617   7.022  21.937  0.00  0.00    +0.116 A 
ATOM     35  H   UNL     1      10.084  10.504  23.441  0.00  0.00    +0.149 HD
BRANCH  17  16
ATOM     16  C   UNL     1      13.049   8.031  19.312  0.00  0.00    +0.005 C 
ATOM     22  C   UNL     1      14.163   6.965  19.547  0.00  0.00    +0.017 C 
ATOM     23  C   UNL     1      13.750   9.411  19.119  0.00  0.00    +0.017 C 
ATOM     24  C   UNL     1      12.426   7.683  17.919  0.00  0.00    +0.017 C 
ENDBRANCH  17  16
ENDBRANCH  10   4
BRANCH   9   3
ATOM      3  N   UNL     1      15.390  12.287  23.991  0.00  0.00    -0.305 NA
ATOM     34  H   UNL     1      15.141  11.300  24.061  0.00  0.00    +0.123 HD
BRANCH   3  13
ATOM     13  C   UNL     1      16.266  12.486  22.847  0.00  0.00    +0.116 C 
BRANCH  13  15
ATOM     15  C   UNL     1      16.864  11.190  22.367  0.00  0.00    -0.034 A 
ATOM     18  C   UNL     1      16.027  10.160  21.962  0.00  0.00    +0.005 A 
ATOM     19  C   UNL     1      18.245  11.043  22.336  0.00  0.00    +0.005 A 
ATOM     25  C   UNL     1      16.582   8.959  21.516  0.00  0.00    +0.009 A 
ATOM     26  C   UNL     1      18.798   9.843  21.891  0.00  0.00    +0.009 A 
ATOM     27  C   UNL     1      17.967   8.801  21.482  0.00  0.00    -0.018 A 
BRANCH  27  28
ATOM     28  C   UNL     1      18.542   7.556  21.020  0.00  0.00    -0.018 A 
ATOM     29  C   UNL     1      17.805   6.716  20.184  0.00  0.00    +0.008 A 
ATOM     30  C   UNL     1      19.831   7.195  21.409  0.00  0.00    +0.008 A 
ATOM     31  C   UNL     1      18.358   5.516  19.738  0.00  0.00    +0.001 A 
ATOM     32  C   UNL     1      20.385   5.995  20.963  0.00  0.00    +0.001 A 
ATOM     33  C   UNL     1      19.648   5.156  20.127  0.00  0.00    +0.000 A 
ENDBRANCH  27  28
ENDBRANCH  13  15
ENDBRANCH   3  13
ENDBRANCH   9   3
TORSDOF 6
ENDMDL
MODEL 4
REMARK VINA RESULT:      -7.4     26.506     29.555
REMARK  Name = 11912954
REMARK  9 active torsions:
REMARK  status: ('A' for Active; 'I' for Inactive)
REMARK    1  A    between atoms: N_3  and  C_9
REMARK    2  A    between atoms: N_3  and  C_13
REMARK    3  A    between atoms: N_4  and  C_10
REMARK    4  A    between atoms: C_13  and  C_15
REMARK    5  A    between atoms: C_16  and  C_17
REMARK    6  A    between atoms: C_16  and  C_22
REMARK    7  A    between atoms: C_16  and  C_23
REMARK    8  A    between atoms: C_16  and  C_24
REMARK    9  A    between atoms: C_27  and  C_28
REMARK                            x       y       z     vdW  Elec       q    Type
REMARK                         _______ _______ _______ _____ _____    ______ ____
ROOT
ATOM      1  O   UNL     1      13.068   9.920  21.572  0.00  0.00    -0.370 OA
ATOM      2  O   UNL     1      12.319   6.914  21.467  0.00  0.00    -0.370 OA
ATOM      7  C   UNL     1      13.335   7.688  20.805  0.00  0.00    +0.168 C 
ATOM      8  C   UNL     1      12.730   9.041  20.485  0.00  0.00    +0.171 C 
ATOM      9  C   UNL     1      14.461   8.003  21.765  0.00  0.00    +0.111 C 
ATOM     10  C   UNL     1      11.242   8.783  20.467  0.00  0.00    +0.130 C 
ATOM     11  C   UNL     1      13.919   9.222  22.493  0.00  0.00    +0.181 C 
ATOM     12  C   UNL     1      11.088   7.654  21.470  0.00  0.00    +0.185 C 
ENDROOT
BRANCH  10   4
ATOM      4  N   UNL     1      10.830   8.343  19.151  0.00  0.00    -0.306 N 
ATOM      5  N   UNL     1      12.487   9.620  18.086  0.00  0.00    -0.219 NA
ATOM      6  N   UNL     1      10.960   8.263  16.810  0.00  0.00    -0.223 NA
ATOM     14  C   UNL     1      11.444   8.755  17.981  0.00  0.00    +0.216 A 
ATOM     17  C   UNL     1      13.061  10.000  16.927  0.00  0.00    +0.052 A 
ATOM     20  C   UNL     1      12.647   9.560  15.686  0.00  0.00    +0.043 A 
ATOM     21  C   UNL     1      11.580   8.684  15.688  0.00  0.00    +0.116 A 
ATOM     35  H   UNL     1      10.089   7.658  19.064  0.00  0.00    +0.149 HD
BRANCH  17  16
ATOM     16  C   UNL     1      14.208  10.950  17.024  0.00  0.00    +0.005 C 
ATOM     22  C   UNL     1      15.115  10.873  15.759  0.00  0.00    +0.017 C 
ATOM     23  C   UNL     1      15.100  10.634  18.264  0.00  0.00    +0.017 C 
ATOM     24  C   UNL     1      13.817  12.459  17.166  0.00  0.00    +0.017 C 
ENDBRANCH  17  16
ENDBRANCH  10   4
BRANCH   9   3
ATOM      3  N   UNL     1      15.673   8.364  21.031  0.00  0.00    -0.305 NA
ATOM     34  H   UNL     1      16.458   8.405  21.682  0.00  0.00    +0.123 HD
BRANCH   3  13
ATOM     13  C   UNL     1      15.957   7.388  19.991  0.00  0.00    +0.116 C 
BRANCH  13  15
ATOM     15  C   UNL     1      17.314   6.759  20.166  0.00  0.00    -0.034 A 
ATOM     18  C   UNL     1      18.195   7.285  21.101  0.00  0.00    +0.005 A 
ATOM     19  C   UNL     1      17.665   5.662  19.391  0.00  0.00    +0.005 A 
ATOM     25  C   UNL     1      19.453   6.702  21.263  0.00  0.00    +0.009 A 
ATOM     26  C   UNL     1      18.921   5.080  19.554  0.00  0.00    +0.009 A 
ATOM     27  C   UNL     1      19.815   5.600  20.489  0.00  0.00    -0.018 A 
BRANCH  27  28
ATOM     28  C   UNL     1      21.119   4.995  20.659  0.00  0.00    -0.018 A 
ATOM     29  C   UNL     1      22.270   5.770  20.518  0.00  0.00    +0.008 A 
ATOM     30  C   UNL     1      21.224   3.638  20.962  0.00  0.00    +0.008 A 
ATOM     31  C   UNL     1      23.526   5.188  20.681  0.00  0.00    +0.001 A 
ATOM     32  C   UNL     1      22.481   3.055  21.124  0.00  0.00    +0.001 A 
ATOM     33  C   UNL     1      23.632   3.831  20.984  0.00  0.00    +0.000 A 
ENDBRANCH  27  28
ENDBRANCH  13  15
ENDBRANCH   3  13
ENDBRANCH   9   3
TORSDOF 6
ENDMDL
MODEL 5
REMARK VINA RESULT:      -7.4     28.283     31.173
REMARK  Name = 11912954
REMARK  9 active torsions:
REMARK  status: ('A' for Active; 'I' for Inactive)
REMARK    1  A    between atoms: N_3  and  C_9
REMARK    2  A    between atoms: N_3  and  C_13
REMARK    3  A    between atoms: N_4  and  C_10
REMARK    4  A    between atoms: C_13  and  C_15
REMARK    5  A    between atoms: C_16  and  C_17
REMARK    6  A    between atoms: C_16  and  C_22
REMARK    7  A    between atoms: C_16  and  C_23
REMARK    8  A    between atoms: C_16  and  C_24
REMARK    9  A    between atoms: C_27  and  C_28
REMARK                            x       y       z     vdW  Elec       q    Type
REMARK                         _______ _______ _______ _____ _____    ______ ____
ROOT
ATOM      1  O   UNL     1      20.857   5.561  22.782  0.00  0.00    -0.370 OA
ATOM      2  O   UNL     1      22.379   6.675  20.323  0.00  0.00    -0.370 OA
ATOM      7  C   UNL     1      21.337   5.693  20.460  0.00  0.00    +0.168 C 
ATOM      8  C   UNL     1      21.612   4.924  21.737  0.00  0.00    +0.171 C 
ATOM      9  C   UNL     1      20.009   6.371  20.714  0.00  0.00    +0.111 C 
ATOM     10  C   UNL     1      23.091   5.117  21.971  0.00  0.00    +0.130 C 
ATOM     11  C   UNL     1      20.063   6.614  22.214  0.00  0.00    +0.181 C 
ATOM     12  C   UNL     1      23.348   6.485  21.366  0.00  0.00    +0.185 C 
ENDROOT
BRANCH  10   4
ATOM      4  N   UNL     1      23.842   4.105  21.259  0.00  0.00    -0.306 N 
ATOM      5  N   UNL     1      23.845   2.654  23.104  0.00  0.00    -0.219 NA
ATOM      6  N   UNL     1      24.915   2.030  21.036  0.00  0.00    -0.223 NA
ATOM     14  C   UNL     1      24.212   2.894  21.817  0.00  0.00    +0.216 A 
ATOM     17  C   UNL     1      24.221   1.464  23.615  0.00  0.00    +0.052 A 
ATOM     20  C   UNL     1      24.936   0.518  22.908  0.00  0.00    +0.043 A 
ATOM     21  C   UNL     1      25.259   0.859  21.611  0.00  0.00    +0.116 A 
ATOM     35  H   UNL     1      24.075   4.252  20.284  0.00  0.00    +0.149 HD
BRANCH  17  16
ATOM     16  C   UNL     1      23.828   1.184  25.027  0.00  0.00    +0.005 C 
ATOM     22  C   UNL     1      23.685  -0.348  25.281  0.00  0.00    +0.017 C 
ATOM     23  C   UNL     1      22.460   1.848  25.374  0.00  0.00    +0.017 C 
ATOM     24  C   UNL     1      24.828   1.697  26.115  0.00  0.00    +0.017 C 
ENDBRANCH  17  16
ENDBRANCH  10   4
BRANCH   9   3
ATOM      3  N   UNL     1      18.903   5.468  20.399  0.00  0.00    -0.305 NA
ATOM     34  H   UNL     1      18.345   5.317  21.240  0.00  0.00    +0.123 HD
BRANCH   3  13
ATOM     13  C   UNL     1      18.062   6.026  19.352  0.00  0.00    +0.116 C 
BRANCH  13  15
ATOM     15  C   UNL     1      16.719   6.454  19.881  0.00  0.00    -0.034 A 
ATOM     18  C   UNL     1      16.549   6.640  21.245  0.00  0.00    +0.005 A 
ATOM     19  C   UNL     1      15.668   6.656  18.995  0.00  0.00    +0.005 A 
ATOM     25  C   UNL     1      15.303   7.037  21.735  0.00  0.00    +0.009 A 
ATOM     26  C   UNL     1      14.424   7.052  19.484  0.00  0.00    +0.009 A 
ATOM     27  C   UNL     1      14.242   7.242  20.854  0.00  0.00    -0.018 A 
BRANCH  27  28
ATOM     28  C   UNL     1      12.951   7.654  21.362  0.00  0.00    -0.018 A 
ATOM     29  C   UNL     1      12.787   8.933  21.893  0.00  0.00    +0.008 A 
ATOM     30  C   UNL     1      11.870   6.773  21.320  0.00  0.00    +0.008 A 
ATOM     31  C   UNL     1      11.543   9.331  22.382  0.00  0.00    +0.001 A 
ATOM     32  C   UNL     1      10.626   7.170  21.809  0.00  0.00    +0.001 A 
ATOM     33  C   UNL     1      10.463   8.450  22.340  0.00  0.00    +0.000 A 
ENDBRANCH  27  28
ENDBRANCH  13  15
ENDBRANCH   3  13
ENDBRANCH   9   3
TORSDOF 6
ENDMDL
MODEL 6
REMARK VINA RESULT:      -7.4     28.504     31.652
REMARK  Name = 11912954
REMARK  9 active torsions:
REMARK  status: ('A' for Active; 'I' for Inactive)
REMARK    1  A    between atoms: N_3  and  C_9
REMARK    2  A    between atoms: N_3  and  C_13
REMARK    3  A    between atoms: N_4  and  C_10
REMARK    4  A    between atoms: C_13  and  C_15
REMARK    5  A    between atoms: C_16  and  C_17
REMARK    6  A    between atoms: C_16  and  C_22
REMARK    7  A    between atoms: C_16  and  C_23
REMARK    8  A    between atoms: C_16  and  C_24
REMARK    9  A    between atoms: C_27  and  C_28
REMARK                            x       y       z     vdW  Elec       q    Type
REMARK                         _______ _______ _______ _____ _____    ______ ____
ROOT
ATOM      1  O   UNL     1      19.608   6.530  20.112  0.00  0.00    -0.370 OA
ATOM      2  O   UNL     1      19.515   8.388  22.592  0.00  0.00    -0.370 OA
ATOM      7  C   UNL     1      19.524   6.956  22.448  0.00  0.00    +0.168 C 
ATOM      8  C   UNL     1      18.697   6.625  21.221  0.00  0.00    +0.171 C 
ATOM      9  C   UNL     1      20.914   6.473  22.099  0.00  0.00    +0.111 C 
ATOM     10  C   UNL     1      17.794   7.824  21.051  0.00  0.00    +0.130 C 
ATOM     11  C   UNL     1      20.951   6.688  20.594  0.00  0.00    +0.181 C 
ATOM     12  C   UNL     1      18.638   8.957  21.607  0.00  0.00    +0.185 C 
ENDROOT
BRANCH  10   4
ATOM      4  N   UNL     1      16.594   7.658  21.843  0.00  0.00    -0.306 N 
ATOM      5  N   UNL     1      15.196   8.202  20.039  0.00  0.00    -0.219 NA
ATOM      6  N   UNL     1      14.275   7.652  22.196  0.00  0.00    -0.223 NA
ATOM     14  C   UNL     1      15.317   7.843  21.344  0.00  0.00    +0.216 A 
ATOM     17  C   UNL     1      13.938   8.373  19.585  0.00  0.00    +0.052 A 
ATOM     20  C   UNL     1      12.812   8.204  20.366  0.00  0.00    +0.043 A 
ATOM     21  C   UNL     1      13.044   7.840  21.677  0.00  0.00    +0.116 A 
ATOM     35  H   UNL     1      16.671   7.340  22.803  0.00  0.00    +0.149 HD
BRANCH  17  16
ATOM     16  C   UNL     1      13.787   8.767  18.154  0.00  0.00    +0.005 C 
ATOM     22  C   UNL     1      14.262   7.629  17.201  0.00  0.00    +0.017 C 
ATOM     23  C   UNL     1      14.629  10.038  17.827  0.00  0.00    +0.017 C 
ATOM     24  C   UNL     1      12.328   9.107  17.703  0.00  0.00    +0.017 C 
ENDBRANCH  17  16
ENDBRANCH  10   4
BRANCH   9   3
ATOM      3  N   UNL     1      21.053   5.050  22.398  0.00  0.00    -0.305 NA
ATOM     34  H   UNL     1      20.129   4.653  22.572  0.00  0.00    +0.123 HD
BRANCH   3  13
ATOM     13  C   UNL     1      21.681   4.347  21.291  0.00  0.00    +0.116 C 
BRANCH  13  15
ATOM     15  C   UNL     1      22.601   3.256  21.768  0.00  0.00    -0.034 A 
ATOM     18  C   UNL     1      22.635   2.932  23.118  0.00  0.00    +0.005 A 
ATOM     19  C   UNL     1      23.404   2.588  20.853  0.00  0.00    +0.005 A 
ATOM     25  C   UNL     1      23.488   1.920  23.560  0.00  0.00    +0.009 A 
ATOM     26  C   UNL     1      24.257   1.577  21.296  0.00  0.00    +0.009 A 
ATOM     27  C   UNL     1      24.299   1.244  22.649  0.00  0.00    -0.018 A 
BRANCH  27  28
ATOM     28  C   UNL     1      25.183   0.194  23.108  0.00  0.00    -0.018 A 
ATOM     29  C   UNL     1      25.965  -0.509  22.191  0.00  0.00    +0.008 A 
ATOM     30  C   UNL     1      25.253  -0.116  24.466  0.00  0.00    +0.008 A 
ATOM     31  C   UNL     1      26.817  -1.520  22.633  0.00  0.00    +0.001 A 
ATOM     32  C   UNL     1      26.105  -1.128  24.907  0.00  0.00    +0.001 A 
ATOM     33  C   UNL     1      26.888  -1.830  23.990  0.00  0.00    +0.000 A 
ENDBRANCH  27  28
ENDBRANCH  13  15
ENDBRANCH   3  13
ENDBRANCH   9   3
TORSDOF 6
ENDMDL
MODEL 7
REMARK VINA RESULT:      -7.3      4.714      8.823
REMARK  Name = 11912954
REMARK  9 active torsions:
REMARK  status: ('A' for Active; 'I' for Inactive)
REMARK    1  A    between atoms: N_3  and  C_9
REMARK    2  A    between atoms: N_3  and  C_13
REMARK    3  A    between atoms: N_4  and  C_10
REMARK    4  A    between atoms: C_13  and  C_15
REMARK    5  A    between atoms: C_16  and  C_17
REMARK    6  A    between atoms: C_16  and  C_22
REMARK    7  A    between atoms: C_16  and  C_23
REMARK    8  A    between atoms: C_16  and  C_24
REMARK    9  A    between atoms: C_27  and  C_28
REMARK                            x       y       z     vdW  Elec       q    Type
REMARK                         _______ _______ _______ _____ _____    ______ ____
ROOT
ATOM      1  O   UNL     1      -4.967  -9.094  11.049  0.00  0.00    -0.370 OA
ATOM      2  O   UNL     1      -7.614 -10.706  10.995  0.00  0.00    -0.370 OA
ATOM      7  C   UNL     1      -7.316  -9.315  10.777  0.00  0.00    +0.168 C 
ATOM      8  C   UNL     1      -6.215  -8.935  11.747  0.00  0.00    +0.171 C 
ATOM      9  C   UNL     1      -6.691  -9.121   9.412  0.00  0.00    +0.111 C 
ATOM     10  C   UNL     1      -6.327  -9.960  12.850  0.00  0.00    +0.130 C 
ATOM     11  C   UNL     1      -5.234  -9.455   9.686  0.00  0.00    +0.181 C 
ATOM     12  C   UNL     1      -6.856 -11.181  12.118  0.00  0.00    +0.185 C 
ENDROOT
BRANCH  10   4
ATOM      4  N   UNL     1      -7.285  -9.518  13.842  0.00  0.00    -0.306 N 
ATOM      5  N   UNL     1      -6.074 -10.489  15.602  0.00  0.00    -0.219 NA
ATOM      6  N   UNL     1      -8.129  -9.302  16.020  0.00  0.00    -0.223 NA
ATOM     14  C   UNL     1      -7.159  -9.778  15.195  0.00  0.00    +0.216 A 
ATOM     17  C   UNL     1      -5.983 -10.723  16.927  0.00  0.00    +0.052 A 
ATOM     20  C   UNL     1      -6.912 -10.285  17.849  0.00  0.00    +0.043 A 
ATOM     21  C   UNL     1      -7.975  -9.572  17.333  0.00  0.00    +0.116 A 
ATOM     35  H   UNL     1      -8.068  -8.943  13.556  0.00  0.00    +0.149 HD
BRANCH  17  16
ATOM     16  C   UNL     1      -4.799 -11.504  17.392  0.00  0.00    +0.005 C 
ATOM     22  C   UNL     1      -4.896 -12.996  16.950  0.00  0.00    +0.017 C 
ATOM     23  C   UNL     1      -4.681 -11.479  18.947  0.00  0.00    +0.017 C 
ATOM     24  C   UNL     1      -3.415 -11.001  16.861  0.00  0.00    +0.017 C 
ENDBRANCH  17  16
ENDBRANCH  10   4
BRANCH   9   3
ATOM      3  N   UNL     1      -6.808  -7.728   8.988  0.00  0.00    -0.305 NA
ATOM     34  H   UNL     1      -5.919  -7.423   8.590  0.00  0.00    +0.123 HD
BRANCH   3  13
ATOM     13  C   UNL     1      -7.861  -7.576   7.997  0.00  0.00    +0.116 C 
BRANCH  13  15
ATOM     15  C   UNL     1      -9.008  -6.753   8.519  0.00  0.00    -0.034 A 
ATOM     18  C   UNL     1     -10.067  -7.384   9.157  0.00  0.00    +0.005 A 
ATOM     19  C   UNL     1      -8.992  -5.374   8.354  0.00  0.00    +0.005 A 
ATOM     25  C   UNL     1     -11.131  -6.621   9.641  0.00  0.00    +0.009 A 
ATOM     26  C   UNL     1     -10.055  -4.612   8.838  0.00  0.00    +0.009 A 
ATOM     27  C   UNL     1     -11.124  -5.235   9.481  0.00  0.00    -0.018 A 
BRANCH  27  28
ATOM     28  C   UNL     1     -12.227  -4.444   9.983  0.00  0.00    -0.018 A 
ATOM     29  C   UNL     1     -12.320  -4.165  11.347  0.00  0.00    +0.008 A 
ATOM     30  C   UNL     1     -13.196  -3.960   9.105  0.00  0.00    +0.008 A 
ATOM     31  C   UNL     1     -13.381  -3.403  11.832  0.00  0.00    +0.001 A 
ATOM     32  C   UNL     1     -14.259  -3.198   9.591  0.00  0.00    +0.001 A 
ATOM     33  C   UNL     1     -14.351  -2.919  10.954  0.00  0.00    +0.000 A 
ENDBRANCH  27  28
ENDBRANCH  13  15
ENDBRANCH   3  13
ENDBRANCH   9   3
TORSDOF 6
ENDMDL
MODEL 8
REMARK VINA RESULT:      -7.3     27.580     30.414
REMARK  Name = 11912954
REMARK  9 active torsions:
REMARK  status: ('A' for Active; 'I' for Inactive)
REMARK    1  A    between atoms: N_3  and  C_9
REMARK    2  A    between atoms: N_3  and  C_13
REMARK    3  A    between atoms: N_4  and  C_10
REMARK    4  A    between atoms: C_13  and  C_15
REMARK    5  A    between atoms: C_16  and  C_17
REMARK    6  A    between atoms: C_16  and  C_22
REMARK    7  A    between atoms: C_16  and  C_23
REMARK    8  A    between atoms: C_16  and  C_24
REMARK    9  A    between atoms: C_27  and  C_28
REMARK                            x       y       z     vdW  Elec       q    Type
REMARK                         _______ _______ _______ _____ _____    ______ ____
ROOT
ATOM      1  O   UNL     1      12.607   9.277  19.491  0.00  0.00    -0.370 OA
ATOM      2  O   UNL     1      11.513   7.337  17.334  0.00  0.00    -0.370 OA
ATOM      7  C   UNL     1      12.750   7.380  18.068  0.00  0.00    +0.168 C 
ATOM      8  C   UNL     1      13.128   8.840  18.223  0.00  0.00    +0.171 C 
ATOM      9  C   UNL     1      12.534   6.900  19.486  0.00  0.00    +0.111 C 
ATOM     10  C   UNL     1      12.399   9.531  17.095  0.00  0.00    +0.130 C 
ATOM     11  C   UNL     1      12.015   8.157  20.166  0.00  0.00    +0.181 C 
ATOM     12  C   UNL     1      11.163   8.667  16.920  0.00  0.00    +0.185 C 
ENDROOT
BRANCH  10   4
ATOM      4  N   UNL     1      13.204   9.502  15.893  0.00  0.00    -0.306 N 
ATOM      5  N   UNL     1      14.647  11.172  16.689  0.00  0.00    -0.219 NA
ATOM      6  N   UNL     1      14.981  10.179  14.519  0.00  0.00    -0.223 NA
ATOM     14  C   UNL     1      14.310  10.309  15.694  0.00  0.00    +0.216 A 
ATOM     17  C   UNL     1      15.731  11.943  16.462  0.00  0.00    +0.052 A 
ATOM     20  C   UNL     1      16.480  11.890  15.305  0.00  0.00    +0.043 A 
ATOM     21  C   UNL     1      16.055  10.981  14.358  0.00  0.00    +0.116 A 
ATOM     35  H   UNL     1      12.993   8.826  15.168  0.00  0.00    +0.149 HD
BRANCH  17  16
ATOM     16  C   UNL     1      16.115  12.897  17.543  0.00  0.00    +0.005 C 
ATOM     22  C   UNL     1      17.643  13.206  17.508  0.00  0.00    +0.017 C 
ATOM     23  C   UNL     1      15.783  12.317  18.953  0.00  0.00    +0.017 C 
ATOM     24  C   UNL     1      15.406  14.291  17.489  0.00  0.00    +0.017 C 
ENDBRANCH  17  16
ENDBRANCH  10   4
BRANCH   9   3
ATOM      3  N   UNL     1      13.804   6.500  20.091  0.00  0.00    -0.305 NA
ATOM     34  H   UNL     1      14.560   6.675  19.428  0.00  0.00    +0.123 HD
BRANCH   3  13
ATOM     13  C   UNL     1      14.051   7.245  21.315  0.00  0.00    +0.116 C 
BRANCH  13  15
ATOM     15  C   UNL     1      15.387   7.939  21.289  0.00  0.00    -0.034 A 
ATOM     18  C   UNL     1      16.528   7.213  20.975  0.00  0.00    +0.005 A 
ATOM     19  C   UNL     1      15.460   9.294  21.580  0.00  0.00    +0.005 A 
ATOM     25  C   UNL     1      17.766   7.856  20.951  0.00  0.00    +0.009 A 
ATOM     26  C   UNL     1      16.698   9.936  21.556  0.00  0.00    +0.009 A 
ATOM     27  C   UNL     1      17.851   9.217  21.242  0.00  0.00    -0.018 A 
BRANCH  27  28
ATOM     28  C   UNL     1      19.135   9.884  21.217  0.00  0.00    -0.018 A 
ATOM     29  C   UNL     1      19.222  11.211  20.797  0.00  0.00    +0.008 A 
ATOM     30  C   UNL     1      20.285   9.200  21.611  0.00  0.00    +0.008 A 
ATOM     31  C   UNL     1      20.459  11.854  20.772  0.00  0.00    +0.001 A 
ATOM     32  C   UNL     1      21.522   9.844  21.586  0.00  0.00    +0.001 A 
ATOM     33  C   UNL     1      21.609  11.171  21.167  0.00  0.00    +0.000 A 
ENDBRANCH  27  28
ENDBRANCH  13  15
ENDBRANCH   3  13
ENDBRANCH   9   3
TORSDOF 6
ENDMDL
MODEL 9
REMARK VINA RESULT:      -7.1     23.317     26.968
REMARK  Name = 11912954
REMARK  9 active torsions:
REMARK  status: ('A' for Active; 'I' for Inactive)
REMARK    1  A    between atoms: N_3  and  C_9
REMARK    2  A    between atoms: N_3  and  C_13
REMARK    3  A    between atoms: N_4  and  C_10
REMARK    4  A    between atoms: C_13  and  C_15
REMARK    5  A    between atoms: C_16  and  C_17
REMARK    6  A    between atoms: C_16  and  C_22
REMARK    7  A    between atoms: C_16  and  C_23
REMARK    8  A    between atoms: C_16  and  C_24
REMARK    9  A    between atoms: C_27  and  C_28
REMARK                            x       y       z     vdW  Elec       q    Type
REMARK                         _______ _______ _______ _____ _____    ______ ____
ROOT
ATOM      1  O   UNL     1      10.120   6.887  -4.181  0.00  0.00    -0.370 OA
ATOM      2  O   UNL     1       8.636   4.167  -4.100  0.00  0.00    -0.370 OA
ATOM      7  C   UNL     1       8.218   5.513  -3.813  0.00  0.00    +0.168 C 
ATOM      8  C   UNL     1       9.385   6.212  -3.145  0.00  0.00    +0.171 C 
ATOM      9  C   UNL     1       8.011   6.283  -5.099  0.00  0.00    +0.111 C 
ATOM     10  C   UNL     1      10.211   5.084  -2.573  0.00  0.00    +0.130 C 
ATOM     11  C   UNL     1       9.427   6.727  -5.428  0.00  0.00    +0.181 C 
ATOM     12  C   UNL     1       9.943   3.949  -3.546  0.00  0.00    +0.185 C 
ENDROOT
BRANCH  10   4
ATOM      4  N   UNL     1       9.729   4.736  -1.254  0.00  0.00    -0.306 N 
ATOM      5  N   UNL     1      11.901   4.606  -0.375  0.00  0.00    -0.219 NA
ATOM      6  N   UNL     1       9.978   4.187   1.014  0.00  0.00    -0.223 NA
ATOM     14  C   UNL     1      10.561   4.502  -0.173  0.00  0.00    +0.216 A 
ATOM     17  C   UNL     1      12.683   4.372   0.699  0.00  0.00    +0.052 A 
ATOM     20  C   UNL     1      12.192   4.044   1.946  0.00  0.00    +0.043 A 
ATOM     21  C   UNL     1      10.818   3.965   2.046  0.00  0.00    +0.116 A 
ATOM     35  H   UNL     1       8.731   4.708  -1.079  0.00  0.00    +0.149 HD
BRANCH  17  16
ATOM     16  C   UNL     1      14.157   4.480   0.494  0.00  0.00    +0.005 C 
ATOM     22  C   UNL     1      14.557   4.082  -0.960  0.00  0.00    +0.017 C 
ATOM     23  C   UNL     1      14.933   3.543   1.469  0.00  0.00    +0.017 C 
ATOM     24  C   UNL     1      14.761   5.906   0.718  0.00  0.00    +0.017 C 
ENDBRANCH  17  16
ENDBRANCH  10   4
BRANCH   9   3
ATOM      3  N   UNL     1       7.167   7.454  -4.865  0.00  0.00    -0.305 NA
ATOM     34  H   UNL     1       7.740   8.296  -4.925  0.00  0.00    +0.123 HD
BRANCH   3  13
ATOM     13  C   UNL     1       6.097   7.524  -5.847  0.00  0.00    +0.116 C 
BRANCH  13  15
ATOM     15  C   UNL     1       5.089   6.422  -5.658  0.00  0.00    -0.034 A 
ATOM     18  C   UNL     1       4.890   5.496  -6.673  0.00  0.00    +0.005 A 
ATOM     19  C   UNL     1       4.373   6.346  -4.471  0.00  0.00    +0.005 A 
ATOM     25  C   UNL     1       3.956   4.474  -6.497  0.00  0.00    +0.009 A 
ATOM     26  C   UNL     1       3.440   5.325  -4.296  0.00  0.00    +0.009 A 
ATOM     27  C   UNL     1       3.231   4.390  -5.309  0.00  0.00    -0.018 A 
BRANCH  27  28
ATOM     28  C   UNL     1       2.263   3.330  -5.126  0.00  0.00    -0.018 A 
ATOM     29  C   UNL     1       1.041   3.601  -4.510  0.00  0.00    +0.008 A 
ATOM     30  C   UNL     1       2.550   2.038  -5.566  0.00  0.00    +0.008 A 
ATOM     31  C   UNL     1       0.107   2.580  -4.334  0.00  0.00    +0.001 A 
ATOM     32  C   UNL     1       1.616   1.017  -5.389  0.00  0.00    +0.001 A 
ATOM     33  C   UNL     1       0.395   1.288  -4.773  0.00  0.00    +0.000 A 
ENDBRANCH  27  28
ENDBRANCH  13  15
ENDBRANCH   3  13
ENDBRANCH   9   3
TORSDOF 6
ENDMDL
MODEL 10
REMARK VINA RESULT:      -7.0     28.747     31.730
REMARK  Name = 11912954
REMARK  9 active torsions:
REMARK  status: ('A' for Active; 'I' for Inactive)
REMARK    1  A    between atoms: N_3  and  C_9
REMARK    2  A    between atoms: N_3  and  C_13
REMARK    3  A    between atoms: N_4  and  C_10
REMARK    4  A    between atoms: C_13  and  C_15
REMARK    5  A    between atoms: C_16  and  C_17
REMARK    6  A    between atoms: C_16  and  C_22
REMARK    7  A    between atoms: C_16  and  C_23
REMARK    8  A    between atoms: C_16  and  C_24
REMARK    9  A    between atoms: C_27  and  C_28
REMARK                            x       y       z     vdW  Elec       q    Type
REMARK                         _______ _______ _______ _____ _____    ______ ____
ROOT
ATOM      1  O   UNL     1      21.361   5.937  24.386  0.00  0.00    -0.370 OA
ATOM      2  O   UNL     1      22.623   7.609  22.100  0.00  0.00    -0.370 OA
ATOM      7  C   UNL     1      21.481   6.735  22.152  0.00  0.00    +0.168 C 
ATOM      8  C   UNL     1      21.836   5.586  23.075  0.00  0.00    +0.171 C 
ATOM      9  C   UNL     1      20.326   7.424  22.846  0.00  0.00    +0.111 C 
ATOM     10  C   UNL     1      23.346   5.557  23.060  0.00  0.00    +0.130 C 
ATOM     11  C   UNL     1      20.653   7.184  24.311  0.00  0.00    +0.181 C 
ATOM     12  C   UNL     1      23.706   7.015  22.834  0.00  0.00    +0.185 C 
ENDROOT
BRANCH  10   4
ATOM      4  N   UNL     1      23.816   4.749  21.955  0.00  0.00    -0.306 N 
ATOM      5  N   UNL     1      23.986   2.826  23.290  0.00  0.00    -0.219 NA
ATOM      6  N   UNL     1      24.557   2.762  20.950  0.00  0.00    -0.223 NA
ATOM     14  C   UNL     1      24.129   3.406  22.068  0.00  0.00    +0.216 A 
ATOM     17  C   UNL     1      24.300   1.517  23.365  0.00  0.00    +0.052 A 
ATOM     20  C   UNL     1      24.743   0.772  22.291  0.00  0.00    +0.043 A 
ATOM     21  C   UNL     1      24.854   1.454  21.096  0.00  0.00    +0.116 A 
ATOM     35  H   UNL     1      23.876   5.157  21.029  0.00  0.00    +0.149 HD
BRANCH  17  16
ATOM     16  C   UNL     1      24.149   0.865  24.698  0.00  0.00    +0.005 C 
ATOM     22  C   UNL     1      22.653   0.552  25.009  0.00  0.00    +0.017 C 
ATOM     23  C   UNL     1      24.685   1.783  25.840  0.00  0.00    +0.017 C 
ATOM     24  C   UNL     1      24.903  -0.495  24.869  0.00  0.00    +0.017 C 
ENDBRANCH  17  16
ENDBRANCH  10   4
BRANCH   9   3
ATOM      3  N   UNL     1      19.062   6.770  22.508  0.00  0.00    -0.305 NA
ATOM     34  H   UNL     1      18.289   7.344  22.845  0.00  0.00    +0.123 HD
BRANCH   3  13
ATOM     13  C   UNL     1      18.942   6.589  21.070  0.00  0.00    +0.116 C 
BRANCH  13  15
ATOM     15  C   UNL     1      17.571   6.958  20.571  0.00  0.00    -0.034 A 
ATOM     18  C   UNL     1      17.016   6.253  19.513  0.00  0.00    +0.005 A 
ATOM     19  C   UNL     1      16.880   8.000  21.177  0.00  0.00    +0.005 A 
ATOM     25  C   UNL     1      15.744   6.596  19.050  0.00  0.00    +0.009 A 
ATOM     26  C   UNL     1      15.609   8.342  20.715  0.00  0.00    +0.009 A 
ATOM     27  C   UNL     1      15.042   7.640  19.651  0.00  0.00    -0.018 A 
BRANCH  27  28
ATOM     28  C   UNL     1      13.723   7.995  19.172  0.00  0.00    -0.018 A 
ATOM     29  C   UNL     1      13.498   8.155  17.805  0.00  0.00    +0.008 A 
ATOM     30  C   UNL     1      12.677   8.177  20.077  0.00  0.00    +0.008 A 
ATOM     31  C   UNL     1      12.228   8.496  17.343  0.00  0.00    +0.001 A 
ATOM     32  C   UNL     1      11.407   8.519  19.614  0.00  0.00    +0.001 A 
ATOM     33  C   UNL     1      11.182   8.678  18.247  0.00  0.00    +0.000 A 
ENDBRANCH  27  28
ENDBRANCH  13  15
ENDBRANCH   3  13
ENDBRANCH   9   3
TORSDOF 6
ENDMDL
