MODEL 1
REMARK VINA RESULT:      -7.0      0.000      0.000
REMARK  Name = 51137148
REMARK  5 active torsions:
REMARK  status: ('A' for Active; 'I' for Inactive)
REMARK    1  A    between atoms: O_3  and  C_15
REMARK    2  A    between atoms: O_3  and  C_24
REMARK    3  A    between atoms: N_4  and  C_10
REMARK    4  A    between atoms: C_6  and  C_11
REMARK    5  A    between atoms: C_10  and  C_12
REMARK                            x       y       z     vdW  Elec       q    Type
REMARK                         _______ _______ _______ _____ _____    ______ ____
ROOT
ATOM      4  N   UNL     1      12.092   4.201   1.745  0.00  0.00    -0.297 NA
ATOM      6  C   UNL     1      10.553   5.105   3.266  0.00  0.00    +0.090 C 
ATOM      7  C   UNL     1      11.503   6.211   2.777  0.00  0.00    +0.029 C 
ATOM      8  C   UNL     1      11.245   3.795   2.868  0.00  0.00    +0.097 C 
ATOM      9  C   UNL     1      12.684   5.473   2.162  0.00  0.00    +0.085 C 
ENDROOT
BRANCH   6  11
ATOM      1  F   UNL     1       9.008   4.773  10.317  0.00  0.00    -0.205 F 
ATOM      2  O   UNL     1       9.885   6.398   5.222  0.00  0.00    -0.439 OA
ATOM      5  N   UNL     1      10.179   4.185   5.611  0.00  0.00    -0.213 NA
ATOM     11  C   UNL     1      10.208   5.167   4.737  0.00  0.00    +0.201 A 
ATOM     13  C   UNL     1       9.807   4.811   6.776  0.00  0.00    +0.112 A 
ATOM     14  C   UNL     1       9.625   6.165   6.542  0.00  0.00    +0.156 A 
ATOM     17  C   UNL     1       9.598   4.313   8.071  0.00  0.00    +0.070 A 
ATOM     18  C   UNL     1       9.247   7.092   7.505  0.00  0.00    +0.051 A 
ATOM     22  C   UNL     1       9.215   5.219   9.070  0.00  0.00    +0.126 A 
ATOM     23  C   UNL     1       9.043   6.580   8.790  0.00  0.00    +0.042 A 
ENDBRANCH   6  11
BRANCH   4  10
ATOM     10  C   UNL     1      13.098   3.202   1.418  0.00  0.00    +0.123 C 
BRANCH  10  12
ATOM     12  C   UNL     1      13.996   3.656   0.298  0.00  0.00    +0.008 A 
ATOM     15  C   UNL     1      13.511   3.758  -1.006  0.00  0.00    +0.124 A 
ATOM     16  C   UNL     1      15.324   3.974   0.575  0.00  0.00    +0.008 A 
ATOM     19  C   UNL     1      14.356   4.180  -2.033  0.00  0.00    +0.046 A 
ATOM     20  C   UNL     1      16.170   4.396  -0.452  0.00  0.00    +0.001 A 
ATOM     21  C   UNL     1      15.685   4.499  -1.755  0.00  0.00    +0.004 A 
BRANCH  15   3
ATOM      3  O   UNL     1      12.215   3.451  -1.295  0.00  0.00    -0.495 OA
ATOM     24  C   UNL     1      11.991   2.504  -2.338  0.00  0.00    +0.277 C 
ENDBRANCH  15   3
ENDBRANCH  10  12
ENDBRANCH   4  10
TORSDOF 4
ENDMDL
MODEL 2
REMARK VINA RESULT:      -7.0     17.421     21.538
REMARK  Name = 51137148
REMARK  5 active torsions:
REMARK  status: ('A' for Active; 'I' for Inactive)
REMARK    1  A    between atoms: O_3  and  C_15
REMARK    2  A    between atoms: O_3  and  C_24
REMARK    3  A    between atoms: N_4  and  C_10
REMARK    4  A    between atoms: C_6  and  C_11
REMARK    5  A    between atoms: C_10  and  C_12
REMARK                            x       y       z     vdW  Elec       q    Type
REMARK                         _______ _______ _______ _____ _____    ______ ____
ROOT
ATOM      4  N   UNL     1      11.254  10.541  22.843  0.00  0.00    -0.297 NA
ATOM      6  C   UNL     1      12.580   9.836  21.042  0.00  0.00    +0.090 C 
ATOM      7  C   UNL     1      11.213   9.132  20.981  0.00  0.00    +0.029 C 
ATOM      8  C   UNL     1      12.662  10.402  22.465  0.00  0.00    +0.097 C 
ATOM      9  C   UNL     1      10.616   9.312  22.370  0.00  0.00    +0.085 C 
ENDROOT
BRANCH   6  11
ATOM      1  F   UNL     1      17.856   5.393  18.890  0.00  0.00    -0.205 F 
ATOM      2  O   UNL     1      14.891   9.160  21.417  0.00  0.00    -0.439 OA
ATOM      5  N   UNL     1      13.839   8.033  19.758  0.00  0.00    -0.213 NA
ATOM     11  C   UNL     1      13.761   8.962  20.685  0.00  0.00    +0.201 A 
ATOM     13  C   UNL     1      15.127   7.572  19.880  0.00  0.00    +0.112 A 
ATOM     14  C   UNL     1      15.775   8.260  20.895  0.00  0.00    +0.156 A 
ATOM     17  C   UNL     1      15.829   6.581  19.179  0.00  0.00    +0.070 A 
ATOM     18  C   UNL     1      17.091   8.045  21.283  0.00  0.00    +0.051 A 
ATOM     22  C   UNL     1      17.160   6.334  19.542  0.00  0.00    +0.126 A 
ATOM     23  C   UNL     1      17.777   7.053  20.574  0.00  0.00    +0.042 A 
ENDBRANCH   6  11
BRANCH   4  10
ATOM     10  C   UNL     1      11.080  10.740  24.274  0.00  0.00    +0.123 C 
BRANCH  10  12
ATOM     12  C   UNL     1      11.160  12.195  24.652  0.00  0.00    +0.008 A 
ATOM     15  C   UNL     1      12.183  12.661  25.477  0.00  0.00    +0.124 A 
ATOM     16  C   UNL     1      10.197  13.079  24.167  0.00  0.00    +0.008 A 
ATOM     19  C   UNL     1      12.243  14.014  25.817  0.00  0.00    +0.046 A 
ATOM     20  C   UNL     1      10.256  14.431  24.507  0.00  0.00    +0.001 A 
ATOM     21  C   UNL     1      11.279  14.898  25.332  0.00  0.00    +0.004 A 
BRANCH  15   3
ATOM      3  O   UNL     1      13.133  11.812  25.960  0.00  0.00    -0.495 OA
ATOM     24  C   UNL     1      14.465  11.992  25.484  0.00  0.00    +0.277 C 
ENDBRANCH  15   3
ENDBRANCH  10  12
ENDBRANCH   4  10
TORSDOF 4
ENDMDL
MODEL 3
REMARK VINA RESULT:      -6.8     22.711     25.513
REMARK  Name = 51137148
REMARK  5 active torsions:
REMARK  status: ('A' for Active; 'I' for Inactive)
REMARK    1  A    between atoms: O_3  and  C_15
REMARK    2  A    between atoms: O_3  and  C_24
REMARK    3  A    between atoms: N_4  and  C_10
REMARK    4  A    between atoms: C_6  and  C_11
REMARK    5  A    between atoms: C_10  and  C_12
REMARK                            x       y       z     vdW  Elec       q    Type
REMARK                         _______ _______ _______ _____ _____    ______ ____
ROOT
ATOM      4  N   UNL     1      -2.099 -10.905  13.798  0.00  0.00    -0.297 NA
ATOM      6  C   UNL     1      -3.301 -10.253  15.703  0.00  0.00    +0.090 C 
ATOM      7  C   UNL     1      -1.885 -10.690  16.113  0.00  0.00    +0.029 C 
ATOM      8  C   UNL     1      -3.478 -10.796  14.278  0.00  0.00    +0.097 C 
ATOM      9  C   UNL     1      -1.353 -11.474  14.921  0.00  0.00    +0.085 C 
ENDROOT
BRANCH   6  11
ATOM      1  F   UNL     1      -8.196 -12.874  20.327  0.00  0.00    -0.205 F 
ATOM      2  O   UNL     1      -5.482  -9.871  16.723  0.00  0.00    -0.439 OA
ATOM      5  N   UNL     1      -4.448 -11.772  17.394  0.00  0.00    -0.213 NA
ATOM     11  C   UNL     1      -4.400 -10.694  16.642  0.00  0.00    +0.201 A 
ATOM     13  C   UNL     1      -5.661 -11.660  18.029  0.00  0.00    +0.112 A 
ATOM     14  C   UNL     1      -6.297 -10.498  17.621  0.00  0.00    +0.156 A 
ATOM     17  C   UNL     1      -6.301 -12.491  18.961  0.00  0.00    +0.070 A 
ATOM     18  C   UNL     1      -7.543 -10.077  18.069  0.00  0.00    +0.051 A 
ATOM     22  C   UNL     1      -7.560 -12.100  19.436  0.00  0.00    +0.126 A 
ATOM     23  C   UNL     1      -8.167 -10.917  18.998  0.00  0.00    +0.042 A 
ENDBRANCH   6  11
BRANCH   4  10
ATOM     10  C   UNL     1      -1.992 -11.716  12.594  0.00  0.00    +0.123 C 
BRANCH  10  12
ATOM     12  C   UNL     1      -2.733 -11.102  11.437  0.00  0.00    +0.008 A 
ATOM     15  C   UNL     1      -3.643 -11.854  10.694  0.00  0.00    +0.124 A 
ATOM     16  C   UNL     1      -2.501  -9.767  11.110  0.00  0.00    +0.008 A 
ATOM     19  C   UNL     1      -4.322 -11.269   9.624  0.00  0.00    +0.046 A 
ATOM     20  C   UNL     1      -3.178  -9.182  10.040  0.00  0.00    +0.001 A 
ATOM     21  C   UNL     1      -4.089  -9.933   9.298  0.00  0.00    +0.004 A 
BRANCH  15   3
ATOM      3  O   UNL     1      -3.883 -13.160  10.999  0.00  0.00    -0.495 OA
ATOM     24  C   UNL     1      -5.171 -13.478  11.522  0.00  0.00    +0.277 C 
ENDBRANCH  15   3
ENDBRANCH  10  12
ENDBRANCH   4  10
TORSDOF 4
ENDMDL
MODEL 4
REMARK VINA RESULT:      -6.8     23.254     26.294
REMARK  Name = 51137148
REMARK  5 active torsions:
REMARK  status: ('A' for Active; 'I' for Inactive)
REMARK    1  A    between atoms: O_3  and  C_15
REMARK    2  A    between atoms: O_3  and  C_24
REMARK    3  A    between atoms: N_4  and  C_10
REMARK    4  A    between atoms: C_6  and  C_11
REMARK    5  A    between atoms: C_10  and  C_12
REMARK                            x       y       z     vdW  Elec       q    Type
REMARK                         _______ _______ _______ _____ _____    ______ ____
ROOT
ATOM      4  N   UNL     1      -4.270 -10.670  14.794  0.00  0.00    -0.297 NA
ATOM      6  C   UNL     1      -5.585  -9.697  16.474  0.00  0.00    +0.090 C 
ATOM      7  C   UNL     1      -4.547 -10.635  17.113  0.00  0.00    +0.029 C 
ATOM      8  C   UNL     1      -5.597 -10.084  14.989  0.00  0.00    +0.097 C 
ATOM      9  C   UNL     1      -4.054 -11.514  15.970  0.00  0.00    +0.085 C 
ENDROOT
BRANCH   6  11
ATOM      1  F   UNL     1     -12.327  -9.484  19.066  0.00  0.00    -0.205 F 
ATOM      2  O   UNL     1      -7.096 -10.585  18.167  0.00  0.00    -0.439 OA
ATOM      5  N   UNL     1      -8.036  -9.073  16.767  0.00  0.00    -0.213 NA
ATOM     11  C   UNL     1      -6.957  -9.742  17.107  0.00  0.00    +0.201 A 
ATOM     13  C   UNL     1      -8.974  -9.503  17.673  0.00  0.00    +0.112 A 
ATOM     14  C   UNL     1      -8.403 -10.429  18.533  0.00  0.00    +0.156 A 
ATOM     17  C   UNL     1     -10.325  -9.165  17.843  0.00  0.00    +0.070 A 
ATOM     18  C   UNL     1      -9.072 -11.066  19.570  0.00  0.00    +0.051 A 
ATOM     22  C   UNL     1     -11.034  -9.787  18.880  0.00  0.00    +0.126 A 
ATOM     23  C   UNL     1     -10.418 -10.718  19.725  0.00  0.00    +0.042 A 
ENDBRANCH   6  11
BRANCH   4  10
ATOM     10  C   UNL     1      -4.170 -11.418  13.550  0.00  0.00    +0.123 C 
BRANCH  10  12
ATOM     12  C   UNL     1      -3.518 -10.610  12.460  0.00  0.00    +0.008 A 
ATOM     15  C   UNL     1      -4.285 -10.026  11.451  0.00  0.00    +0.124 A 
ATOM     16  C   UNL     1      -2.134 -10.449  12.466  0.00  0.00    +0.008 A 
ATOM     19  C   UNL     1      -3.664  -9.280  10.448  0.00  0.00    +0.046 A 
ATOM     20  C   UNL     1      -1.513  -9.704  11.463  0.00  0.00    +0.001 A 
ATOM     21  C   UNL     1      -2.279  -9.119  10.455  0.00  0.00    +0.004 A 
BRANCH  15   3
ATOM      3  O   UNL     1      -5.639 -10.173  11.429  0.00  0.00    -0.495 OA
ATOM     24  C   UNL     1      -6.421  -8.983  11.498  0.00  0.00    +0.277 C 
ENDBRANCH  15   3
ENDBRANCH  10  12
ENDBRANCH   4  10
TORSDOF 4
ENDMDL
MODEL 5
REMARK VINA RESULT:      -6.5      3.583      9.015
REMARK  Name = 51137148
REMARK  5 active torsions:
REMARK  status: ('A' for Active; 'I' for Inactive)
REMARK    1  A    between atoms: O_3  and  C_15
REMARK    2  A    between atoms: O_3  and  C_24
REMARK    3  A    between atoms: N_4  and  C_10
REMARK    4  A    between atoms: C_6  and  C_11
REMARK    5  A    between atoms: C_10  and  C_12
REMARK                            x       y       z     vdW  Elec       q    Type
REMARK                         _______ _______ _______ _____ _____    ______ ____
ROOT
ATOM      4  N   UNL     1      10.653   5.691   4.395  0.00  0.00    -0.297 NA
ATOM      6  C   UNL     1      11.720   4.728   2.542  0.00  0.00    +0.090 C 
ATOM      7  C   UNL     1      12.368   6.086   2.860  0.00  0.00    +0.029 C 
ATOM      8  C   UNL     1      10.393   4.741   3.312  0.00  0.00    +0.097 C 
ATOM      9  C   UNL     1      11.367   6.799   3.760  0.00  0.00    +0.085 C 
ENDROOT
BRANCH   6  11
ATOM      1  F   UNL     1      10.397   3.748  -4.494  0.00  0.00    -0.205 F 
ATOM      2  O   UNL     1      12.415   3.537   0.532  0.00  0.00    -0.439 OA
ATOM      5  N   UNL     1      10.660   4.939   0.237  0.00  0.00    -0.213 NA
ATOM     11  C   UNL     1      11.545   4.436   1.069  0.00  0.00    +0.201 A 
ATOM     13  C   UNL     1      10.963   4.326  -0.955  0.00  0.00    +0.112 A 
ATOM     14  C   UNL     1      12.036   3.466  -0.778  0.00  0.00    +0.156 A 
ATOM     17  C   UNL     1      10.385   4.436  -2.228  0.00  0.00    +0.070 A 
ATOM     18  C   UNL     1      12.601   2.688  -1.780  0.00  0.00    +0.051 A 
ATOM     22  C   UNL     1      10.928   3.665  -3.266  0.00  0.00    +0.126 A 
ATOM     23  C   UNL     1      12.014   2.809  -3.044  0.00  0.00    +0.042 A 
ENDBRANCH   6  11
BRANCH   4  10
ATOM     10  C   UNL     1       9.433   6.125   5.059  0.00  0.00    +0.123 C 
BRANCH  10  12
ATOM     12  C   UNL     1       9.433   5.771   6.522  0.00  0.00    +0.008 A 
ATOM     15  C   UNL     1       9.035   6.703   7.480  0.00  0.00    +0.124 A 
ATOM     16  C   UNL     1       9.837   4.496   6.915  0.00  0.00    +0.008 A 
ATOM     19  C   UNL     1       9.042   6.359   8.833  0.00  0.00    +0.046 A 
ATOM     20  C   UNL     1       9.845   4.152   8.267  0.00  0.00    +0.001 A 
ATOM     21  C   UNL     1       9.447   5.083   9.225  0.00  0.00    +0.004 A 
BRANCH  15   3
ATOM      3  O   UNL     1       8.637   7.954   7.115  0.00  0.00    -0.495 OA
ATOM     24  C   UNL     1       9.341   9.052   7.690  0.00  0.00    +0.277 C 
ENDBRANCH  15   3
ENDBRANCH  10  12
ENDBRANCH   4  10
TORSDOF 4
ENDMDL
MODEL 6
REMARK VINA RESULT:      -6.4     23.545     26.656
REMARK  Name = 51137148
REMARK  5 active torsions:
REMARK  status: ('A' for Active; 'I' for Inactive)
REMARK    1  A    between atoms: O_3  and  C_15
REMARK    2  A    between atoms: O_3  and  C_24
REMARK    3  A    between atoms: N_4  and  C_10
REMARK    4  A    between atoms: C_6  and  C_11
REMARK    5  A    between atoms: C_10  and  C_12
REMARK                            x       y       z     vdW  Elec       q    Type
REMARK                         _______ _______ _______ _____ _____    ______ ____
ROOT
ATOM      4  N   UNL     1      -4.858 -10.525  15.028  0.00  0.00    -0.297 NA
ATOM      6  C   UNL     1      -6.241  -9.559  16.656  0.00  0.00    +0.090 C 
ATOM      7  C   UNL     1      -5.065 -10.276  17.340  0.00  0.00    +0.029 C 
ATOM      8  C   UNL     1      -6.246 -10.103  15.221  0.00  0.00    +0.097 C 
ATOM      9  C   UNL     1      -4.493 -11.201  16.273  0.00  0.00    +0.085 C 
ENDROOT
BRANCH   6  11
ATOM      1  F   UNL     1     -12.322 -10.716  20.384  0.00  0.00    -0.205 F 
ATOM      2  O   UNL     1      -8.608  -9.004  16.827  0.00  0.00    -0.439 OA
ATOM      5  N   UNL     1      -7.865 -10.455  18.400  0.00  0.00    -0.213 NA
ATOM     11  C   UNL     1      -7.574  -9.717  17.352  0.00  0.00    +0.201 A 
ATOM     13  C   UNL     1      -9.204 -10.216  18.593  0.00  0.00    +0.112 A 
ATOM     14  C   UNL     1      -9.663  -9.329  17.631  0.00  0.00    +0.156 A 
ATOM     17  C   UNL     1     -10.106 -10.705  19.549  0.00  0.00    +0.070 A 
ATOM     18  C   UNL     1     -10.971  -8.872  17.534  0.00  0.00    +0.051 A 
ATOM     22  C   UNL     1     -11.437 -10.266  19.484  0.00  0.00    +0.126 A 
ATOM     23  C   UNL     1     -11.858  -9.368  18.496  0.00  0.00    +0.042 A 
ENDBRANCH   6  11
BRANCH   4  10
ATOM     10  C   UNL     1      -4.695 -11.384  13.864  0.00  0.00    +0.123 C 
BRANCH  10  12
ATOM     12  C   UNL     1      -3.902 -10.711  12.776  0.00  0.00    +0.008 A 
ATOM     15  C   UNL     1      -2.513 -10.621  12.860  0.00  0.00    +0.124 A 
ATOM     16  C   UNL     1      -4.571 -10.173  11.678  0.00  0.00    +0.008 A 
ATOM     19  C   UNL     1      -1.793  -9.993  11.842  0.00  0.00    +0.046 A 
ATOM     20  C   UNL     1      -3.851  -9.545  10.661  0.00  0.00    +0.001 A 
ATOM     21  C   UNL     1      -2.463  -9.455  10.743  0.00  0.00    +0.004 A 
BRANCH  15   3
ATOM      3  O   UNL     1      -1.842 -11.140  13.925  0.00  0.00    -0.495 OA
ATOM     24  C   UNL     1      -1.312 -10.214  14.871  0.00  0.00    +0.277 C 
ENDBRANCH  15   3
ENDBRANCH  10  12
ENDBRANCH   4  10
TORSDOF 4
ENDMDL
MODEL 7
REMARK VINA RESULT:      -6.3     26.060     28.814
REMARK  Name = 51137148
REMARK  5 active torsions:
REMARK  status: ('A' for Active; 'I' for Inactive)
REMARK    1  A    between atoms: O_3  and  C_15
REMARK    2  A    between atoms: O_3  and  C_24
REMARK    3  A    between atoms: N_4  and  C_10
REMARK    4  A    between atoms: C_6  and  C_11
REMARK    5  A    between atoms: C_10  and  C_12
REMARK                            x       y       z     vdW  Elec       q    Type
REMARK                         _______ _______ _______ _____ _____    ______ ____
ROOT
ATOM      4  N   UNL     1      -9.137  -9.555  17.246  0.00  0.00    -0.297 NA
ATOM      6  C   UNL     1     -10.520  -7.672  17.043  0.00  0.00    +0.090 C 
ATOM      7  C   UNL     1     -11.283  -8.796  17.765  0.00  0.00    +0.029 C 
ATOM      8  C   UNL     1      -9.314  -8.372  16.402  0.00  0.00    +0.097 C 
ATOM      9  C   UNL     1     -10.490 -10.063  17.471  0.00  0.00    +0.085 C 
ENDROOT
BRANCH   6  11
ATOM      1  F   UNL     1     -13.906  -3.602  12.127  0.00  0.00    -0.205 F 
ATOM      2  O   UNL     1     -12.672  -7.170  16.015  0.00  0.00    -0.439 OA
ATOM      5  N   UNL     1     -10.937  -5.953  15.213  0.00  0.00    -0.213 NA
ATOM     11  C   UNL     1     -11.341  -6.883  16.050  0.00  0.00    +0.201 A 
ATOM     13  C   UNL     1     -12.092  -5.588  14.565  0.00  0.00    +0.112 A 
ATOM     14  C   UNL     1     -13.156  -6.331  15.053  0.00  0.00    +0.156 A 
ATOM     17  C   UNL     1     -12.332  -4.643  13.557  0.00  0.00    +0.070 A 
ATOM     18  C   UNL     1     -14.470  -6.216  14.616  0.00  0.00    +0.051 A 
ATOM     22  C   UNL     1     -13.646  -4.497  13.090  0.00  0.00    +0.126 A 
ATOM     23  C   UNL     1     -14.692  -5.269  13.610  0.00  0.00    +0.042 A 
ENDBRANCH   6  11
BRANCH   4  10
ATOM     10  C   UNL     1      -8.267 -10.549  16.633  0.00  0.00    +0.123 C 
BRANCH  10  12
ATOM     12  C   UNL     1      -7.061 -10.841  17.486  0.00  0.00    +0.008 A 
ATOM     15  C   UNL     1      -5.788 -10.444  17.079  0.00  0.00    +0.124 A 
ATOM     16  C   UNL     1      -7.229 -11.517  18.694  0.00  0.00    +0.008 A 
ATOM     19  C   UNL     1      -4.681 -10.723  17.882  0.00  0.00    +0.046 A 
ATOM     20  C   UNL     1      -6.122 -11.796  19.496  0.00  0.00    +0.001 A 
ATOM     21  C   UNL     1      -4.849 -11.399  19.090  0.00  0.00    +0.004 A 
BRANCH  15   3
ATOM      3  O   UNL     1      -5.606  -9.783  15.902  0.00  0.00    -0.495 OA
ATOM     24  C   UNL     1      -4.881 -10.466  14.880  0.00  0.00    +0.277 C 
ENDBRANCH  15   3
ENDBRANCH  10  12
ENDBRANCH   4  10
TORSDOF 4
ENDMDL
MODEL 8
REMARK VINA RESULT:      -6.2      6.194      9.683
REMARK  Name = 51137148
REMARK  5 active torsions:
REMARK  status: ('A' for Active; 'I' for Inactive)
REMARK    1  A    between atoms: O_3  and  C_15
REMARK    2  A    between atoms: O_3  and  C_24
REMARK    3  A    between atoms: N_4  and  C_10
REMARK    4  A    between atoms: C_6  and  C_11
REMARK    5  A    between atoms: C_10  and  C_12
REMARK                            x       y       z     vdW  Elec       q    Type
REMARK                         _______ _______ _______ _____ _____    ______ ____
ROOT
ATOM      4  N   UNL     1      13.490   7.820   5.953  0.00  0.00    -0.297 NA
ATOM      6  C   UNL     1      15.532   8.760   5.283  0.00  0.00    +0.090 C 
ATOM      7  C   UNL     1      14.740   8.313   4.043  0.00  0.00    +0.029 C 
ATOM      8  C   UNL     1      14.845   8.052   6.459  0.00  0.00    +0.097 C 
ATOM      9  C   UNL     1      13.676   7.362   4.576  0.00  0.00    +0.085 C 
ENDROOT
BRANCH   6  11
ATOM      1  F   UNL     1      22.548   7.288   4.372  0.00  0.00    -0.205 F 
ATOM      2  O   UNL     1      17.719   8.741   6.360  0.00  0.00    -0.439 OA
ATOM      5  N   UNL     1      17.724   8.043   4.204  0.00  0.00    -0.213 NA
ATOM     11  C   UNL     1      17.018   8.490   5.220  0.00  0.00    +0.201 A 
ATOM     13  C   UNL     1      19.002   7.991   4.706  0.00  0.00    +0.112 A 
ATOM     14  C   UNL     1      19.003   8.418   6.025  0.00  0.00    +0.156 A 
ATOM     17  C   UNL     1      20.214   7.598   4.121  0.00  0.00    +0.070 A 
ATOM     18  C   UNL     1      20.130   8.491   6.834  0.00  0.00    +0.051 A 
ATOM     22  C   UNL     1      21.374   7.658   4.905  0.00  0.00    +0.126 A 
ATOM     23  C   UNL     1      21.331   8.096   6.234  0.00  0.00    +0.042 A 
ENDBRANCH   6  11
BRANCH   4  10
ATOM     10  C   UNL     1      12.752   6.861   6.761  0.00  0.00    +0.123 C 
BRANCH  10  12
ATOM     12  C   UNL     1      11.339   7.314   7.018  0.00  0.00    +0.008 A 
ATOM     15  C   UNL     1      10.465   6.528   7.768  0.00  0.00    +0.124 A 
ATOM     16  C   UNL     1      10.909   8.533   6.497  0.00  0.00    +0.008 A 
ATOM     19  C   UNL     1       9.159   6.962   7.997  0.00  0.00    +0.046 A 
ATOM     20  C   UNL     1       9.603   8.967   6.725  0.00  0.00    +0.001 A 
ATOM     21  C   UNL     1       8.729   8.183   7.475  0.00  0.00    +0.004 A 
BRANCH  15   3
ATOM      3  O   UNL     1      10.868   5.334   8.285  0.00  0.00    -0.495 OA
ATOM     24  C   UNL     1       9.869   4.331   8.458  0.00  0.00    +0.277 C 
ENDBRANCH  15   3
ENDBRANCH  10  12
ENDBRANCH   4  10
TORSDOF 4
ENDMDL
MODEL 9
REMARK VINA RESULT:      -6.2     23.892     27.211
REMARK  Name = 51137148
REMARK  5 active torsions:
REMARK  status: ('A' for Active; 'I' for Inactive)
REMARK    1  A    between atoms: O_3  and  C_15
REMARK    2  A    between atoms: O_3  and  C_24
REMARK    3  A    between atoms: N_4  and  C_10
REMARK    4  A    between atoms: C_6  and  C_11
REMARK    5  A    between atoms: C_10  and  C_12
REMARK                            x       y       z     vdW  Elec       q    Type
REMARK                         _______ _______ _______ _____ _____    ______ ____
ROOT
ATOM      4  N   UNL     1      -6.115 -10.721  16.293  0.00  0.00    -0.297 NA
ATOM      6  C   UNL     1      -7.880  -9.530  17.276  0.00  0.00    +0.090 C 
ATOM      7  C   UNL     1      -7.877 -10.975  17.804  0.00  0.00    +0.029 C 
ATOM      8  C   UNL     1      -6.981  -9.569  16.033  0.00  0.00    +0.097 C 
ATOM      9  C   UNL     1      -7.009 -11.751  16.823  0.00  0.00    +0.085 C 
ENDROOT
BRANCH   6  11
ATOM      1  F   UNL     1     -14.673  -7.363  16.106  0.00  0.00    -0.205 F 
ATOM      2  O   UNL     1      -9.281  -7.669  16.557  0.00  0.00    -0.439 OA
ATOM      5  N   UNL     1     -10.421  -9.545  17.118  0.00  0.00    -0.213 NA
ATOM     11  C   UNL     1      -9.251  -8.959  16.995  0.00  0.00    +0.201 A 
ATOM     13  C   UNL     1     -11.306  -8.569  16.731  0.00  0.00    +0.112 A 
ATOM     14  C   UNL     1     -10.612  -7.419  16.386  0.00  0.00    +0.156 A 
ATOM     17  C   UNL     1     -12.706  -8.568  16.640  0.00  0.00    +0.070 A 
ATOM     18  C   UNL     1     -11.200  -6.238  15.950  0.00  0.00    +0.051 A 
ATOM     22  C   UNL     1     -13.337  -7.394  16.203  0.00  0.00    +0.126 A 
ATOM     23  C   UNL     1     -12.597  -6.254  15.865  0.00  0.00    +0.042 A 
ENDBRANCH   6  11
BRANCH   4  10
ATOM     10  C   UNL     1      -5.405 -11.163  15.102  0.00  0.00    +0.123 C 
BRANCH  10  12
ATOM     12  C   UNL     1      -3.927 -10.895  15.198  0.00  0.00    +0.008 A 
ATOM     15  C   UNL     1      -3.187 -10.574  14.061  0.00  0.00    +0.124 A 
ATOM     16  C   UNL     1      -3.300 -10.971  16.441  0.00  0.00    +0.008 A 
ATOM     19  C   UNL     1      -1.817 -10.329  14.168  0.00  0.00    +0.046 A 
ATOM     20  C   UNL     1      -1.931 -10.727  16.547  0.00  0.00    +0.001 A 
ATOM     21  C   UNL     1      -1.190 -10.405  15.411  0.00  0.00    +0.004 A 
BRANCH  15   3
ATOM      3  O   UNL     1      -3.783 -10.495  12.838  0.00  0.00    -0.495 OA
ATOM     24  C   UNL     1      -2.927 -10.518  11.697  0.00  0.00    +0.277 C 
ENDBRANCH  15   3
ENDBRANCH  10  12
ENDBRANCH   4  10
TORSDOF 4
ENDMDL
MODEL 10
REMARK VINA RESULT:      -6.2     25.014     28.307
REMARK  Name = 51137148
REMARK  5 active torsions:
REMARK  status: ('A' for Active; 'I' for Inactive)
REMARK    1  A    between atoms: O_3  and  C_15
REMARK    2  A    between atoms: O_3  and  C_24
REMARK    3  A    between atoms: N_4  and  C_10
REMARK    4  A    between atoms: C_6  and  C_11
REMARK    5  A    between atoms: C_10  and  C_12
REMARK                            x       y       z     vdW  Elec       q    Type
REMARK                         _______ _______ _______ _____ _____    ______ ____
ROOT
ATOM      4  N   UNL     1      -5.682 -11.412  17.082  0.00  0.00    -0.297 NA
ATOM      6  C   UNL     1      -7.239 -10.898  18.758  0.00  0.00    +0.090 C 
ATOM      7  C   UNL     1      -6.816 -12.371  18.883  0.00  0.00    +0.029 C 
ATOM      8  C   UNL     1      -6.776 -10.478  17.357  0.00  0.00    +0.097 C 
ATOM      9  C   UNL     1      -6.169 -12.710  17.546  0.00  0.00    +0.085 C 
ENDROOT
BRANCH   6  11
ATOM      1  F   UNL     1     -14.177  -9.865  20.493  0.00  0.00    -0.205 F 
ATOM      2  O   UNL     1      -9.400 -10.120  17.944  0.00  0.00    -0.439 OA
ATOM      5  N   UNL     1      -9.407 -10.841  20.092  0.00  0.00    -0.213 NA
ATOM     11  C   UNL     1      -8.708 -10.636  18.997  0.00  0.00    +0.201 A 
ATOM     13  C   UNL     1     -10.670 -10.429  19.742  0.00  0.00    +0.112 A 
ATOM     14  C   UNL     1     -10.670  -9.987  18.428  0.00  0.00    +0.156 A 
ATOM     17  C   UNL     1     -11.869 -10.395  20.469  0.00  0.00    +0.070 A 
ATOM     18  C   UNL     1     -11.784  -9.500  17.756  0.00  0.00    +0.051 A 
ATOM     22  C   UNL     1     -13.016  -9.910  19.824  0.00  0.00    +0.126 A 
ATOM     23  C   UNL     1     -12.972  -9.472  18.495  0.00  0.00    +0.042 A 
ENDBRANCH   6  11
BRANCH   4  10
ATOM     10  C   UNL     1      -5.308 -11.431  15.675  0.00  0.00    +0.123 C 
BRANCH  10  12
ATOM     12  C   UNL     1      -3.870 -11.034  15.471  0.00  0.00    +0.008 A 
ATOM     15  C   UNL     1      -3.404 -10.671  14.208  0.00  0.00    +0.124 A 
ATOM     16  C   UNL     1      -3.002 -11.033  16.562  0.00  0.00    +0.008 A 
ATOM     19  C   UNL     1      -2.068 -10.305  14.036  0.00  0.00    +0.046 A 
ATOM     20  C   UNL     1      -1.666 -10.668  16.390  0.00  0.00    +0.001 A 
ATOM     21  C   UNL     1      -1.200 -10.304  15.128  0.00  0.00    +0.004 A 
BRANCH  15   3
ATOM      3  O   UNL     1      -4.238 -10.666  13.131  0.00  0.00    -0.495 OA
ATOM     24  C   UNL     1      -4.063 -11.706  12.170  0.00  0.00    +0.277 C 
ENDBRANCH  15   3
ENDBRANCH  10  12
ENDBRANCH   4  10
TORSDOF 4
ENDMDL
