MODEL 1
REMARK VINA RESULT:      -7.7      0.000      0.000
REMARK  Name = 51136875
REMARK  7 active torsions:
REMARK  status: ('A' for Active; 'I' for Inactive)
REMARK    1  A    between atoms: O_3  and  C_32
REMARK    2  A    between atoms: O_3  and  C_33
REMARK    3  A    between atoms: N_4  and  C_9
REMARK    4  A    between atoms: N_8  and  C_25
REMARK    5  A    between atoms: C_10  and  C_19
REMARK    6  A    between atoms: C_20  and  C_21
REMARK    7  A    between atoms: C_26  and  C_27
REMARK                            x       y       z     vdW  Elec       q    Type
REMARK                         _______ _______ _______ _____ _____    ______ ____
ROOT
ATOM      7  N   UNL     1      20.259   4.383  20.105  0.00  0.00    -0.239 NA
ATOM     21  C   UNL     1      18.815   6.273  20.538  0.00  0.00    +0.041 A 
ATOM     22  C   UNL     1      19.713   6.750  21.487  0.00  0.00    +0.016 A 
ATOM     23  C   UNL     1      19.131   5.096  19.880  0.00  0.00    +0.124 A 
ATOM     24  C   UNL     1      20.883   6.044  21.746  0.00  0.00    +0.044 A 
ATOM     25  C   UNL     1      21.107   4.877  21.034  0.00  0.00    +0.125 A 
ENDROOT
BRANCH  21  20
ATOM      1  O   UNL     1      16.099   8.497  20.165  0.00  0.00    -0.336 OA
ATOM      5  N   UNL     1      16.589   6.403  19.537  0.00  0.00    -0.190 NA
ATOM      6  N   UNL     1      17.381   8.232  20.662  0.00  0.00    -0.056 NA
ATOM     19  C   UNL     1      15.705   7.369  19.516  0.00  0.00    +0.245 A 
ATOM     20  C   UNL     1      17.600   6.979  20.251  0.00  0.00    +0.204 A 
BRANCH  19  10
ATOM      4  N   UNL     1      13.485   8.486  19.413  0.00  0.00    -0.288 NA
ATOM     10  C   UNL     1      14.332   7.402  18.879  0.00  0.00    +0.146 C 
ATOM     13  C   UNL     1      12.572   8.866  18.335  0.00  0.00    +0.085 C 
ATOM     14  C   UNL     1      14.387   7.658  17.362  0.00  0.00    +0.030 C 
ATOM     15  C   UNL     1      13.492   8.868  17.131  0.00  0.00    +0.017 C 
BRANCH   4   9
ATOM      9  C   UNL     1      12.770   8.112  20.633  0.00  0.00    +0.057 C 
ATOM     11  C   UNL     1      11.734   9.187  20.980  0.00  0.00    +0.019 C 
ATOM     12  C   UNL     1      12.106   6.743  20.447  0.00  0.00    +0.019 C 
ATOM     16  C   UNL     1      10.914   8.792  22.207  0.00  0.00    +0.002 C 
ATOM     17  C   UNL     1      11.285   6.352  21.676  0.00  0.00    +0.002 C 
ATOM     18  C   UNL     1      10.261   7.425  22.032  0.00  0.00    +0.000 C 
ENDBRANCH   4   9
ENDBRANCH  19  10
ENDBRANCH  21  20
BRANCH  25   8
ATOM      2  O   UNL     1      21.965   3.399  23.497  0.00  0.00    -0.270 OA
ATOM      8  N   UNL     1      22.287   4.174  21.301  0.00  0.00    -0.266 N 
ATOM     26  C   UNL     1      22.636   3.500  22.476  0.00  0.00    +0.249 C 
ATOM     34  H   UNL     1      22.917   4.145  20.506  0.00  0.00    +0.157 HD
BRANCH  26  27
ATOM     27  C   UNL     1      23.957   2.817  22.446  0.00  0.00    +0.037 A 
ATOM     28  C   UNL     1      24.056   1.474  22.810  0.00  0.00    +0.016 A 
ATOM     29  C   UNL     1      25.097   3.520  22.056  0.00  0.00    +0.016 A 
ATOM     30  C   UNL     1      25.295   0.834  22.784  0.00  0.00    +0.046 A 
ATOM     31  C   UNL     1      26.335   2.880  22.030  0.00  0.00    +0.046 A 
ATOM     32  C   UNL     1      26.435   1.537  22.394  0.00  0.00    +0.120 A 
BRANCH  32   3
ATOM      3  O   UNL     1      27.645   0.913  22.367  0.00  0.00    -0.495 OA
ATOM     33  C   UNL     1      27.683  -0.448  22.793  0.00  0.00    +0.277 C 
ENDBRANCH  32   3
ENDBRANCH  26  27
ENDBRANCH  25   8
TORSDOF 6
ENDMDL
MODEL 2
REMARK VINA RESULT:      -7.4      2.060     12.110
REMARK  Name = 51136875
REMARK  7 active torsions:
REMARK  status: ('A' for Active; 'I' for Inactive)
REMARK    1  A    between atoms: O_3  and  C_32
REMARK    2  A    between atoms: O_3  and  C_33
REMARK    3  A    between atoms: N_4  and  C_9
REMARK    4  A    between atoms: N_8  and  C_25
REMARK    5  A    between atoms: C_10  and  C_19
REMARK    6  A    between atoms: C_20  and  C_21
REMARK    7  A    between atoms: C_26  and  C_27
REMARK                            x       y       z     vdW  Elec       q    Type
REMARK                         _______ _______ _______ _____ _____    ______ ____
ROOT
ATOM      7  N   UNL     1      18.921   5.007  19.702  0.00  0.00    -0.239 NA
ATOM     21  C   UNL     1      20.869   5.679  20.966  0.00  0.00    +0.041 A 
ATOM     22  C   UNL     1      20.255   6.886  21.283  0.00  0.00    +0.016 A 
ATOM     23  C   UNL     1      20.167   4.781  20.180  0.00  0.00    +0.124 A 
ATOM     24  C   UNL     1      18.976   7.154  20.809  0.00  0.00    +0.044 A 
ATOM     25  C   UNL     1      18.358   6.190  20.030  0.00  0.00    +0.125 A 
ENDROOT
BRANCH  21  20
ATOM      1  O   UNL     1      23.842   4.941  22.720  0.00  0.00    -0.336 OA
ATOM      5  N   UNL     1      23.242   5.236  20.582  0.00  0.00    -0.190 NA
ATOM      6  N   UNL     1      22.469   5.213  22.736  0.00  0.00    -0.056 NA
ATOM     19  C   UNL     1      24.219   4.973  21.414  0.00  0.00    +0.245 A 
ATOM     20  C   UNL     1      22.189   5.375  21.438  0.00  0.00    +0.204 A 
BRANCH  19  10
ATOM      4  N   UNL     1      25.926   3.316  20.687  0.00  0.00    -0.288 NA
ATOM     10  C   UNL     1      25.680   4.704  21.126  0.00  0.00    +0.146 C 
ATOM     13  C   UNL     1      27.097   3.361  19.811  0.00  0.00    +0.085 C 
ATOM     14  C   UNL     1      26.233   5.580  19.987  0.00  0.00    +0.030 C 
ATOM     15  C   UNL     1      26.822   4.599  18.982  0.00  0.00    +0.017 C 
BRANCH   4   9
ATOM      9  C   UNL     1      26.105   2.383  21.797  0.00  0.00    +0.057 C 
ATOM     11  C   UNL     1      25.207   1.157  21.596  0.00  0.00    +0.019 C 
ATOM     12  C   UNL     1      27.579   1.977  21.905  0.00  0.00    +0.019 C 
ATOM     16  C   UNL     1      25.423   0.122  22.700  0.00  0.00    +0.002 C 
ATOM     17  C   UNL     1      27.792   0.941  23.008  0.00  0.00    +0.002 C 
ATOM     18  C   UNL     1      26.892  -0.275  22.818  0.00  0.00    +0.000 C 
ENDBRANCH   4   9
ENDBRANCH  19  10
ENDBRANCH  21  20
BRANCH  25   8
ATOM      2  O   UNL     1      15.794   6.603  21.528  0.00  0.00    -0.270 OA
ATOM      8  N   UNL     1      17.070   6.469  19.559  0.00  0.00    -0.266 N 
ATOM     26  C   UNL     1      15.903   6.653  20.308  0.00  0.00    +0.249 C 
ATOM     34  H   UNL     1      17.035   6.581  18.550  0.00  0.00    +0.157 HD
BRANCH  26  27
ATOM     27  C   UNL     1      14.684   6.968  19.516  0.00  0.00    +0.037 A 
ATOM     28  C   UNL     1      14.805   7.428  18.205  0.00  0.00    +0.016 A 
ATOM     29  C   UNL     1      13.421   6.806  20.086  0.00  0.00    +0.016 A 
ATOM     30  C   UNL     1      13.662   7.726  17.462  0.00  0.00    +0.046 A 
ATOM     31  C   UNL     1      12.279   7.104  19.343  0.00  0.00    +0.046 A 
ATOM     32  C   UNL     1      12.400   7.564  18.032  0.00  0.00    +0.120 A 
BRANCH  32   3
ATOM      3  O   UNL     1      11.284   7.854  17.307  0.00  0.00    -0.495 OA
ATOM     33  C   UNL     1      11.364   8.954  16.403  0.00  0.00    +0.277 C 
ENDBRANCH  32   3
ENDBRANCH  26  27
ENDBRANCH  25   8
TORSDOF 6
ENDMDL
MODEL 3
REMARK VINA RESULT:      -7.0      2.134     11.576
REMARK  Name = 51136875
REMARK  7 active torsions:
REMARK  status: ('A' for Active; 'I' for Inactive)
REMARK    1  A    between atoms: O_3  and  C_32
REMARK    2  A    between atoms: O_3  and  C_33
REMARK    3  A    between atoms: N_4  and  C_9
REMARK    4  A    between atoms: N_8  and  C_25
REMARK    5  A    between atoms: C_10  and  C_19
REMARK    6  A    between atoms: C_20  and  C_21
REMARK    7  A    between atoms: C_26  and  C_27
REMARK                            x       y       z     vdW  Elec       q    Type
REMARK                         _______ _______ _______ _____ _____    ______ ____
ROOT
ATOM      7  N   UNL     1      18.871   5.397  19.900  0.00  0.00    -0.239 NA
ATOM     21  C   UNL     1      20.685   6.090  21.340  0.00  0.00    +0.041 A 
ATOM     22  C   UNL     1      19.985   7.243  21.678  0.00  0.00    +0.016 A 
ATOM     23  C   UNL     1      20.091   5.207  20.455  0.00  0.00    +0.124 A 
ATOM     24  C   UNL     1      18.729   7.474  21.128  0.00  0.00    +0.044 A 
ATOM     25  C   UNL     1      18.222   6.528  20.252  0.00  0.00    +0.125 A 
ENDROOT
BRANCH  21  20
ATOM      1  O   UNL     1      23.782   5.988  23.031  0.00  0.00    -0.336 OA
ATOM      5  N   UNL     1      22.712   4.734  21.515  0.00  0.00    -0.190 NA
ATOM      6  N   UNL     1      22.558   6.625  22.794  0.00  0.00    -0.056 NA
ATOM     19  C   UNL     1      23.793   4.884  22.238  0.00  0.00    +0.245 A 
ATOM     20  C   UNL     1      21.984   5.826  21.890  0.00  0.00    +0.204 A 
BRANCH  19  10
ATOM      4  N   UNL     1      24.710   2.572  22.260  0.00  0.00    -0.288 NA
ATOM     10  C   UNL     1      25.028   4.012  22.312  0.00  0.00    +0.146 C 
ATOM     13  C   UNL     1      25.863   1.915  21.645  0.00  0.00    +0.085 C 
ATOM     14  C   UNL     1      25.991   4.244  21.133  0.00  0.00    +0.030 C 
ATOM     15  C   UNL     1      26.201   2.868  20.516  0.00  0.00    +0.017 C 
BRANCH   4   9
ATOM      9  C   UNL     1      24.387   2.005  23.568  0.00  0.00    +0.057 C 
ATOM     11  C   UNL     1      22.870   2.026  23.785  0.00  0.00    +0.019 C 
ATOM     12  C   UNL     1      24.940   0.579  23.668  0.00  0.00    +0.019 C 
ATOM     16  C   UNL     1      22.488   1.370  25.111  0.00  0.00    +0.002 C 
ATOM     17  C   UNL     1      24.555  -0.075  24.995  0.00  0.00    +0.002 C 
ATOM     18  C   UNL     1      23.047  -0.046  25.220  0.00  0.00    +0.000 C 
ENDBRANCH   4   9
ENDBRANCH  19  10
ENDBRANCH  21  20
BRANCH  25   8
ATOM      2  O   UNL     1      15.503   6.354  21.504  0.00  0.00    -0.270 OA
ATOM      8  N   UNL     1      16.957   6.770  19.704  0.00  0.00    -0.266 N 
ATOM     26  C   UNL     1      15.714   6.672  20.339  0.00  0.00    +0.249 C 
ATOM     34  H   UNL     1      16.999   7.088  18.741  0.00  0.00    +0.157 HD
BRANCH  26  27
ATOM     27  C   UNL     1      14.542   7.023  19.494  0.00  0.00    +0.037 A 
ATOM     28  C   UNL     1      13.257   6.986  20.034  0.00  0.00    +0.016 A 
ATOM     29  C   UNL     1      14.727   7.386  18.160  0.00  0.00    +0.016 A 
ATOM     30  C   UNL     1      12.156   7.314  19.242  0.00  0.00    +0.046 A 
ATOM     31  C   UNL     1      13.628   7.713  17.368  0.00  0.00    +0.046 A 
ATOM     32  C   UNL     1      12.342   7.677  17.908  0.00  0.00    +0.120 A 
BRANCH  32   3
ATOM      3  O   UNL     1      11.269   7.997  17.134  0.00  0.00    -0.495 OA
ATOM     33  C   UNL     1      11.436   9.063  16.201  0.00  0.00    +0.277 C 
ENDBRANCH  32   3
ENDBRANCH  26  27
ENDBRANCH  25   8
TORSDOF 6
ENDMDL
MODEL 4
REMARK VINA RESULT:      -6.9      1.591      3.228
REMARK  Name = 51136875
REMARK  7 active torsions:
REMARK  status: ('A' for Active; 'I' for Inactive)
REMARK    1  A    between atoms: O_3  and  C_32
REMARK    2  A    between atoms: O_3  and  C_33
REMARK    3  A    between atoms: N_4  and  C_9
REMARK    4  A    between atoms: N_8  and  C_25
REMARK    5  A    between atoms: C_10  and  C_19
REMARK    6  A    between atoms: C_20  and  C_21
REMARK    7  A    between atoms: C_26  and  C_27
REMARK                            x       y       z     vdW  Elec       q    Type
REMARK                         _______ _______ _______ _____ _____    ______ ____
ROOT
ATOM      7  N   UNL     1      18.573   5.752  20.156  0.00  0.00    -0.239 NA
ATOM     21  C   UNL     1      17.520   7.871  20.648  0.00  0.00    +0.041 A 
ATOM     22  C   UNL     1      18.598   8.229  21.449  0.00  0.00    +0.016 A 
ATOM     23  C   UNL     1      17.555   6.633  20.029  0.00  0.00    +0.124 A 
ATOM     24  C   UNL     1      19.664   7.350  21.605  0.00  0.00    +0.044 A 
ATOM     25  C   UNL     1      19.603   6.134  20.943  0.00  0.00    +0.125 A 
ENDROOT
BRANCH  21  20
ATOM      1  O   UNL     1      15.229  10.521  20.207  0.00  0.00    -0.336 OA
ATOM      5  N   UNL     1      15.124   8.292  20.402  0.00  0.00    -0.190 NA
ATOM      6  N   UNL     1      16.550  10.081  20.361  0.00  0.00    -0.056 NA
ATOM     19  C   UNL     1      14.454   9.406  20.243  0.00  0.00    +0.245 A 
ATOM     20  C   UNL     1      16.405   8.757  20.469  0.00  0.00    +0.204 A 
BRANCH  19  10
ATOM      4  N   UNL     1      12.270   8.421  19.572  0.00  0.00    -0.288 NA
ATOM     10  C   UNL     1      12.962   9.616  20.095  0.00  0.00    +0.146 C 
ATOM     13  C   UNL     1      10.912   8.459  20.116  0.00  0.00    +0.085 C 
ATOM     14  C   UNL     1      12.267   9.916  21.436  0.00  0.00    +0.030 C 
ATOM     15  C   UNL     1      11.161   8.876  21.551  0.00  0.00    +0.017 C 
BRANCH   4   9
ATOM      9  C   UNL     1      12.275   8.344  18.112  0.00  0.00    +0.057 C 
ATOM     11  C   UNL     1      10.898   8.736  17.565  0.00  0.00    +0.019 C 
ATOM     12  C   UNL     1      13.374   9.251  17.547  0.00  0.00    +0.019 C 
ATOM     16  C   UNL     1      10.888   8.741  16.037  0.00  0.00    +0.002 C 
ATOM     17  C   UNL     1      13.360   9.255  16.019  0.00  0.00    +0.002 C 
ATOM     18  C   UNL     1      11.988   9.633  15.470  0.00  0.00    +0.000 C 
ENDBRANCH   4   9
ENDBRANCH  19  10
ENDBRANCH  21  20
BRANCH  25   8
ATOM      2  O   UNL     1      21.240   5.507  23.375  0.00  0.00    -0.270 OA
ATOM      8  N   UNL     1      20.681   5.256  21.106  0.00  0.00    -0.266 N 
ATOM     26  C   UNL     1      21.411   5.002  22.271  0.00  0.00    +0.249 C 
ATOM     34  H   UNL     1      20.896   4.736  20.261  0.00  0.00    +0.157 HD
BRANCH  26  27
ATOM     27  C   UNL     1      22.489   3.986  22.134  0.00  0.00    +0.037 A 
ATOM     28  C   UNL     1      22.614   3.257  20.952  0.00  0.00    +0.016 A 
ATOM     29  C   UNL     1      23.372   3.759  23.190  0.00  0.00    +0.016 A 
ATOM     30  C   UNL     1      23.623   2.303  20.823  0.00  0.00    +0.046 A 
ATOM     31  C   UNL     1      24.381   2.805  23.061  0.00  0.00    +0.046 A 
ATOM     32  C   UNL     1      24.506   2.077  21.879  0.00  0.00    +0.120 A 
BRANCH  32   3
ATOM      3  O   UNL     1      25.491   1.145  21.754  0.00  0.00    -0.495 OA
ATOM     33  C   UNL     1      26.743   1.436  22.374  0.00  0.00    +0.277 C 
ENDBRANCH  32   3
ENDBRANCH  26  27
ENDBRANCH  25   8
TORSDOF 6
ENDMDL
MODEL 5
REMARK VINA RESULT:      -6.9      2.329      3.221
REMARK  Name = 51136875
REMARK  7 active torsions:
REMARK  status: ('A' for Active; 'I' for Inactive)
REMARK    1  A    between atoms: O_3  and  C_32
REMARK    2  A    between atoms: O_3  and  C_33
REMARK    3  A    between atoms: N_4  and  C_9
REMARK    4  A    between atoms: N_8  and  C_25
REMARK    5  A    between atoms: C_10  and  C_19
REMARK    6  A    between atoms: C_20  and  C_21
REMARK    7  A    between atoms: C_26  and  C_27
REMARK                            x       y       z     vdW  Elec       q    Type
REMARK                         _______ _______ _______ _____ _____    ______ ____
ROOT
ATOM      7  N   UNL     1      18.811   6.542  21.371  0.00  0.00    -0.239 NA
ATOM     21  C   UNL     1      16.778   7.002  20.146  0.00  0.00    +0.041 A 
ATOM     22  C   UNL     1      17.162   6.101  19.158  0.00  0.00    +0.016 A 
ATOM     23  C   UNL     1      17.630   7.185  21.223  0.00  0.00    +0.124 A 
ATOM     24  C   UNL     1      18.369   5.422  19.275  0.00  0.00    +0.044 A 
ATOM     25  C   UNL     1      19.150   5.675  20.391  0.00  0.00    +0.125 A 
ENDROOT
BRANCH  21  20
ATOM      1  O   UNL     1      13.481   8.260  20.242  0.00  0.00    -0.336 OA
ATOM      5  N   UNL     1      15.456   8.926  19.421  0.00  0.00    -0.190 NA
ATOM      6  N   UNL     1      14.398   7.253  20.570  0.00  0.00    -0.056 NA
ATOM     19  C   UNL     1      14.185   9.206  19.567  0.00  0.00    +0.245 A 
ATOM     20  C   UNL     1      15.539   7.719  20.052  0.00  0.00    +0.204 A 
BRANCH  19  10
ATOM      4  N   UNL     1      13.894  11.673  19.703  0.00  0.00    -0.288 NA
ATOM     10  C   UNL     1      13.408  10.418  19.097  0.00  0.00    +0.146 C 
ATOM     13  C   UNL     1      13.622  12.733  18.732  0.00  0.00    +0.085 C 
ATOM     14  C   UNL     1      13.524  10.645  17.578  0.00  0.00    +0.030 C 
ATOM     15  C   UNL     1      14.024  12.076  17.428  0.00  0.00    +0.017 C 
BRANCH   4   9
ATOM      9  C   UNL     1      13.295  11.954  21.006  0.00  0.00    +0.057 C 
ATOM     11  C   UNL     1      11.862  11.412  21.048  0.00  0.00    +0.019 C 
ATOM     12  C   UNL     1      14.152  11.337  22.117  0.00  0.00    +0.019 C 
ATOM     16  C   UNL     1      11.229  11.619  22.424  0.00  0.00    +0.002 C 
ATOM     17  C   UNL     1      13.516  11.545  23.491  0.00  0.00    +0.002 C 
ATOM     18  C   UNL     1      12.085  11.017  23.534  0.00  0.00    +0.000 C 
ENDBRANCH   4   9
ENDBRANCH  19  10
ENDBRANCH  21  20
BRANCH  25   8
ATOM      2  O   UNL     1      21.970   6.676  20.205  0.00  0.00    -0.270 OA
ATOM      8  N   UNL     1      20.363   4.986  20.500  0.00  0.00    -0.266 N 
ATOM     26  C   UNL     1      21.657   5.507  20.404  0.00  0.00    +0.249 C 
ATOM     34  H   UNL     1      20.239   4.001  20.712  0.00  0.00    +0.157 HD
BRANCH  26  27
ATOM     27  C   UNL     1      22.753   4.520  20.594  0.00  0.00    +0.037 A 
ATOM     28  C   UNL     1      22.458   3.222  21.010  0.00  0.00    +0.016 A 
ATOM     29  C   UNL     1      24.077   4.894  20.360  0.00  0.00    +0.016 A 
ATOM     30  C   UNL     1      23.486   2.296  21.190  0.00  0.00    +0.046 A 
ATOM     31  C   UNL     1      25.104   3.968  20.540  0.00  0.00    +0.046 A 
ATOM     32  C   UNL     1      24.809   2.670  20.956  0.00  0.00    +0.120 A 
BRANCH  32   3
ATOM      3  O   UNL     1      25.813   1.767  21.132  0.00  0.00    -0.495 OA
ATOM     33  C   UNL     1      25.703   0.881  22.245  0.00  0.00    +0.277 C 
ENDBRANCH  32   3
ENDBRANCH  26  27
ENDBRANCH  25   8
TORSDOF 6
ENDMDL
MODEL 6
REMARK VINA RESULT:      -6.8     29.513     34.185
REMARK  Name = 51136875
REMARK  7 active torsions:
REMARK  status: ('A' for Active; 'I' for Inactive)
REMARK    1  A    between atoms: O_3  and  C_32
REMARK    2  A    between atoms: O_3  and  C_33
REMARK    3  A    between atoms: N_4  and  C_9
REMARK    4  A    between atoms: N_8  and  C_25
REMARK    5  A    between atoms: C_10  and  C_19
REMARK    6  A    between atoms: C_20  and  C_21
REMARK    7  A    between atoms: C_26  and  C_27
REMARK                            x       y       z     vdW  Elec       q    Type
REMARK                         _______ _______ _______ _____ _____    ______ ____
ROOT
ATOM      7  N   UNL     1      -9.763 -12.115  19.675  0.00  0.00    -0.239 NA
ATOM     21  C   UNL     1     -11.899 -11.106  20.192  0.00  0.00    +0.041 A 
ATOM     22  C   UNL     1     -11.559  -9.987  19.439  0.00  0.00    +0.016 A 
ATOM     23  C   UNL     1     -10.975 -12.134  20.278  0.00  0.00    +0.124 A 
ATOM     24  C   UNL     1     -10.323  -9.931  18.805  0.00  0.00    +0.044 A 
ATOM     25  C   UNL     1      -9.469 -11.011  18.954  0.00  0.00    +0.125 A 
ENDROOT
BRANCH  21  20
ATOM      1  O   UNL     1     -14.821 -11.917  21.998  0.00  0.00    -0.336 OA
ATOM      5  N   UNL     1     -14.059 -10.161  20.835  0.00  0.00    -0.190 NA
ATOM      6  N   UNL     1     -13.550 -12.280  21.534  0.00  0.00    -0.056 NA
ATOM     19  C   UNL     1     -15.044 -10.657  21.542  0.00  0.00    +0.245 A 
ATOM     20  C   UNL     1     -13.166 -11.193  20.858  0.00  0.00    +0.204 A 
BRANCH  19  10
ATOM      4  N   UNL     1     -17.056  -9.422  20.758  0.00  0.00    -0.288 NA
ATOM     10  C   UNL     1     -16.370 -10.028  21.915  0.00  0.00    +0.146 C 
ATOM     13  C   UNL     1     -18.490  -9.506  21.036  0.00  0.00    +0.085 C 
ATOM     14  C   UNL     1     -17.376 -11.051  22.475  0.00  0.00    +0.030 C 
ATOM     15  C   UNL     1     -18.617 -10.903  21.607  0.00  0.00    +0.017 C 
BRANCH   4   9
ATOM      9  C   UNL     1     -16.627  -8.051  20.487  0.00  0.00    +0.057 C 
ATOM     11  C   UNL     1     -17.387  -7.498  19.276  0.00  0.00    +0.019 C 
ATOM     12  C   UNL     1     -16.854  -7.180  21.727  0.00  0.00    +0.019 C 
ATOM     16  C   UNL     1     -17.021  -6.038  19.009  0.00  0.00    +0.002 C 
ATOM     17  C   UNL     1     -16.488  -5.721  21.456  0.00  0.00    +0.002 C 
ATOM     18  C   UNL     1     -17.234  -5.169  20.245  0.00  0.00    +0.000 C 
ENDBRANCH   4   9
ENDBRANCH  19  10
ENDBRANCH  21  20
BRANCH  25   8
ATOM      2  O   UNL     1      -6.737 -10.486  20.071  0.00  0.00    -0.270 OA
ATOM      8  N   UNL     1      -8.227 -10.945  18.312  0.00  0.00    -0.266 N 
ATOM     26  C   UNL     1      -6.977 -10.695  18.887  0.00  0.00    +0.249 C 
ATOM     34  H   UNL     1      -8.285 -11.148  17.319  0.00  0.00    +0.157 HD
BRANCH  26  27
ATOM     27  C   UNL     1      -5.829 -10.718  17.942  0.00  0.00    +0.037 A 
ATOM     28  C   UNL     1      -4.626 -11.314  18.320  0.00  0.00    +0.016 A 
ATOM     29  C   UNL     1      -5.954 -10.141  16.678  0.00  0.00    +0.016 A 
ATOM     30  C   UNL     1      -3.548 -11.334  17.434  0.00  0.00    +0.046 A 
ATOM     31  C   UNL     1      -4.877 -10.161  15.793  0.00  0.00    +0.046 A 
ATOM     32  C   UNL     1      -3.674 -10.757  16.171  0.00  0.00    +0.120 A 
BRANCH  32   3
ATOM      3  O   UNL     1      -2.623 -10.776  15.306  0.00  0.00    -0.495 OA
ATOM     33  C   UNL     1      -1.330 -10.514  15.849  0.00  0.00    +0.277 C 
ENDBRANCH  32   3
ENDBRANCH  26  27
ENDBRANCH  25   8
TORSDOF 6
ENDMDL
MODEL 7
REMARK VINA RESULT:      -6.7     29.164     31.893
REMARK  Name = 51136875
REMARK  7 active torsions:
REMARK  status: ('A' for Active; 'I' for Inactive)
REMARK    1  A    between atoms: O_3  and  C_32
REMARK    2  A    between atoms: O_3  and  C_33
REMARK    3  A    between atoms: N_4  and  C_9
REMARK    4  A    between atoms: N_8  and  C_25
REMARK    5  A    between atoms: C_10  and  C_19
REMARK    6  A    between atoms: C_20  and  C_21
REMARK    7  A    between atoms: C_26  and  C_27
REMARK                            x       y       z     vdW  Elec       q    Type
REMARK                         _______ _______ _______ _____ _____    ______ ____
ROOT
ATOM      7  N   UNL     1      -5.668 -11.887  10.758  0.00  0.00    -0.239 NA
ATOM     21  C   UNL     1      -4.521 -10.975  12.681  0.00  0.00    +0.041 A 
ATOM     22  C   UNL     1      -3.509 -10.493  11.857  0.00  0.00    +0.016 A 
ATOM     23  C   UNL     1      -5.569 -11.659  12.088  0.00  0.00    +0.124 A 
ATOM     24  C   UNL     1      -3.576 -10.708  10.485  0.00  0.00    +0.044 A 
ATOM     25  C   UNL     1      -4.666 -11.404   9.990  0.00  0.00    +0.125 A 
ENDROOT
BRANCH  21  20
ATOM      1  O   UNL     1      -3.771 -10.487  16.096  0.00  0.00    -0.336 OA
ATOM      5  N   UNL     1      -5.619 -10.662  14.843  0.00  0.00    -0.190 NA
ATOM      6  N   UNL     1      -3.332 -10.675  14.780  0.00  0.00    -0.056 NA
ATOM     19  C   UNL     1      -5.129 -10.492  16.045  0.00  0.00    +0.245 A 
ATOM     20  C   UNL     1      -4.479 -10.770  14.101  0.00  0.00    +0.204 A 
BRANCH  19  10
ATOM      4  N   UNL     1      -7.098 -11.093  17.441  0.00  0.00    -0.288 NA
ATOM     10  C   UNL     1      -5.855 -10.301  17.360  0.00  0.00    +0.146 C 
ATOM     13  C   UNL     1      -7.302 -11.398  18.858  0.00  0.00    +0.085 C 
ATOM     14  C   UNL     1      -5.020 -10.757  18.571  0.00  0.00    +0.030 C 
ATOM     15  C   UNL     1      -5.901 -11.759  19.306  0.00  0.00    +0.017 C 
BRANCH   4   9
ATOM      9  C   UNL     1      -8.252 -10.416  16.853  0.00  0.00    +0.057 C 
ATOM     11  C   UNL     1      -9.541 -11.145  17.247  0.00  0.00    +0.019 C 
ATOM     12  C   UNL     1      -8.284  -8.952  17.306  0.00  0.00    +0.019 C 
ATOM     16  C   UNL     1     -10.776 -10.421  16.713  0.00  0.00    +0.002 C 
ATOM     17  C   UNL     1      -9.521  -8.231  16.771  0.00  0.00    +0.002 C 
ATOM     18  C   UNL     1     -10.805  -8.960  17.152  0.00  0.00    +0.000 C 
ENDBRANCH   4   9
ENDBRANCH  19  10
ENDBRANCH  21  20
BRANCH  25   8
ATOM      2  O   UNL     1      -5.564  -9.578   7.788  0.00  0.00    -0.270 OA
ATOM      8  N   UNL     1      -4.724 -11.615   8.608  0.00  0.00    -0.266 N 
ATOM     26  C   UNL     1      -5.155 -10.721   7.622  0.00  0.00    +0.249 C 
ATOM     34  H   UNL     1      -4.365 -12.523   8.332  0.00  0.00    +0.157 HD
BRANCH  26  27
ATOM     27  C   UNL     1      -5.071 -11.230   6.227  0.00  0.00    +0.037 A 
ATOM     28  C   UNL     1      -6.100 -10.963   5.324  0.00  0.00    +0.016 A 
ATOM     29  C   UNL     1      -3.964 -11.975   5.821  0.00  0.00    +0.016 A 
ATOM     30  C   UNL     1      -6.023 -11.441   4.016  0.00  0.00    +0.046 A 
ATOM     31  C   UNL     1      -3.887 -12.453   4.514  0.00  0.00    +0.046 A 
ATOM     32  C   UNL     1      -4.916 -12.186   3.611  0.00  0.00    +0.120 A 
BRANCH  32   3
ATOM      3  O   UNL     1      -4.840 -12.653   2.334  0.00  0.00    -0.495 OA
ATOM     33  C   UNL     1      -3.560 -13.086   1.876  0.00  0.00    +0.277 C 
ENDBRANCH  32   3
ENDBRANCH  26  27
ENDBRANCH  25   8
TORSDOF 6
ENDMDL
MODEL 8
REMARK VINA RESULT:      -6.7     28.951     32.605
REMARK  Name = 51136875
REMARK  7 active torsions:
REMARK  status: ('A' for Active; 'I' for Inactive)
REMARK    1  A    between atoms: O_3  and  C_32
REMARK    2  A    between atoms: O_3  and  C_33
REMARK    3  A    between atoms: N_4  and  C_9
REMARK    4  A    between atoms: N_8  and  C_25
REMARK    5  A    between atoms: C_10  and  C_19
REMARK    6  A    between atoms: C_20  and  C_21
REMARK    7  A    between atoms: C_26  and  C_27
REMARK                            x       y       z     vdW  Elec       q    Type
REMARK                         _______ _______ _______ _____ _____    ______ ____
ROOT
ATOM      7  N   UNL     1      -6.554 -10.877   9.714  0.00  0.00    -0.239 NA
ATOM     21  C   UNL     1      -5.441 -10.025  11.683  0.00  0.00    +0.041 A 
ATOM     22  C   UNL     1      -5.158  -8.837  11.017  0.00  0.00    +0.016 A 
ATOM     23  C   UNL     1      -6.136 -11.005  10.994  0.00  0.00    +0.124 A 
ATOM     24  C   UNL     1      -5.571  -8.669   9.700  0.00  0.00    +0.044 A 
ATOM     25  C   UNL     1      -6.260  -9.710   9.099  0.00  0.00    +0.125 A 
ENDROOT
BRANCH  21  20
ATOM      1  O   UNL     1      -3.855 -10.711  14.761  0.00  0.00    -0.336 OA
ATOM      5  N   UNL     1      -5.865  -9.986  14.090  0.00  0.00    -0.190 NA
ATOM      6  N   UNL     1      -3.805 -10.665  13.362  0.00  0.00    -0.056 NA
ATOM     19  C   UNL     1      -5.102 -10.297  15.108  0.00  0.00    +0.245 A 
ATOM     20  C   UNL     1      -5.026 -10.228  13.042  0.00  0.00    +0.204 A 
BRANCH  19  10
ATOM      4  N   UNL     1      -6.477 -11.204  16.972  0.00  0.00    -0.288 NA
ATOM     10  C   UNL     1      -5.412 -10.256  16.589  0.00  0.00    +0.146 C 
ATOM     13  C   UNL     1      -6.207 -11.591  18.357  0.00  0.00    +0.085 C 
ATOM     14  C   UNL     1      -4.205 -10.650  17.460  0.00  0.00    +0.030 C 
ATOM     15  C   UNL     1      -4.705 -11.786  18.342  0.00  0.00    +0.017 C 
BRANCH   4   9
ATOM      9  C   UNL     1      -7.822 -10.658  16.805  0.00  0.00    +0.057 C 
ATOM     11  C   UNL     1      -8.816 -11.450  17.662  0.00  0.00    +0.019 C 
ATOM     12  C   UNL     1      -7.831  -9.172  17.179  0.00  0.00    +0.019 C 
ATOM     16  C   UNL     1     -10.222 -10.859  17.572  0.00  0.00    +0.002 C 
ATOM     17  C   UNL     1      -9.239  -8.585  17.090  0.00  0.00    +0.002 C 
ATOM     18  C   UNL     1     -10.234  -9.377  17.933  0.00  0.00    +0.000 C 
ENDBRANCH   4   9
ENDBRANCH  19  10
ENDBRANCH  21  20
BRANCH  25   8
ATOM      2  O   UNL     1      -5.121 -10.807   6.552  0.00  0.00    -0.270 OA
ATOM      8  N   UNL     1      -6.672  -9.531   7.774  0.00  0.00    -0.266 N 
ATOM     26  C   UNL     1      -6.099 -10.071   6.617  0.00  0.00    +0.249 C 
ATOM     34  H   UNL     1      -7.513  -8.968   7.695  0.00  0.00    +0.157 HD
BRANCH  26  27
ATOM     27  C   UNL     1      -6.787  -9.719   5.347  0.00  0.00    +0.037 A 
ATOM     28  C   UNL     1      -7.180  -8.402   5.108  0.00  0.00    +0.016 A 
ATOM     29  C   UNL     1      -7.041 -10.706   4.394  0.00  0.00    +0.016 A 
ATOM     30  C   UNL     1      -7.827  -8.072   3.917  0.00  0.00    +0.046 A 
ATOM     31  C   UNL     1      -7.688 -10.376   3.204  0.00  0.00    +0.046 A 
ATOM     32  C   UNL     1      -8.081  -9.059   2.966  0.00  0.00    +0.120 A 
BRANCH  32   3
ATOM      3  O   UNL     1      -8.712  -8.737   1.803  0.00  0.00    -0.495 OA
ATOM     33  C   UNL     1      -9.468  -7.527   1.787  0.00  0.00    +0.277 C 
ENDBRANCH  32   3
ENDBRANCH  26  27
ENDBRANCH  25   8
TORSDOF 6
ENDMDL
MODEL 9
REMARK VINA RESULT:      -6.7     30.296     35.170
REMARK  Name = 51136875
REMARK  7 active torsions:
REMARK  status: ('A' for Active; 'I' for Inactive)
REMARK    1  A    between atoms: O_3  and  C_32
REMARK    2  A    between atoms: O_3  and  C_33
REMARK    3  A    between atoms: N_4  and  C_9
REMARK    4  A    between atoms: N_8  and  C_25
REMARK    5  A    between atoms: C_10  and  C_19
REMARK    6  A    between atoms: C_20  and  C_21
REMARK    7  A    between atoms: C_26  and  C_27
REMARK                            x       y       z     vdW  Elec       q    Type
REMARK                         _______ _______ _______ _____ _____    ______ ____
ROOT
ATOM      7  N   UNL     1     -12.618  -5.447  14.706  0.00  0.00    -0.239 NA
ATOM     21  C   UNL     1     -11.545  -7.526  15.313  0.00  0.00    +0.041 A 
ATOM     22  C   UNL     1     -11.751  -8.015  14.027  0.00  0.00    +0.016 A 
ATOM     23  C   UNL     1     -11.993  -6.248  15.600  0.00  0.00    +0.124 A 
ATOM     24  C   UNL     1     -12.390  -7.221  13.081  0.00  0.00    +0.044 A 
ATOM     25  C   UNL     1     -12.800  -5.956  13.468  0.00  0.00    +0.125 A 
ENDROOT
BRANCH  21  20
ATOM      1  O   UNL     1      -9.708  -8.914  17.989  0.00  0.00    -0.336 OA
ATOM      5  N   UNL     1     -11.007  -9.682  16.333  0.00  0.00    -0.190 NA
ATOM      6  N   UNL     1     -10.128  -7.788  17.270  0.00  0.00    -0.056 NA
ATOM     19  C   UNL     1     -10.270  -9.987  17.372  0.00  0.00    +0.245 A 
ATOM     20  C   UNL     1     -10.890  -8.322  16.311  0.00  0.00    +0.204 A 
BRANCH  19  10
ATOM      4  N   UNL     1      -8.864 -11.299  18.949  0.00  0.00    -0.288 NA
ATOM     10  C   UNL     1      -9.965 -11.345  17.967  0.00  0.00    +0.146 C 
ATOM     13  C   UNL     1      -9.120 -12.373  19.909  0.00  0.00    +0.085 C 
ATOM     14  C   UNL     1     -11.157 -11.935  18.743  0.00  0.00    +0.030 C 
ATOM     15  C   UNL     1     -10.613 -12.245  20.131  0.00  0.00    +0.017 C 
BRANCH   4   9
ATOM      9  C   UNL     1      -7.540 -11.412  18.337  0.00  0.00    +0.057 C 
ATOM     11  C   UNL     1      -6.533 -10.557  19.113  0.00  0.00    +0.019 C 
ATOM     12  C   UNL     1      -7.107 -12.882  18.303  0.00  0.00    +0.019 C 
ATOM     16  C   UNL     1      -5.122 -10.710  18.548  0.00  0.00    +0.002 C 
ATOM     17  C   UNL     1      -5.695 -13.032  17.738  0.00  0.00    +0.002 C 
ATOM     18  C   UNL     1      -4.691 -12.173  18.500  0.00  0.00    +0.000 C 
ENDBRANCH   4   9
ENDBRANCH  19  10
ENDBRANCH  21  20
BRANCH  25   8
ATOM      2  O   UNL     1     -12.238  -3.147  12.582  0.00  0.00    -0.270 OA
ATOM      8  N   UNL     1     -13.443  -5.165  12.509  0.00  0.00    -0.266 N 
ATOM     26  C   UNL     1     -13.135  -3.852  12.135  0.00  0.00    +0.249 C 
ATOM     34  H   UNL     1     -14.188  -5.657  12.026  0.00  0.00    +0.157 HD
BRANCH  26  27
ATOM     27  C   UNL     1     -13.988  -3.285  11.056  0.00  0.00    +0.037 A 
ATOM     28  C   UNL     1     -15.197  -2.668  11.375  0.00  0.00    +0.016 A 
ATOM     29  C   UNL     1     -13.580  -3.373   9.725  0.00  0.00    +0.016 A 
ATOM     30  C   UNL     1     -15.999  -2.138  10.364  0.00  0.00    +0.046 A 
ATOM     31  C   UNL     1     -14.381  -2.844   8.714  0.00  0.00    +0.046 A 
ATOM     32  C   UNL     1     -15.590  -2.226   9.034  0.00  0.00    +0.120 A 
BRANCH  32   3
ATOM      3  O   UNL     1     -16.372  -1.708   8.046  0.00  0.00    -0.495 OA
ATOM     33  C   UNL     1     -17.205  -0.603   8.389  0.00  0.00    +0.277 C 
ENDBRANCH  32   3
ENDBRANCH  26  27
ENDBRANCH  25   8
TORSDOF 6
ENDMDL
MODEL 10
REMARK VINA RESULT:      -6.7     29.086     32.476
REMARK  Name = 51136875
REMARK  7 active torsions:
REMARK  status: ('A' for Active; 'I' for Inactive)
REMARK    1  A    between atoms: O_3  and  C_32
REMARK    2  A    between atoms: O_3  and  C_33
REMARK    3  A    between atoms: N_4  and  C_9
REMARK    4  A    between atoms: N_8  and  C_25
REMARK    5  A    between atoms: C_10  and  C_19
REMARK    6  A    between atoms: C_20  and  C_21
REMARK    7  A    between atoms: C_26  and  C_27
REMARK                            x       y       z     vdW  Elec       q    Type
REMARK                         _______ _______ _______ _____ _____    ______ ____
ROOT
ATOM      7  N   UNL     1      -5.883 -10.843   8.774  0.00  0.00    -0.239 NA
ATOM     21  C   UNL     1      -4.142 -10.509  10.418  0.00  0.00    +0.041 A 
ATOM     22  C   UNL     1      -3.848  -9.267   9.864  0.00  0.00    +0.016 A 
ATOM     23  C   UNL     1      -5.159 -11.251   9.842  0.00  0.00    +0.124 A 
ATOM     24  C   UNL     1      -4.570  -8.814   8.765  0.00  0.00    +0.044 A 
ATOM     25  C   UNL     1      -5.568  -9.632   8.263  0.00  0.00    +0.125 A 
ENDROOT
BRANCH  21  20
ATOM      1  O   UNL     1      -1.874 -11.336  12.993  0.00  0.00    -0.336 OA
ATOM      5  N   UNL     1      -3.955 -11.920  12.405  0.00  0.00    -0.190 NA
ATOM      6  N   UNL     1      -2.170 -10.606  11.836  0.00  0.00    -0.056 NA
ATOM     19  C   UNL     1      -2.977 -12.084  13.260  0.00  0.00    +0.245 A 
ATOM     20  C   UNL     1      -3.414 -11.004  11.551  0.00  0.00    +0.204 A 
BRANCH  19  10
ATOM      4  N   UNL     1      -4.191 -13.038  15.211  0.00  0.00    -0.288 NA
ATOM     10  C   UNL     1      -2.909 -12.975  14.482  0.00  0.00    +0.146 C 
ATOM     13  C   UNL     1      -4.238 -14.351  15.854  0.00  0.00    +0.085 C 
ATOM     14  C   UNL     1      -2.584 -14.439  14.133  0.00  0.00    +0.030 C 
ATOM     15  C   UNL     1      -3.707 -15.255  14.759  0.00  0.00    +0.017 C 
BRANCH   4   9
ATOM      9  C   UNL     1      -4.362 -11.949  16.171  0.00  0.00    +0.057 C 
ATOM     11  C   UNL     1      -5.450 -10.987  15.680  0.00  0.00    +0.019 C 
ATOM     12  C   UNL     1      -4.711 -12.521  17.550  0.00  0.00    +0.019 C 
ATOM     16  C   UNL     1      -5.711  -9.877  16.697  0.00  0.00    +0.002 C 
ATOM     17  C   UNL     1      -4.973 -11.408  18.564  0.00  0.00    +0.002 C 
ATOM     18  C   UNL     1      -6.047 -10.442  18.073  0.00  0.00    +0.000 C 
ENDBRANCH   4   9
ENDBRANCH  19  10
ENDBRANCH  21  20
BRANCH  25   8
ATOM      2  O   UNL     1      -8.125  -8.072   8.135  0.00  0.00    -0.270 OA
ATOM      8  N   UNL     1      -6.289  -9.167   7.157  0.00  0.00    -0.266 N 
ATOM     26  C   UNL     1      -7.483  -8.439   7.157  0.00  0.00    +0.249 C 
ATOM     34  H   UNL     1      -5.832  -9.371   6.274  0.00  0.00    +0.157 HD
BRANCH  26  27
ATOM     27  C   UNL     1      -7.994  -8.061   5.813  0.00  0.00    +0.037 A 
ATOM     28  C   UNL     1      -7.279  -8.418   4.669  0.00  0.00    +0.016 A 
ATOM     29  C   UNL     1      -9.186  -7.346   5.695  0.00  0.00    +0.016 A 
ATOM     30  C   UNL     1      -7.756  -8.061   3.408  0.00  0.00    +0.046 A 
ATOM     31  C   UNL     1      -9.663  -6.990   4.434  0.00  0.00    +0.046 A 
ATOM     32  C   UNL     1      -8.948  -7.347   3.291  0.00  0.00    +0.120 A 
BRANCH  32   3
ATOM      3  O   UNL     1      -9.415  -6.999   2.060  0.00  0.00    -0.495 OA
ATOM     33  C   UNL     1      -9.555  -8.043   1.099  0.00  0.00    +0.277 C 
ENDBRANCH  32   3
ENDBRANCH  26  27
ENDBRANCH  25   8
TORSDOF 6
ENDMDL
