MODEL 1
REMARK VINA RESULT:      -6.6      0.000      0.000
REMARK  Name = 7143796
REMARK  5 active torsions:
REMARK  status: ('A' for Active; 'I' for Inactive)
REMARK    1  A    between atoms: S_1  and  N_7
REMARK    2  A    between atoms: S_1  and  C_20
REMARK    3  A    between atoms: O_6  and  C_27
REMARK    4  A    between atoms: O_6  and  C_30
REMARK    5  A    between atoms: C_18  and  C_21
REMARK                            x       y       z     vdW  Elec       q    Type
REMARK                         _______ _______ _______ _____ _____    ______ ____
ROOT
ATOM      5  O   UNL     1     -14.946   9.290  19.780  0.00  0.00    -0.267 OA
ATOM      7  N   UNL     1     -11.369   9.504  16.316  0.00  0.00    -0.176 NA
ATOM      8  N   UNL     1     -12.699   9.443  19.181  0.00  0.00    -0.311 N 
ATOM      9  C   UNL     1     -11.754  11.425  17.863  0.00  0.00    +0.025 C 
ATOM     10  C   UNL     1     -10.267   9.594  18.543  0.00  0.00    +0.052 C 
ATOM     11  C   UNL     1     -10.453  11.108  18.589  0.00  0.00    +0.017 C 
ATOM     12  C   UNL     1     -11.685  10.958  16.400  0.00  0.00    +0.114 C 
ATOM     13  C   UNL     1     -10.139   9.135  17.078  0.00  0.00    +0.119 C 
ATOM     14  C   UNL     1     -12.920  10.786  18.626  0.00  0.00    +0.130 C 
ATOM     15  C   UNL     1     -11.421   8.880  19.221  0.00  0.00    +0.026 A 
ATOM     16  C   UNL     1     -11.222   7.704  19.836  0.00  0.00    +0.022 A 
ATOM     17  C   UNL     1     -13.813   8.808  19.763  0.00  0.00    +0.260 A 
ATOM     18  C   UNL     1     -13.566   7.474  20.414  0.00  0.00    +0.053 A 
ATOM     19  C   UNL     1     -12.314   6.991  20.436  0.00  0.00    +0.016 A 
ENDROOT
BRANCH  18  21
ATOM      2  S   UNL     1     -14.761   6.536  22.719  0.00  0.00    -0.096 S 
ATOM     21  C   UNL     1     -14.668   6.700  21.013  0.00  0.00    +0.024 A 
ATOM     26  C   UNL     1     -15.707   6.040  20.383  0.00  0.00    +0.016 A 
ATOM     28  C   UNL     1     -16.580   5.398  21.308  0.00  0.00    +0.008 A 
ATOM     29  C   UNL     1     -16.182   5.589  22.613  0.00  0.00    +0.046 A 
ENDBRANCH  18  21
BRANCH   7   1
ATOM      1  S   UNL     1     -11.513   8.804  14.761  0.00  0.00    +0.061 S 
ATOM      3  O   UNL     1     -10.582   7.700  14.649  0.00  0.00    -0.153 OA
ATOM      4  O   UNL     1     -11.540   9.859  13.770  0.00  0.00    -0.153 OA
BRANCH   1  20
ATOM     20  C   UNL     1     -13.140   8.126  14.876  0.00  0.00    +0.106 A 
ATOM     22  C   UNL     1     -13.690   7.494  13.773  0.00  0.00    +0.032 A 
ATOM     23  C   UNL     1     -13.838   8.239  16.067  0.00  0.00    +0.032 A 
ATOM     24  C   UNL     1     -14.975   6.960  13.863  0.00  0.00    +0.047 A 
ATOM     25  C   UNL     1     -15.123   7.704  16.157  0.00  0.00    +0.047 A 
ATOM     27  C   UNL     1     -15.692   7.065  15.055  0.00  0.00    +0.120 A 
BRANCH  27   6
ATOM      6  O   UNL     1     -16.946   6.543  15.144  0.00  0.00    -0.495 OA
ATOM     30  C   UNL     1     -17.054   5.122  15.213  0.00  0.00    +0.277 C 
ENDBRANCH  27   6
ENDBRANCH   1  20
ENDBRANCH   7   1
TORSDOF 4
ENDMDL
MODEL 2
REMARK VINA RESULT:      -6.3     26.661     30.187
REMARK  Name = 7143796
REMARK  5 active torsions:
REMARK  status: ('A' for Active; 'I' for Inactive)
REMARK    1  A    between atoms: S_1  and  N_7
REMARK    2  A    between atoms: S_1  and  C_20
REMARK    3  A    between atoms: O_6  and  C_27
REMARK    4  A    between atoms: O_6  and  C_30
REMARK    5  A    between atoms: C_18  and  C_21
REMARK                            x       y       z     vdW  Elec       q    Type
REMARK                         _______ _______ _______ _____ _____    ______ ____
ROOT
ATOM      5  O   UNL     1      11.030   6.862   0.946  0.00  0.00    -0.267 OA
ATOM      7  N   UNL     1      11.301   7.087   5.918  0.00  0.00    -0.176 NA
ATOM      8  N   UNL     1      10.344   6.149   3.057  0.00  0.00    -0.311 N 
ATOM      9  C   UNL     1       9.193   7.708   4.733  0.00  0.00    +0.025 C 
ATOM     10  C   UNL     1       9.607   5.363   5.334  0.00  0.00    +0.052 C 
ATOM     11  C   UNL     1       8.526   6.437   5.243  0.00  0.00    +0.017 C 
ATOM     12  C   UNL     1      10.295   8.166   5.701  0.00  0.00    +0.114 C 
ATOM     13  C   UNL     1      10.681   5.798   6.348  0.00  0.00    +0.119 C 
ATOM     14  C   UNL     1       9.725   7.457   3.317  0.00  0.00    +0.130 C 
ATOM     15  C   UNL     1      10.236   5.105   3.978  0.00  0.00    +0.026 A 
ATOM     16  C   UNL     1      10.706   3.885   3.671  0.00  0.00    +0.022 A 
ATOM     17  C   UNL     1      10.949   5.975   1.797  0.00  0.00    +0.260 A 
ATOM     18  C   UNL     1      11.499   4.608   1.496  0.00  0.00    +0.053 A 
ATOM     19  C   UNL     1      11.352   3.638   2.412  0.00  0.00    +0.016 A 
ENDROOT
BRANCH  18  21
ATOM      2  S   UNL     1      11.280   3.967  -1.180  0.00  0.00    -0.096 S 
ATOM     21  C   UNL     1      12.195   4.326   0.228  0.00  0.00    +0.024 A 
ATOM     26  C   UNL     1      13.553   4.301  -0.030  0.00  0.00    +0.016 A 
ATOM     28  C   UNL     1      13.840   3.985  -1.389  0.00  0.00    +0.008 A 
ATOM     29  C   UNL     1      12.694   3.780  -2.126  0.00  0.00    +0.046 A 
ENDBRANCH  18  21
BRANCH   7   1
ATOM      1  S   UNL     1      12.711   7.550   6.769  0.00  0.00    +0.061 S 
ATOM      3  O   UNL     1      13.105   6.475   7.656  0.00  0.00    -0.153 OA
ATOM      4  O   UNL     1      12.539   8.899   7.267  0.00  0.00    -0.153 OA
BRANCH   1  20
ATOM     20  C   UNL     1      13.872   7.605   5.440  0.00  0.00    +0.106 A 
ATOM     22  C   UNL     1      13.445   7.313   4.155  0.00  0.00    +0.032 A 
ATOM     23  C   UNL     1      15.189   7.938   5.706  0.00  0.00    +0.032 A 
ATOM     24  C   UNL     1      14.362   7.356   3.105  0.00  0.00    +0.047 A 
ATOM     25  C   UNL     1      16.107   7.981   4.655  0.00  0.00    +0.047 A 
ATOM     27  C   UNL     1      15.693   7.690   3.355  0.00  0.00    +0.120 A 
BRANCH  27   6
ATOM      6  O   UNL     1      16.588   7.732   2.331  0.00  0.00    -0.495 OA
ATOM     30  C   UNL     1      16.119   7.337   1.043  0.00  0.00    +0.277 C 
ENDBRANCH  27   6
ENDBRANCH   1  20
ENDBRANCH   7   1
TORSDOF 4
ENDMDL
MODEL 3
REMARK VINA RESULT:      -6.3     19.249     20.618
REMARK  Name = 7143796
REMARK  5 active torsions:
REMARK  status: ('A' for Active; 'I' for Inactive)
REMARK    1  A    between atoms: S_1  and  N_7
REMARK    2  A    between atoms: S_1  and  C_20
REMARK    3  A    between atoms: O_6  and  C_27
REMARK    4  A    between atoms: O_6  and  C_30
REMARK    5  A    between atoms: C_18  and  C_21
REMARK                            x       y       z     vdW  Elec       q    Type
REMARK                         _______ _______ _______ _____ _____    ______ ____
ROOT
ATOM      5  O   UNL     1      -7.845  -8.911  17.103  0.00  0.00    -0.267 OA
ATOM      7  N   UNL     1      -3.949 -11.683  15.692  0.00  0.00    -0.176 NA
ATOM      8  N   UNL     1      -6.734 -10.957  16.998  0.00  0.00    -0.311 N 
ATOM      9  C   UNL     1      -4.463 -11.354  18.114  0.00  0.00    +0.025 C 
ATOM     10  C   UNL     1      -5.548 -13.176  16.875  0.00  0.00    +0.052 C 
ATOM     11  C   UNL     1      -4.925 -12.802  18.217  0.00  0.00    +0.017 C 
ATOM     12  C   UNL     1      -3.417 -11.199  16.998  0.00  0.00    +0.114 C 
ATOM     13  C   UNL     1      -4.483 -13.076  15.767  0.00  0.00    +0.119 C 
ATOM     14  C   UNL     1      -5.687 -10.456  17.898  0.00  0.00    +0.130 C 
ATOM     15  C   UNL     1      -6.730 -12.282  16.553  0.00  0.00    +0.026 A 
ATOM     16  C   UNL     1      -7.757 -12.752  15.827  0.00  0.00    +0.022 A 
ATOM     17  C   UNL     1      -7.789 -10.073  16.699  0.00  0.00    +0.260 A 
ATOM     18  C   UNL     1      -8.908 -10.617  15.853  0.00  0.00    +0.053 A 
ATOM     19  C   UNL     1      -8.858 -11.902  15.470  0.00  0.00    +0.016 A 
ENDROOT
BRANCH  18  21
ATOM      2  S   UNL     1     -11.378  -9.567  16.496  0.00  0.00    -0.096 S 
ATOM     21  C   UNL     1     -10.038  -9.767  15.442  0.00  0.00    +0.024 A 
ATOM     26  C   UNL     1     -10.207  -9.057  14.268  0.00  0.00    +0.016 A 
ATOM     28  C   UNL     1     -11.443  -8.348  14.236  0.00  0.00    +0.008 A 
ATOM     29  C   UNL     1     -12.177  -8.538  15.386  0.00  0.00    +0.046 A 
ENDBRANCH  18  21
BRANCH   7   1
ATOM      1  S   UNL     1      -2.985 -11.333  14.324  0.00  0.00    +0.061 S 
ATOM      3  O   UNL     1      -2.593 -12.574  13.689  0.00  0.00    -0.153 OA
ATOM      4  O   UNL     1      -1.996 -10.338  14.687  0.00  0.00    -0.153 OA
BRANCH   1  20
ATOM     20  C   UNL     1      -4.184 -10.553  13.290  0.00  0.00    +0.106 A 
ATOM     22  C   UNL     1      -3.843 -10.219  11.989  0.00  0.00    +0.032 A 
ATOM     23  C   UNL     1      -5.445 -10.288  13.796  0.00  0.00    +0.032 A 
ATOM     24  C   UNL     1      -4.791  -9.602  11.172  0.00  0.00    +0.047 A 
ATOM     25  C   UNL     1      -6.393  -9.672  12.979  0.00  0.00    +0.047 A 
ATOM     27  C   UNL     1      -6.066  -9.329  11.667  0.00  0.00    +0.120 A 
BRANCH  27   6
ATOM      6  O   UNL     1      -6.991  -8.727  10.870  0.00  0.00    -0.495 OA
ATOM     30  C   UNL     1      -6.656  -8.571   9.492  0.00  0.00    +0.277 C 
ENDBRANCH  27   6
ENDBRANCH   1  20
ENDBRANCH   7   1
TORSDOF 4
ENDMDL
MODEL 4
REMARK VINA RESULT:      -6.0     29.843     31.472
REMARK  Name = 7143796
REMARK  5 active torsions:
REMARK  status: ('A' for Active; 'I' for Inactive)
REMARK    1  A    between atoms: S_1  and  N_7
REMARK    2  A    between atoms: S_1  and  C_20
REMARK    3  A    between atoms: O_6  and  C_27
REMARK    4  A    between atoms: O_6  and  C_30
REMARK    5  A    between atoms: C_18  and  C_21
REMARK                            x       y       z     vdW  Elec       q    Type
REMARK                         _______ _______ _______ _____ _____    ______ ____
ROOT
ATOM      5  O   UNL     1       9.183  -9.665  33.409  0.00  0.00    -0.267 OA
ATOM      7  N   UNL     1       7.903  -6.011  36.548  0.00  0.00    -0.176 NA
ATOM      8  N   UNL     1       8.599  -7.446  33.820  0.00  0.00    -0.311 N 
ATOM      9  C   UNL     1      10.036  -5.885  35.255  0.00  0.00    +0.025 C 
ATOM     10  C   UNL     1       7.955  -5.050  34.254  0.00  0.00    +0.052 C 
ATOM     11  C   UNL     1       9.450  -4.778  34.388  0.00  0.00    +0.017 C 
ATOM     12  C   UNL     1       9.385  -5.881  36.648  0.00  0.00    +0.114 C 
ATOM     13  C   UNL     1       7.294  -4.989  35.644  0.00  0.00    +0.119 C 
ATOM     14  C   UNL     1       9.865  -7.227  34.533  0.00  0.00    +0.130 C 
ATOM     15  C   UNL     1       7.699  -6.399  33.608  0.00  0.00    +0.026 A 
ATOM     16  C   UNL     1       6.605  -6.593  32.855  0.00  0.00    +0.022 A 
ATOM     17  C   UNL     1       8.395  -8.728  33.274  0.00  0.00    +0.260 A 
ATOM     18  C   UNL     1       7.142  -8.926  32.464  0.00  0.00    +0.053 A 
ATOM     19  C   UNL     1       6.323  -7.878  32.281  0.00  0.00    +0.016 A 
ENDROOT
BRANCH  18  21
ATOM      2  S   UNL     1       6.303 -11.516  32.917  0.00  0.00    -0.096 S 
ATOM     21  C   UNL     1       6.804 -10.238  31.886  0.00  0.00    +0.024 A 
ATOM     26  C   UNL     1       6.828 -10.634  30.562  0.00  0.00    +0.016 A 
ATOM     28  C   UNL     1       6.433 -11.993  30.396  0.00  0.00    +0.008 A 
ATOM     29  C   UNL     1       6.119 -12.591  31.597  0.00  0.00    +0.046 A 
ENDBRANCH  18  21
BRANCH   7   1
ATOM      1  S   UNL     1       7.081  -6.276  38.024  0.00  0.00    +0.061 S 
ATOM      3  O   UNL     1       6.391  -5.062  38.408  0.00  0.00    -0.153 OA
ATOM      4  O   UNL     1       7.974  -6.947  38.946  0.00  0.00    -0.153 OA
BRANCH   1  20
ATOM     20  C   UNL     1       5.866  -7.444  37.498  0.00  0.00    +0.106 A 
ATOM     22  C   UNL     1       6.107  -8.211  36.371  0.00  0.00    +0.032 A 
ATOM     23  C   UNL     1       4.692  -7.572  38.221  0.00  0.00    +0.032 A 
ATOM     24  C   UNL     1       5.147  -9.133  35.954  0.00  0.00    +0.047 A 
ATOM     25  C   UNL     1       3.732  -8.494  37.805  0.00  0.00    +0.047 A 
ATOM     27  C   UNL     1       3.959  -9.275  36.672  0.00  0.00    +0.120 A 
BRANCH  27   6
ATOM      6  O   UNL     1       3.022 -10.175  36.266  0.00  0.00    -0.495 OA
ATOM     30  C   UNL     1       1.657  -9.770  36.345  0.00  0.00    +0.277 C 
ENDBRANCH  27   6
ENDBRANCH   1  20
ENDBRANCH   7   1
TORSDOF 4
ENDMDL
MODEL 5
REMARK VINA RESULT:      -6.0     25.872     29.401
REMARK  Name = 7143796
REMARK  5 active torsions:
REMARK  status: ('A' for Active; 'I' for Inactive)
REMARK    1  A    between atoms: S_1  and  N_7
REMARK    2  A    between atoms: S_1  and  C_20
REMARK    3  A    between atoms: O_6  and  C_27
REMARK    4  A    between atoms: O_6  and  C_30
REMARK    5  A    between atoms: C_18  and  C_21
REMARK                            x       y       z     vdW  Elec       q    Type
REMARK                         _______ _______ _______ _____ _____    ______ ____
ROOT
ATOM      5  O   UNL     1      14.076  12.510  18.025  0.00  0.00    -0.267 OA
ATOM      7  N   UNL     1      13.936   8.045  20.238  0.00  0.00    -0.176 NA
ATOM      8  N   UNL     1      13.208  10.354  18.207  0.00  0.00    -0.311 N 
ATOM      9  C   UNL     1      11.942   9.547  20.282  0.00  0.00    +0.025 C 
ATOM     10  C   UNL     1      12.274   8.021  18.387  0.00  0.00    +0.052 C 
ATOM     11  C   UNL     1      11.219   8.624  19.310  0.00  0.00    +0.017 C 
ATOM     12  C   UNL     1      12.965   8.759  21.115  0.00  0.00    +0.114 C 
ATOM     13  C   UNL     1      13.267   7.185  19.217  0.00  0.00    +0.119 C 
ATOM     14  C   UNL     1      12.586  10.694  19.495  0.00  0.00    +0.130 C 
ATOM     15  C   UNL     1      13.011   9.102  17.619  0.00  0.00    +0.026 A 
ATOM     16  C   UNL     1      13.490   8.853  16.390  0.00  0.00    +0.022 A 
ATOM     17  C   UNL     1      13.913  11.383  17.554  0.00  0.00    +0.260 A 
ATOM     18  C   UNL     1      14.469  11.063  16.193  0.00  0.00    +0.053 A 
ATOM     19  C   UNL     1      14.234   9.849  15.672  0.00  0.00    +0.016 A 
ENDROOT
BRANCH  18  21
ATOM      2  S   UNL     1      14.467  13.201  14.447  0.00  0.00    -0.096 S 
ATOM     21  C   UNL     1      15.264  12.049  15.441  0.00  0.00    +0.024 A 
ATOM     26  C   UNL     1      16.637  12.209  15.401  0.00  0.00    +0.016 A 
ATOM     28  C   UNL     1      17.032  13.281  14.550  0.00  0.00    +0.008 A 
ATOM     29  C   UNL     1      15.952  13.906  13.969  0.00  0.00    +0.046 A 
ENDBRANCH  18  21
BRANCH   7   1
ATOM      1  S   UNL     1      15.276   7.341  21.034  0.00  0.00    +0.061 S 
ATOM      3  O   UNL     1      15.783   6.247  20.233  0.00  0.00    -0.153 OA
ATOM      4  O   UNL     1      14.946   7.150  22.432  0.00  0.00    -0.153 OA
BRANCH   1  20
ATOM     20  C   UNL     1      16.434   8.669  20.927  0.00  0.00    +0.106 A 
ATOM     22  C   UNL     1      16.052   9.854  20.319  0.00  0.00    +0.032 A 
ATOM     23  C   UNL     1      17.705   8.504  21.450  0.00  0.00    +0.032 A 
ATOM     24  C   UNL     1      16.967  10.903  20.233  0.00  0.00    +0.047 A 
ATOM     25  C   UNL     1      18.620   9.553  21.365  0.00  0.00    +0.047 A 
ATOM     27  C   UNL     1      18.252  10.753  20.756  0.00  0.00    +0.120 A 
BRANCH  27   6
ATOM      6  O   UNL     1      19.144  11.776  20.672  0.00  0.00    -0.495 OA
ATOM     30  C   UNL     1      19.423  12.290  19.371  0.00  0.00    +0.277 C 
ENDBRANCH  27   6
ENDBRANCH   1  20
ENDBRANCH   7   1
TORSDOF 4
ENDMDL
MODEL 6
REMARK VINA RESULT:      -6.0     30.243     31.887
REMARK  Name = 7143796
REMARK  5 active torsions:
REMARK  status: ('A' for Active; 'I' for Inactive)
REMARK    1  A    between atoms: S_1  and  N_7
REMARK    2  A    between atoms: S_1  and  C_20
REMARK    3  A    between atoms: O_6  and  C_27
REMARK    4  A    between atoms: O_6  and  C_30
REMARK    5  A    between atoms: C_18  and  C_21
REMARK                            x       y       z     vdW  Elec       q    Type
REMARK                         _______ _______ _______ _____ _____    ______ ____
ROOT
ATOM      5  O   UNL     1       9.227 -11.981  31.749  0.00  0.00    -0.267 OA
ATOM      7  N   UNL     1       6.899  -9.072  35.061  0.00  0.00    -0.176 NA
ATOM      8  N   UNL     1       8.419  -9.898  32.417  0.00  0.00    -0.311 N 
ATOM      9  C   UNL     1       9.298  -8.677  34.489  0.00  0.00    +0.025 C 
ATOM     10  C   UNL     1       7.535  -7.648  33.124  0.00  0.00    +0.052 C 
ATOM     11  C   UNL     1       8.914  -7.411  33.733  0.00  0.00    +0.017 C 
ATOM     12  C   UNL     1       8.283  -8.967  35.607  0.00  0.00    +0.114 C 
ATOM     13  C   UNL     1       6.509  -7.882  34.248  0.00  0.00    +0.119 C 
ATOM     14  C   UNL     1       9.418  -9.835  33.492  0.00  0.00    +0.130 C 
ATOM     15  C   UNL     1       7.554  -8.830  32.172  0.00  0.00    +0.026 A 
ATOM     16  C   UNL     1       6.729  -8.859  31.113  0.00  0.00    +0.022 A 
ATOM     17  C   UNL     1       8.454 -11.035  31.587  0.00  0.00    +0.260 A 
ATOM     18  C   UNL     1       7.493 -11.057  30.429  0.00  0.00    +0.053 A 
ATOM     19  C   UNL     1       6.697  -9.994  30.234  0.00  0.00    +0.016 A 
ENDROOT
BRANCH  18  21
ATOM      2  S   UNL     1       6.303 -13.483  29.866  0.00  0.00    -0.096 S 
ATOM     21  C   UNL     1       7.411 -12.217  29.524  0.00  0.00    +0.024 A 
ATOM     26  C   UNL     1       8.129 -12.469  28.370  0.00  0.00    +0.016 A 
ATOM     28  C   UNL     1       7.766 -13.707  27.767  0.00  0.00    +0.008 A 
ATOM     29  C   UNL     1       6.783 -14.361  28.477  0.00  0.00    +0.046 A 
ENDBRANCH  18  21
BRANCH   7   1
ATOM      1  S   UNL     1       5.714  -9.643  36.154  0.00  0.00    +0.061 S 
ATOM      3  O   UNL     1       4.747  -8.592  36.397  0.00  0.00    -0.153 OA
ATOM      4  O   UNL     1       6.372 -10.317  37.253  0.00  0.00    -0.153 OA
BRANCH   1  20
ATOM     20  C   UNL     1       4.935 -10.871  35.153  0.00  0.00    +0.106 A 
ATOM     22  C   UNL     1       5.666 -11.496  34.156  0.00  0.00    +0.032 A 
ATOM     23  C   UNL     1       3.606 -11.186  35.380  0.00  0.00    +0.032 A 
ATOM     24  C   UNL     1       5.050 -12.466  33.365  0.00  0.00    +0.047 A 
ATOM     25  C   UNL     1       2.990 -12.156  34.588  0.00  0.00    +0.047 A 
ATOM     27  C   UNL     1       3.712 -12.796  33.580  0.00  0.00    +0.120 A 
BRANCH  27   6
ATOM      6  O   UNL     1       3.112 -13.742  32.809  0.00  0.00    -0.495 OA
ATOM     30  C   UNL     1       3.818 -14.966  32.614  0.00  0.00    +0.277 C 
ENDBRANCH  27   6
ENDBRANCH   1  20
ENDBRANCH   7   1
TORSDOF 4
ENDMDL
MODEL 7
REMARK VINA RESULT:      -6.0     20.643     22.415
REMARK  Name = 7143796
REMARK  5 active torsions:
REMARK  status: ('A' for Active; 'I' for Inactive)
REMARK    1  A    between atoms: S_1  and  N_7
REMARK    2  A    between atoms: S_1  and  C_20
REMARK    3  A    between atoms: O_6  and  C_27
REMARK    4  A    between atoms: O_6  and  C_30
REMARK    5  A    between atoms: C_18  and  C_21
REMARK                            x       y       z     vdW  Elec       q    Type
REMARK                         _______ _______ _______ _____ _____    ______ ____
ROOT
ATOM      5  O   UNL     1      -5.527 -12.592  10.370  0.00  0.00    -0.267 OA
ATOM      7  N   UNL     1      -3.607 -12.042  14.938  0.00  0.00    -0.176 NA
ATOM      8  N   UNL     1      -3.700 -12.311  11.790  0.00  0.00    -0.311 N 
ATOM      9  C   UNL     1      -3.046 -14.046  13.557  0.00  0.00    +0.025 C 
ATOM     10  C   UNL     1      -1.722 -11.992  13.317  0.00  0.00    +0.052 C 
ATOM     11  C   UNL     1      -1.633 -13.515  13.353  0.00  0.00    +0.017 C 
ATOM     12  C   UNL     1      -3.630 -13.532  14.883  0.00  0.00    +0.114 C 
ATOM     13  C   UNL     1      -2.253 -11.475  14.667  0.00  0.00    +0.119 C 
ATOM     14  C   UNL     1      -3.905 -13.655  12.349  0.00  0.00    +0.130 C 
ATOM     15  C   UNL     1      -2.616 -11.523  12.185  0.00  0.00    +0.026 A 
ATOM     16  C   UNL     1      -2.381 -10.349  11.578  0.00  0.00    +0.022 A 
ATOM     17  C   UNL     1      -4.583 -11.909  10.769  0.00  0.00    +0.260 A 
ATOM     18  C   UNL     1      -4.316 -10.572  10.133  0.00  0.00    +0.053 A 
ATOM     19  C   UNL     1      -3.250  -9.867  10.541  0.00  0.00    +0.016 A 
ENDROOT
BRANCH  18  21
ATOM      2  S   UNL     1      -6.506  -9.005   9.528  0.00  0.00    -0.096 S 
ATOM     21  C   UNL     1      -5.203 -10.032   9.088  0.00  0.00    +0.024 A 
ATOM     26  C   UNL     1      -5.155 -10.232   7.721  0.00  0.00    +0.016 A 
ATOM     28  C   UNL     1      -6.192  -9.538   7.035  0.00  0.00    +0.008 A 
ATOM     29  C   UNL     1      -7.000  -8.830   7.899  0.00  0.00    +0.046 A 
ENDBRANCH  18  21
BRANCH   7   1
ATOM      1  S   UNL     1      -4.458 -11.336  16.243  0.00  0.00    +0.061 S 
ATOM      3  O   UNL     1      -3.723 -10.185  16.722  0.00  0.00    -0.153 OA
ATOM      4  O   UNL     1      -4.877 -12.383  17.153  0.00  0.00    -0.153 OA
BRANCH   1  20
ATOM     20  C   UNL     1      -5.891 -10.747  15.397  0.00  0.00    +0.106 A 
ATOM     22  C   UNL     1      -7.077 -10.598  16.097  0.00  0.00    +0.032 A 
ATOM     23  C   UNL     1      -5.805 -10.446  14.049  0.00  0.00    +0.032 A 
ATOM     24  C   UNL     1      -8.210 -10.133  15.428  0.00  0.00    +0.047 A 
ATOM     25  C   UNL     1      -6.938  -9.980  13.380  0.00  0.00    +0.047 A 
ATOM     27  C   UNL     1      -8.141  -9.824  14.070  0.00  0.00    +0.120 A 
BRANCH  27   6
ATOM      6  O   UNL     1      -9.245  -9.370  13.418  0.00  0.00    -0.495 OA
ATOM     30  C   UNL     1     -10.393  -9.077  14.213  0.00  0.00    +0.277 C 
ENDBRANCH  27   6
ENDBRANCH   1  20
ENDBRANCH   7   1
TORSDOF 4
ENDMDL
MODEL 8
REMARK VINA RESULT:      -5.9     22.289     25.039
REMARK  Name = 7143796
REMARK  5 active torsions:
REMARK  status: ('A' for Active; 'I' for Inactive)
REMARK    1  A    between atoms: S_1  and  N_7
REMARK    2  A    between atoms: S_1  and  C_20
REMARK    3  A    between atoms: O_6  and  C_27
REMARK    4  A    between atoms: O_6  and  C_30
REMARK    5  A    between atoms: C_18  and  C_21
REMARK                            x       y       z     vdW  Elec       q    Type
REMARK                         _______ _______ _______ _____ _____    ______ ____
ROOT
ATOM      5  O   UNL     1       0.024   8.840  41.285  0.00  0.00    -0.267 OA
ATOM      7  N   UNL     1      -3.440   9.885  37.857  0.00  0.00    -0.176 NA
ATOM      8  N   UNL     1      -0.671   8.957  39.063  0.00  0.00    -0.311 N 
ATOM      9  C   UNL     1      -1.298  11.166  37.928  0.00  0.00    +0.025 C 
ATOM     10  C   UNL     1      -1.420   9.067  36.660  0.00  0.00    +0.052 C 
ATOM     11  C   UNL     1      -0.838  10.478  36.650  0.00  0.00    +0.017 C 
ATOM     12  C   UNL     1      -2.833  11.241  37.980  0.00  0.00    +0.114 C 
ATOM     13  C   UNL     1      -2.958   9.143  36.654  0.00  0.00    +0.119 C 
ATOM     14  C   UNL     1      -0.707  10.425  39.134  0.00  0.00    +0.130 C 
ATOM     15  C   UNL     1      -0.936   8.285  37.868  0.00  0.00    +0.026 A 
ATOM     16  C   UNL     1      -0.783   6.953  37.795  0.00  0.00    +0.022 A 
ATOM     17  C   UNL     1      -0.253   8.278  40.224  0.00  0.00    +0.260 A 
ATOM     18  C   UNL     1      -0.126   6.783  40.123  0.00  0.00    +0.053 A 
ATOM     19  C   UNL     1      -0.377   6.193  38.944  0.00  0.00    +0.016 A 
ENDROOT
BRANCH  18  21
ATOM      2  S   UNL     1       1.908   5.559  41.532  0.00  0.00    -0.096 S 
ATOM     21  C   UNL     1       0.259   5.968  41.289  0.00  0.00    +0.024 A 
ATOM     26  C   UNL     1      -0.545   5.443  42.284  0.00  0.00    +0.016 A 
ATOM     28  C   UNL     1       0.199   4.703  43.248  0.00  0.00    +0.008 A 
ATOM     29  C   UNL     1       1.546   4.687  42.959  0.00  0.00    +0.046 A 
ENDBRANCH  18  21
BRANCH   7   1
ATOM      1  S   UNL     1      -5.123   9.798  38.155  0.00  0.00    +0.061 S 
ATOM      3  O   UNL     1      -5.749   9.014  37.111  0.00  0.00    -0.153 OA
ATOM      4  O   UNL     1      -5.611  11.121  38.488  0.00  0.00    -0.153 OA
BRANCH   1  20
ATOM     20  C   UNL     1      -5.127   8.831  39.632  0.00  0.00    +0.106 A 
ATOM     22  C   UNL     1      -6.248   8.842  40.446  0.00  0.00    +0.032 A 
ATOM     23  C   UNL     1      -4.010   8.078  39.952  0.00  0.00    +0.032 A 
ATOM     24  C   UNL     1      -6.251   8.078  41.613  0.00  0.00    +0.047 A 
ATOM     25  C   UNL     1      -4.013   7.314  41.119  0.00  0.00    +0.047 A 
ATOM     27  C   UNL     1      -5.133   7.314  41.950  0.00  0.00    +0.120 A 
BRANCH  27   6
ATOM      6  O   UNL     1      -5.136   6.569  43.089  0.00  0.00    -0.495 OA
ATOM     30  C   UNL     1      -4.787   5.192  42.964  0.00  0.00    +0.277 C 
ENDBRANCH  27   6
ENDBRANCH   1  20
ENDBRANCH   7   1
TORSDOF 4
ENDMDL
MODEL 9
REMARK VINA RESULT:      -5.9     27.174     30.145
REMARK  Name = 7143796
REMARK  5 active torsions:
REMARK  status: ('A' for Active; 'I' for Inactive)
REMARK    1  A    between atoms: S_1  and  N_7
REMARK    2  A    between atoms: S_1  and  C_20
REMARK    3  A    between atoms: O_6  and  C_27
REMARK    4  A    between atoms: O_6  and  C_30
REMARK    5  A    between atoms: C_18  and  C_21
REMARK                            x       y       z     vdW  Elec       q    Type
REMARK                         _______ _______ _______ _____ _____    ______ ____
ROOT
ATOM      5  O   UNL     1      11.955   7.796   2.368  0.00  0.00    -0.267 OA
ATOM      7  N   UNL     1      12.814   4.201  -0.977  0.00  0.00    -0.176 NA
ATOM      8  N   UNL     1      12.616   5.624   1.838  0.00  0.00    -0.311 N 
ATOM      9  C   UNL     1      14.679   5.121   0.405  0.00  0.00    +0.025 C 
ATOM     10  C   UNL     1      13.318   3.271   1.274  0.00  0.00    +0.052 C 
ATOM     11  C   UNL     1      14.739   3.822   1.198  0.00  0.00    +0.017 C 
ATOM     12  C   UNL     1      14.149   4.864  -1.014  0.00  0.00    +0.114 C 
ATOM     13  C   UNL     1      12.809   2.960  -0.146  0.00  0.00    +0.119 C 
ATOM     14  C   UNL     1      13.824   6.135   1.175  0.00  0.00    +0.130 C 
ATOM     15  C   UNL     1      12.388   4.252   1.964  0.00  0.00    +0.026 A 
ATOM     16  C   UNL     1      11.339   3.806   2.674  0.00  0.00    +0.022 A 
ATOM     17  C   UNL     1      11.766   6.579   2.427  0.00  0.00    +0.260 A 
ATOM     18  C   UNL     1      10.579   6.051   3.186  0.00  0.00    +0.053 A 
ATOM     19  C   UNL     1      10.420   4.723   3.288  0.00  0.00    +0.016 A 
ENDROOT
BRANCH  18  21
ATOM      2  S   UNL     1       9.614   7.198   5.504  0.00  0.00    -0.096 S 
ATOM     21  C   UNL     1       9.599   6.962   3.803  0.00  0.00    +0.024 A 
ATOM     26  C   UNL     1       8.604   7.705   3.197  0.00  0.00    +0.016 A 
ATOM     28  C   UNL     1       7.852   8.470   4.134  0.00  0.00    +0.008 A 
ATOM     29  C   UNL     1       8.296   8.288   5.425  0.00  0.00    +0.046 A 
ENDBRANCH  18  21
BRANCH   7   1
ATOM      1  S   UNL     1      12.000   4.091  -2.477  0.00  0.00    +0.061 S 
ATOM      3  O   UNL     1      11.324   2.813  -2.557  0.00  0.00    -0.153 OA
ATOM      4  O   UNL     1      12.893   4.528  -3.531  0.00  0.00    -0.153 OA
BRANCH   1  20
ATOM     20  C   UNL     1      10.770   5.338  -2.256  0.00  0.00    +0.106 A 
ATOM     22  C   UNL     1      10.809   6.135  -1.124  0.00  0.00    +0.032 A 
ATOM     23  C   UNL     1       9.787   5.498  -3.218  0.00  0.00    +0.032 A 
ATOM     24  C   UNL     1       9.837   7.120  -0.949  0.00  0.00    +0.047 A 
ATOM     25  C   UNL     1       8.815   6.483  -3.043  0.00  0.00    +0.047 A 
ATOM     27  C   UNL     1       8.840   7.294  -1.908  0.00  0.00    +0.120 A 
BRANCH  27   6
ATOM      6  O   UNL     1       7.892   8.255  -1.737  0.00  0.00    -0.495 OA
ATOM     30  C   UNL     1       7.981   9.052  -0.558  0.00  0.00    +0.277 C 
ENDBRANCH  27   6
ENDBRANCH   1  20
ENDBRANCH   7   1
TORSDOF 4
ENDMDL
MODEL 10
REMARK VINA RESULT:      -5.8     14.380     17.204
REMARK  Name = 7143796
REMARK  5 active torsions:
REMARK  status: ('A' for Active; 'I' for Inactive)
REMARK    1  A    between atoms: S_1  and  N_7
REMARK    2  A    between atoms: S_1  and  C_20
REMARK    3  A    between atoms: O_6  and  C_27
REMARK    4  A    between atoms: O_6  and  C_30
REMARK    5  A    between atoms: C_18  and  C_21
REMARK                            x       y       z     vdW  Elec       q    Type
REMARK                         _______ _______ _______ _____ _____    ______ ____
ROOT
ATOM      5  O   UNL     1      -6.367  10.342   5.472  0.00  0.00    -0.267 OA
ATOM      7  N   UNL     1      -1.590  10.613   4.072  0.00  0.00    -0.176 NA
ATOM      8  N   UNL     1      -4.149   9.647   5.654  0.00  0.00    -0.311 N 
ATOM      9  C   UNL     1      -2.267  11.217   6.399  0.00  0.00    +0.025 C 
ATOM     10  C   UNL     1      -1.758   8.879   5.847  0.00  0.00    +0.052 C 
ATOM     11  C   UNL     1      -1.608   9.949   6.925  0.00  0.00    +0.017 C 
ATOM     12  C   UNL     1      -1.581  11.687   5.107  0.00  0.00    +0.114 C 
ATOM     13  C   UNL     1      -1.020   9.326   4.571  0.00  0.00    +0.119 C 
ATOM     14  C   UNL     1      -3.766  10.955   6.203  0.00  0.00    +0.130 C 
ATOM     15  C   UNL     1      -3.220   8.610   5.543  0.00  0.00    +0.026 A 
ATOM     16  C   UNL     1      -3.616   7.389   5.149  0.00  0.00    +0.022 A 
ATOM     17  C   UNL     1      -5.512   9.462   5.352  0.00  0.00    +0.260 A 
ATOM     18  C   UNL     1      -5.920   8.094   4.878  0.00  0.00    +0.053 A 
ATOM     19  C   UNL     1      -4.987   7.133   4.807  0.00  0.00    +0.016 A 
ENDROOT
BRANCH  18  21
ATOM      2  S   UNL     1      -8.384   7.106   5.635  0.00  0.00    -0.096 S 
ATOM     21  C   UNL     1      -7.311   7.803   4.490  0.00  0.00    +0.024 A 
ATOM     26  C   UNL     1      -7.935   8.012   3.274  0.00  0.00    +0.016 A 
ATOM     28  C   UNL     1      -9.297   7.597   3.285  0.00  0.00    +0.008 A 
ATOM     29  C   UNL     1      -9.672   7.086   4.508  0.00  0.00    +0.046 A 
ENDBRANCH  18  21
BRANCH   7   1
ATOM      1  S   UNL     1      -1.088  11.088   2.508  0.00  0.00    +0.061 S 
ATOM      3  O   UNL     1      -0.038  10.199   2.056  0.00  0.00    -0.153 OA
ATOM      4  O   UNL     1      -0.907  12.525   2.487  0.00  0.00    -0.153 OA
BRANCH   1  20
ATOM     20  C   UNL     1      -2.546  10.712   1.586  0.00  0.00    +0.106 A 
ATOM     22  C   UNL     1      -2.473  10.632   0.205  0.00  0.00    +0.032 A 
ATOM     23  C   UNL     1      -3.738  10.504   2.260  0.00  0.00    +0.032 A 
ATOM     24  C   UNL     1      -3.626  10.336  -0.523  0.00  0.00    +0.047 A 
ATOM     25  C   UNL     1      -4.890  10.207   1.531  0.00  0.00    +0.047 A 
ATOM     27  C   UNL     1      -4.834  10.123   0.140  0.00  0.00    +0.120 A 
BRANCH  27   6
ATOM      6  O   UNL     1      -5.958   9.834  -0.570  0.00  0.00    -0.495 OA
ATOM     30  C   UNL     1      -5.788   9.492  -1.945  0.00  0.00    +0.277 C 
ENDBRANCH  27   6
ENDBRANCH   1  20
ENDBRANCH   7   1
TORSDOF 4
ENDMDL
