MODEL 1
REMARK VINA RESULT:      -7.2      0.000      0.000
REMARK  Name = 11883041
REMARK  12 active torsions:
REMARK  status: ('A' for Active; 'I' for Inactive)
REMARK    1  A    between atoms: O_4  and  C_17
REMARK    2  A    between atoms: O_5  and  C_22
REMARK    3  A    between atoms: O_8  and  C_38
REMARK    4  A    between atoms: O_8  and  C_42
REMARK    5  A    between atoms: N_10  and  C_28
REMARK    6  A    between atoms: C_12  and  C_20
REMARK    7  A    between atoms: C_14  and  C_22
REMARK    8  A    between atoms: C_14  and  C_23
REMARK    9  A    between atoms: C_15  and  C_25
REMARK   10  A    between atoms: C_25  and  C_26
REMARK   11  A    between atoms: C_28  and  C_30
REMARK   12  A    between atoms: C_29  and  C_31
REMARK                            x       y       z     vdW  Elec       q    Type
REMARK                         _______ _______ _______ _____ _____    ______ ____
ROOT
ATOM      1  S   UNL     1      15.179   8.086   6.122  0.00  0.00    -0.057 S 
ATOM      7  O   UNL     1      12.288   6.572   2.802  0.00  0.00    -0.270 OA
ATOM      9  N   UNL     1      14.997   7.425   3.627  0.00  0.00    -0.229 NA
ATOM     11  N   UNL     1      12.983   7.270   4.943  0.00  0.00    -0.261 N 
ATOM     12  C   UNL     1      18.639   8.610   3.183  0.00  0.00    -0.019 C 
ATOM     13  C   UNL     1      19.032   8.219   4.675  0.00  0.00    +0.011 C 
ATOM     14  C   UNL     1      20.483   8.604   5.158  0.00  0.00    +0.021 C 
ATOM     15  C   UNL     1      17.347   7.763   2.775  0.00  0.00    +0.054 C 
ATOM     16  C   UNL     1      19.798   8.223   2.226  0.00  0.00    +0.010 C 
ATOM     17  C   UNL     1      21.512   8.191   4.068  0.00  0.00    +0.123 C 
ATOM     18  C   UNL     1      17.911   8.616   5.680  0.00  0.00    +0.049 C 
ATOM     19  C   UNL     1      21.164   8.720   2.681  0.00  0.00    +0.032 C 
ATOM     20  C   UNL     1      18.340  10.120   3.015  0.00  0.00    +0.012 C 
ATOM     21  C   UNL     1      16.305   7.806   3.863  0.00  0.00    +0.058 A 
ATOM     23  C   UNL     1      20.822   7.796   6.443  0.00  0.00    +0.016 C 
ATOM     24  C   UNL     1      16.584   8.174   5.163  0.00  0.00    +0.015 A 
ATOM     27  C   UNL     1      14.311   7.539   4.744  0.00  0.00    +0.165 A 
ATOM     29  C   UNL     1      12.066   6.813   3.983  0.00  0.00    +0.255 C 
ATOM     46  H   UNL     1      12.669   7.411   5.898  0.00  0.00    +0.157 HD
ENDROOT
BRANCH  29  31
ATOM      2  F   UNL     1      10.317   8.911   4.691  0.00  0.00    -0.205 F 
ATOM      3  F   UNL     1      10.987   4.225   4.303  0.00  0.00    -0.205 F 
ATOM     31  C   UNL     1      10.686   6.574   4.485  0.00  0.00    +0.107 A 
ATOM     34  C   UNL     1       9.869   7.653   4.819  0.00  0.00    +0.138 A 
ATOM     35  C   UNL     1      10.209   5.270   4.621  0.00  0.00    +0.138 A 
ATOM     39  C   UNL     1       8.575   7.430   5.289  0.00  0.00    +0.039 A 
ATOM     40  C   UNL     1       8.915   5.046   5.091  0.00  0.00    +0.039 A 
ATOM     41  C   UNL     1       8.098   6.126   5.426  0.00  0.00    +0.006 A 
ENDBRANCH  29  31
BRANCH  17   4
ATOM      4  O   UNL     1      22.821   8.641   4.415  0.00  0.00    -0.391 OA
ATOM     43  H   UNL     1      22.725   9.453   4.941  0.00  0.00    +0.210 HD
ENDBRANCH  17   4
BRANCH  14  22
ATOM     22  C   UNL     1      20.657  10.090   5.545  0.00  0.00    +0.165 C 
BRANCH  22   5
ATOM      5  O   UNL     1      21.541  10.150   6.642  0.00  0.00    -0.394 OA
ATOM     44  H   UNL     1      21.645  11.087   6.879  0.00  0.00    +0.209 HD
ENDBRANCH  22   5
ENDBRANCH  14  22
BRANCH  15  25
ATOM     25  C   UNL     1      16.750   8.128   1.409  0.00  0.00    +0.106 C 
BRANCH  25  26
ATOM      6  O   UNL     1      17.642   7.144  -0.613  0.00  0.00    -0.276 OA
ATOM     10  N   UNL     1      16.238   5.890   0.749  0.00  0.00    -0.311 N 
ATOM     26  C   UNL     1      16.946   7.028   0.392  0.00  0.00    +0.214 C 
ATOM     45  H   UNL     1      15.694   5.894   1.608  0.00  0.00    +0.149 HD
BRANCH  10  28
ATOM     28  C   UNL     1      16.237   4.680  -0.040  0.00  0.00    +0.139 C 
BRANCH  28  30
ATOM     30  C   UNL     1      14.850   4.268  -0.439  0.00  0.00    -0.030 A 
ATOM     32  C   UNL     1      14.460   4.338  -1.776  0.00  0.00    +0.009 A 
ATOM     33  C   UNL     1      13.951   3.815   0.527  0.00  0.00    +0.009 A 
ATOM     36  C   UNL     1      13.171   3.954  -2.148  0.00  0.00    +0.046 A 
ATOM     37  C   UNL     1      12.663   3.431   0.155  0.00  0.00    +0.046 A 
ATOM     38  C   UNL     1      12.273   3.501  -1.182  0.00  0.00    +0.120 A 
BRANCH  38   8
ATOM      8  O   UNL     1      11.015   3.128  -1.545  0.00  0.00    -0.495 OA
ATOM     42  C   UNL     1      10.888   2.326  -2.718  0.00  0.00    +0.277 C 
ENDBRANCH  38   8
ENDBRANCH  28  30
ENDBRANCH  10  28
ENDBRANCH  25  26
ENDBRANCH  15  25
TORSDOF 9
ENDMDL
MODEL 2
REMARK VINA RESULT:      -7.1     17.019     21.231
REMARK  Name = 11883041
REMARK  12 active torsions:
REMARK  status: ('A' for Active; 'I' for Inactive)
REMARK    1  A    between atoms: O_4  and  C_17
REMARK    2  A    between atoms: O_5  and  C_22
REMARK    3  A    between atoms: O_8  and  C_38
REMARK    4  A    between atoms: O_8  and  C_42
REMARK    5  A    between atoms: N_10  and  C_28
REMARK    6  A    between atoms: C_12  and  C_20
REMARK    7  A    between atoms: C_14  and  C_22
REMARK    8  A    between atoms: C_14  and  C_23
REMARK    9  A    between atoms: C_15  and  C_25
REMARK   10  A    between atoms: C_25  and  C_26
REMARK   11  A    between atoms: C_28  and  C_30
REMARK   12  A    between atoms: C_29  and  C_31
REMARK                            x       y       z     vdW  Elec       q    Type
REMARK                         _______ _______ _______ _____ _____    ______ ____
ROOT
ATOM      1  S   UNL     1      17.981   6.236  20.099  0.00  0.00    -0.057 S 
ATOM      7  O   UNL     1      20.854   8.744  22.769  0.00  0.00    -0.270 OA
ATOM      9  N   UNL     1      18.214   8.414  21.475  0.00  0.00    -0.229 NA
ATOM     11  N   UNL     1      20.132   6.955  21.415  0.00  0.00    -0.261 N 
ATOM     12  C   UNL     1      14.748   9.465  20.155  0.00  0.00    -0.019 C 
ATOM     13  C   UNL     1      14.241   7.959  20.055  0.00  0.00    +0.011 C 
ATOM     14  C   UNL     1      12.818   7.723  19.419  0.00  0.00    +0.021 C 
ATOM     15  C   UNL     1      15.960   9.510  21.195  0.00  0.00    +0.054 C 
ATOM     16  C   UNL     1      13.603  10.359  20.701  0.00  0.00    +0.010 C 
ATOM     17  C   UNL     1      11.806   8.726  20.040  0.00  0.00    +0.123 C 
ATOM     18  C   UNL     1      15.347   7.024  19.482  0.00  0.00    +0.049 C 
ATOM     19  C   UNL     1      12.278  10.175  19.973  0.00  0.00    +0.032 C 
ATOM     20  C   UNL     1      15.216  10.034  18.793  0.00  0.00    +0.012 C 
ATOM     21  C   UNL     1      16.945   8.401  20.927  0.00  0.00    +0.058 A 
ATOM     23  C   UNL     1      12.331   6.291  19.782  0.00  0.00    +0.016 C 
ATOM     24  C   UNL     1      16.643   7.287  20.171  0.00  0.00    +0.015 A 
ATOM     27  C   UNL     1      18.852   7.326  21.100  0.00  0.00    +0.165 A 
ATOM     29  C   UNL     1      21.041   7.668  22.213  0.00  0.00    +0.255 C 
ATOM     46  H   UNL     1      20.412   6.058  21.029  0.00  0.00    +0.157 HD
ENDROOT
BRANCH  29  31
ATOM      2  F   UNL     1      21.664   6.180  24.529  0.00  0.00    -0.205 F 
ATOM      3  F   UNL     1      23.123   7.810  20.313  0.00  0.00    -0.205 F 
ATOM     31  C   UNL     1      22.361   7.012  22.416  0.00  0.00    +0.107 A 
ATOM     34  C   UNL     1      22.608   6.290  23.583  0.00  0.00    +0.138 A 
ATOM     35  C   UNL     1      23.351   7.119  21.439  0.00  0.00    +0.138 A 
ATOM     39  C   UNL     1      23.846   5.674  23.774  0.00  0.00    +0.039 A 
ATOM     40  C   UNL     1      24.588   6.503  21.630  0.00  0.00    +0.039 A 
ATOM     41  C   UNL     1      24.836   5.781  22.797  0.00  0.00    +0.006 A 
ENDBRANCH  29  31
BRANCH  17   4
ATOM      4  O   UNL     1      10.538   8.627  19.394  0.00  0.00    -0.391 OA
ATOM     43  H   UNL     1      10.652   8.078  18.600  0.00  0.00    +0.210 HD
ENDBRANCH  17   4
BRANCH  14  22
ATOM     22  C   UNL     1      12.786   7.793  17.876  0.00  0.00    +0.165 C 
BRANCH  22   5
ATOM      5  O   UNL     1      11.729   6.973  17.428  0.00  0.00    -0.394 OA
ATOM     44  H   UNL     1      11.212   7.490  16.787  0.00  0.00    +0.209 HD
ENDBRANCH  22   5
ENDBRANCH  14  22
BRANCH  15  25
ATOM     25  C   UNL     1      16.660  10.872  21.300  0.00  0.00    +0.106 C 
BRANCH  25  26
ATOM      6  O   UNL     1      16.478  12.838  22.698  0.00  0.00    -0.276 OA
ATOM     10  N   UNL     1      15.387  10.883  23.322  0.00  0.00    -0.311 N 
ATOM     26  C   UNL     1      16.184  11.663  22.497  0.00  0.00    +0.214 C 
ATOM     45  H   UNL     1      15.198   9.919  23.062  0.00  0.00    +0.149 HD
BRANCH  10  28
ATOM     28  C   UNL     1      14.793  11.377  24.542  0.00  0.00    +0.139 C 
BRANCH  28  30
ATOM     30  C   UNL     1      13.468  12.039  24.297  0.00  0.00    -0.030 A 
ATOM     32  C   UNL     1      12.347  11.263  24.000  0.00  0.00    +0.009 A 
ATOM     33  C   UNL     1      13.357  13.428  24.366  0.00  0.00    +0.009 A 
ATOM     36  C   UNL     1      11.115  11.877  23.773  0.00  0.00    +0.046 A 
ATOM     37  C   UNL     1      12.125  14.041  24.140  0.00  0.00    +0.046 A 
ATOM     38  C   UNL     1      11.004  13.266  23.843  0.00  0.00    +0.120 A 
BRANCH  38   8
ATOM      8  O   UNL     1       9.802  13.864  23.620  0.00  0.00    -0.495 OA
ATOM     42  C   UNL     1       9.735  15.277  23.807  0.00  0.00    +0.277 C 
ENDBRANCH  38   8
ENDBRANCH  28  30
ENDBRANCH  10  28
ENDBRANCH  25  26
ENDBRANCH  15  25
TORSDOF 9
ENDMDL
MODEL 3
REMARK VINA RESULT:      -6.9     27.164     32.471
REMARK  Name = 11883041
REMARK  12 active torsions:
REMARK  status: ('A' for Active; 'I' for Inactive)
REMARK    1  A    between atoms: O_4  and  C_17
REMARK    2  A    between atoms: O_5  and  C_22
REMARK    3  A    between atoms: O_8  and  C_38
REMARK    4  A    between atoms: O_8  and  C_42
REMARK    5  A    between atoms: N_10  and  C_28
REMARK    6  A    between atoms: C_12  and  C_20
REMARK    7  A    between atoms: C_14  and  C_22
REMARK    8  A    between atoms: C_14  and  C_23
REMARK    9  A    between atoms: C_15  and  C_25
REMARK   10  A    between atoms: C_25  and  C_26
REMARK   11  A    between atoms: C_28  and  C_30
REMARK   12  A    between atoms: C_29  and  C_31
REMARK                            x       y       z     vdW  Elec       q    Type
REMARK                         _______ _______ _______ _____ _____    ______ ____
ROOT
ATOM      1  S   UNL     1     -10.087  -9.968  13.280  0.00  0.00    -0.057 S 
ATOM      7  O   UNL     1      -5.458 -10.079  13.759  0.00  0.00    -0.270 OA
ATOM      9  N   UNL     1      -8.146 -10.019  14.990  0.00  0.00    -0.229 NA
ATOM     11  N   UNL     1      -7.540 -10.025  12.657  0.00  0.00    -0.261 N 
ATOM     12  C   UNL     1     -10.767  -9.566  17.781  0.00  0.00    -0.019 C 
ATOM     13  C   UNL     1     -11.889 -10.346  16.963  0.00  0.00    +0.011 C 
ATOM     14  C   UNL     1     -13.334 -10.391  17.594  0.00  0.00    +0.021 C 
ATOM     15  C   UNL     1      -9.343 -10.011  17.211  0.00  0.00    +0.054 C 
ATOM     16  C   UNL     1     -10.844  -9.974  19.277  0.00  0.00    +0.010 C 
ATOM     17  C   UNL     1     -13.225 -10.767  19.099  0.00  0.00    +0.123 C 
ATOM     18  C   UNL     1     -11.875  -9.947  15.458  0.00  0.00    +0.049 C 
ATOM     19  C   UNL     1     -12.244  -9.888  19.868  0.00  0.00    +0.032 C 
ATOM     20  C   UNL     1     -10.907  -8.028  17.678  0.00  0.00    +0.012 C 
ATOM     21  C   UNL     1      -9.330  -9.984  15.704  0.00  0.00    +0.058 A 
ATOM     23  C   UNL     1     -14.157 -11.511  16.896  0.00  0.00    +0.016 C 
ATOM     24  C   UNL     1     -10.478  -9.974  14.938  0.00  0.00    +0.015 A 
ATOM     27  C   UNL     1      -8.423 -10.007  13.704  0.00  0.00    +0.165 A 
ATOM     29  C   UNL     1      -6.139 -10.058  12.740  0.00  0.00    +0.255 C 
ATOM     46  H   UNL     1      -7.980 -10.030  11.742  0.00  0.00    +0.157 HD
ENDROOT
BRANCH  29  31
ATOM      2  F   UNL     1      -5.449 -12.477  11.461  0.00  0.00    -0.205 F 
ATOM      3  F   UNL     1      -5.366  -7.729  11.347  0.00  0.00    -0.205 F 
ATOM     31  C   UNL     1      -5.425 -10.102  11.436  0.00  0.00    +0.107 A 
ATOM     34  C   UNL     1      -5.111 -11.330  10.854  0.00  0.00    +0.138 A 
ATOM     35  C   UNL     1      -5.069  -8.915  10.796  0.00  0.00    +0.138 A 
ATOM     39  C   UNL     1      -4.441 -11.371   9.631  0.00  0.00    +0.039 A 
ATOM     40  C   UNL     1      -4.399  -8.956   9.573  0.00  0.00    +0.039 A 
ATOM     41  C   UNL     1      -4.085 -10.184   8.991  0.00  0.00    +0.006 A 
ENDBRANCH  29  31
BRANCH  17   4
ATOM      4  O   UNL     1     -14.501 -10.691  19.731  0.00  0.00    -0.391 OA
ATOM     43  H   UNL     1     -15.151 -11.102  19.135  0.00  0.00    +0.210 HD
ENDBRANCH  17   4
BRANCH  14  22
ATOM     22  C   UNL     1     -14.156  -9.096  17.408  0.00  0.00    +0.165 C 
BRANCH  22   5
ATOM      5  O   UNL     1     -15.521  -9.449  17.390  0.00  0.00    -0.394 OA
ATOM     44  H   UNL     1     -15.878  -9.184  16.526  0.00  0.00    +0.209 HD
ENDBRANCH  22   5
ENDBRANCH  14  22
BRANCH  15  25
ATOM     25  C   UNL     1      -8.152  -9.241  17.797  0.00  0.00    +0.106 C 
BRANCH  25  26
ATOM      6  O   UNL     1      -7.244 -10.674  19.522  0.00  0.00    -0.276 OA
ATOM     10  N   UNL     1      -6.049 -10.348  17.557  0.00  0.00    -0.311 N 
ATOM     26  C   UNL     1      -7.126 -10.165  18.411  0.00  0.00    +0.214 C 
ATOM     45  H   UNL     1      -6.049  -9.884  16.652  0.00  0.00    +0.149 HD
BRANCH  10  28
ATOM     28  C   UNL     1      -4.915 -11.181  17.883  0.00  0.00    +0.139 C 
BRANCH  28  30
ATOM     30  C   UNL     1      -4.067 -11.475  16.679  0.00  0.00    -0.030 A 
ATOM     32  C   UNL     1      -2.988 -10.647  16.368  0.00  0.00    +0.009 A 
ATOM     33  C   UNL     1      -4.358 -12.575  15.872  0.00  0.00    +0.009 A 
ATOM     36  C   UNL     1      -2.199 -10.920  15.251  0.00  0.00    +0.046 A 
ATOM     37  C   UNL     1      -3.569 -12.848  14.754  0.00  0.00    +0.046 A 
ATOM     38  C   UNL     1      -2.490 -12.020  14.444  0.00  0.00    +0.120 A 
BRANCH  38   8
ATOM      8  O   UNL     1      -1.720 -12.285  13.352  0.00  0.00    -0.495 OA
ATOM     42  C   UNL     1      -1.769 -11.346  12.280  0.00  0.00    +0.277 C 
ENDBRANCH  38   8
ENDBRANCH  28  30
ENDBRANCH  10  28
ENDBRANCH  25  26
ENDBRANCH  15  25
TORSDOF 9
ENDMDL
MODEL 4
REMARK VINA RESULT:      -6.9     27.662     30.303
REMARK  Name = 11883041
REMARK  12 active torsions:
REMARK  status: ('A' for Active; 'I' for Inactive)
REMARK    1  A    between atoms: O_4  and  C_17
REMARK    2  A    between atoms: O_5  and  C_22
REMARK    3  A    between atoms: O_8  and  C_38
REMARK    4  A    between atoms: O_8  and  C_42
REMARK    5  A    between atoms: N_10  and  C_28
REMARK    6  A    between atoms: C_12  and  C_20
REMARK    7  A    between atoms: C_14  and  C_22
REMARK    8  A    between atoms: C_14  and  C_23
REMARK    9  A    between atoms: C_15  and  C_25
REMARK   10  A    between atoms: C_25  and  C_26
REMARK   11  A    between atoms: C_28  and  C_30
REMARK   12  A    between atoms: C_29  and  C_31
REMARK                            x       y       z     vdW  Elec       q    Type
REMARK                         _______ _______ _______ _____ _____    ______ ____
ROOT
ATOM      1  S   UNL     1      -7.534 -11.260  12.500  0.00  0.00    -0.057 S 
ATOM      7  O   UNL     1      -3.523 -11.263  10.136  0.00  0.00    -0.270 OA
ATOM      9  N   UNL     1      -4.956 -11.298  12.723  0.00  0.00    -0.229 NA
ATOM     11  N   UNL     1      -5.853 -11.238  10.486  0.00  0.00    -0.261 N 
ATOM     12  C   UNL     1      -5.412 -10.971  16.537  0.00  0.00    -0.019 C 
ATOM     13  C   UNL     1      -6.794 -11.761  16.520  0.00  0.00    +0.011 C 
ATOM     14  C   UNL     1      -7.582 -11.856  17.883  0.00  0.00    +0.021 C 
ATOM     15  C   UNL     1      -4.601 -11.367  15.219  0.00  0.00    +0.054 C 
ATOM     16  C   UNL     1      -4.583 -11.412  17.772  0.00  0.00    +0.010 C 
ATOM     17  C   UNL     1      -6.598 -12.261  19.016  0.00  0.00    +0.123 C 
ATOM     18  C   UNL     1      -7.680 -11.330  15.313  0.00  0.00    +0.049 C 
ATOM     19  C   UNL     1      -5.359 -11.375  19.081  0.00  0.00    +0.032 C 
ATOM     20  C   UNL     1      -5.598  -9.435  16.586  0.00  0.00    +0.012 C 
ATOM     21  C   UNL     1      -5.485 -11.308  14.000  0.00  0.00    +0.058 A 
ATOM     23  C   UNL     1      -8.650 -12.982  17.774  0.00  0.00    +0.016 C 
ATOM     24  C   UNL     1      -6.864 -11.311  14.065  0.00  0.00    +0.015 A 
ATOM     27  C   UNL     1      -5.943 -11.265  11.852  0.00  0.00    +0.165 A 
ATOM     29  C   UNL     1      -4.676 -11.238   9.721  0.00  0.00    +0.255 C 
ATOM     46  H   UNL     1      -6.751 -11.236  10.011  0.00  0.00    +0.157 HD
ENDROOT
BRANCH  29  31
ATOM      2  F   UNL     1      -3.811 -13.352   8.063  0.00  0.00    -0.205 F 
ATOM      3  F   UNL     1      -5.950  -9.121   8.357  0.00  0.00    -0.205 F 
ATOM     31  C   UNL     1      -4.875 -11.236   8.247  0.00  0.00    +0.107 A 
ATOM     34  C   UNL     1      -4.424 -12.311   7.481  0.00  0.00    +0.138 A 
ATOM     35  C   UNL     1      -5.513 -10.159   7.630  0.00  0.00    +0.138 A 
ATOM     39  C   UNL     1      -4.611 -12.309   6.099  0.00  0.00    +0.039 A 
ATOM     40  C   UNL     1      -5.699 -10.158   6.248  0.00  0.00    +0.039 A 
ATOM     41  C   UNL     1      -5.248 -11.232   5.482  0.00  0.00    +0.006 A 
ENDBRANCH  29  31
BRANCH  17   4
ATOM      4  O   UNL     1      -7.251 -12.231  20.284  0.00  0.00    -0.391 OA
ATOM     43  H   UNL     1      -7.227 -13.131  20.651  0.00  0.00    +0.210 HD
ENDBRANCH  17   4
BRANCH  14  22
ATOM     22  C   UNL     1      -8.364 -10.579  18.262  0.00  0.00    +0.165 C 
BRANCH  22   5
ATOM      5  O   UNL     1      -9.470 -10.966  19.046  0.00  0.00    -0.394 OA
ATOM     44  H   UNL     1      -9.338 -10.598  19.936  0.00  0.00    +0.209 HD
ENDBRANCH  22   5
ENDBRANCH  14  22
BRANCH  15  25
ATOM     25  C   UNL     1      -3.301 -10.580  15.009  0.00  0.00    +0.106 C 
BRANCH  25  26
ATOM      6  O   UNL     1      -1.034 -11.267  15.505  0.00  0.00    -0.276 OA
ATOM     10  N   UNL     1      -2.353 -12.582  14.115  0.00  0.00    -0.311 N 
ATOM     26  C   UNL     1      -2.095 -11.487  14.927  0.00  0.00    +0.214 C 
ATOM     45  H   UNL     1      -3.269 -12.675  13.684  0.00  0.00    +0.149 HD
BRANCH  10  28
ATOM     28  C   UNL     1      -1.380 -13.616  13.851  0.00  0.00    +0.139 C 
BRANCH  28  30
ATOM     30  C   UNL     1      -1.837 -14.559  12.776  0.00  0.00    -0.030 A 
ATOM     32  C   UNL     1      -1.217 -15.800  12.628  0.00  0.00    +0.009 A 
ATOM     33  C   UNL     1      -2.882 -14.196  11.926  0.00  0.00    +0.009 A 
ATOM     36  C   UNL     1      -1.642 -16.677  11.631  0.00  0.00    +0.046 A 
ATOM     37  C   UNL     1      -3.307 -15.073  10.929  0.00  0.00    +0.046 A 
ATOM     38  C   UNL     1      -2.687 -16.314  10.781  0.00  0.00    +0.120 A 
BRANCH  38   8
ATOM      8  O   UNL     1      -3.100 -17.170   9.807  0.00  0.00    -0.495 OA
ATOM     42  C   UNL     1      -3.482 -16.597   8.557  0.00  0.00    +0.277 C 
ENDBRANCH  38   8
ENDBRANCH  28  30
ENDBRANCH  10  28
ENDBRANCH  25  26
ENDBRANCH  15  25
TORSDOF 9
ENDMDL
MODEL 5
REMARK VINA RESULT:      -6.8     27.077     32.334
REMARK  Name = 11883041
REMARK  12 active torsions:
REMARK  status: ('A' for Active; 'I' for Inactive)
REMARK    1  A    between atoms: O_4  and  C_17
REMARK    2  A    between atoms: O_5  and  C_22
REMARK    3  A    between atoms: O_8  and  C_38
REMARK    4  A    between atoms: O_8  and  C_42
REMARK    5  A    between atoms: N_10  and  C_28
REMARK    6  A    between atoms: C_12  and  C_20
REMARK    7  A    between atoms: C_14  and  C_22
REMARK    8  A    between atoms: C_14  and  C_23
REMARK    9  A    between atoms: C_15  and  C_25
REMARK   10  A    between atoms: C_25  and  C_26
REMARK   11  A    between atoms: C_28  and  C_30
REMARK   12  A    between atoms: C_29  and  C_31
REMARK                            x       y       z     vdW  Elec       q    Type
REMARK                         _______ _______ _______ _____ _____    ______ ____
ROOT
ATOM      1  S   UNL     1     -10.446  -6.887  16.160  0.00  0.00    -0.057 S 
ATOM      7  O   UNL     1      -8.677 -11.158  15.608  0.00  0.00    -0.270 OA
ATOM      9  N   UNL     1     -10.406  -8.969  14.624  0.00  0.00    -0.229 NA
ATOM     11  N   UNL     1      -9.062  -9.067  16.623  0.00  0.00    -0.261 N 
ATOM     12  C   UNL     1     -13.144  -7.287  12.493  0.00  0.00    -0.019 C 
ATOM     13  C   UNL     1     -12.614  -5.823  12.825  0.00  0.00    +0.011 C 
ATOM     14  C   UNL     1     -13.468  -4.613  12.284  0.00  0.00    +0.021 C 
ATOM     15  C   UNL     1     -11.943  -8.313  12.734  0.00  0.00    +0.054 C 
ATOM     16  C   UNL     1     -13.555  -7.360  10.998  0.00  0.00    +0.010 C 
ATOM     17  C   UNL     1     -13.832  -4.868  10.794  0.00  0.00    +0.123 C 
ATOM     18  C   UNL     1     -12.216  -5.689  14.325  0.00  0.00    +0.049 C 
ATOM     19  C   UNL     1     -14.475  -6.230  10.557  0.00  0.00    +0.032 C 
ATOM     20  C   UNL     1     -14.356  -7.700  13.363  0.00  0.00    +0.012 C 
ATOM     21  C   UNL     1     -11.254  -8.042  14.047  0.00  0.00    +0.058 A 
ATOM     23  C   UNL     1     -12.604  -3.320  12.334  0.00  0.00    +0.016 C 
ATOM     24  C   UNL     1     -11.377  -6.851  14.734  0.00  0.00    +0.015 A 
ATOM     27  C   UNL     1      -9.929  -8.472  15.745  0.00  0.00    +0.165 A 
ATOM     29  C   UNL     1      -8.498 -10.347  16.509  0.00  0.00    +0.255 C 
ATOM     46  H   UNL     1      -8.812  -8.486  17.418  0.00  0.00    +0.157 HD
ENDROOT
BRANCH  29  31
ATOM      2  F   UNL     1      -5.800  -9.521  16.557  0.00  0.00    -0.205 F 
ATOM      3  F   UNL     1      -9.274 -11.955  18.695  0.00  0.00    -0.205 F 
ATOM     31  C   UNL     1      -7.561 -10.729  17.599  0.00  0.00    +0.107 A 
ATOM     34  C   UNL     1      -6.237 -10.289  17.566  0.00  0.00    +0.138 A 
ATOM     35  C   UNL     1      -8.004 -11.527  18.653  0.00  0.00    +0.138 A 
ATOM     39  C   UNL     1      -5.358 -10.647  18.588  0.00  0.00    +0.039 A 
ATOM     40  C   UNL     1      -7.125 -11.885  19.675  0.00  0.00    +0.039 A 
ATOM     41  C   UNL     1      -5.801 -11.445  19.642  0.00  0.00    +0.006 A 
ENDBRANCH  29  31
BRANCH  17   4
ATOM      4  O   UNL     1     -14.712  -3.855  10.310  0.00  0.00    -0.391 OA
ATOM     43  H   UNL     1     -14.177  -3.205   9.824  0.00  0.00    +0.210 HD
ENDBRANCH  17   4
BRANCH  14  22
ATOM     22  C   UNL     1     -14.733  -4.299  13.114  0.00  0.00    +0.165 C 
BRANCH  22   5
ATOM      5  O   UNL     1     -14.868  -2.897  13.182  0.00  0.00    -0.394 OA
ATOM     44  H   UNL     1     -15.211  -2.597  12.323  0.00  0.00    +0.209 HD
ENDBRANCH  22   5
ENDBRANCH  14  22
BRANCH  15  25
ATOM     25  C   UNL     1     -12.329  -9.792  12.597  0.00  0.00    +0.106 C 
BRANCH  25  26
ATOM      6  O   UNL     1     -11.472 -10.792  10.567  0.00  0.00    -0.276 OA
ATOM     10  N   UNL     1     -10.254 -10.974  12.538  0.00  0.00    -0.311 N 
ATOM     26  C   UNL     1     -11.331 -10.564  11.765  0.00  0.00    +0.214 C 
ATOM     45  H   UNL     1     -10.229 -10.728  13.524  0.00  0.00    +0.149 HD
BRANCH  10  28
ATOM     28  C   UNL     1      -9.146 -11.734  12.007  0.00  0.00    +0.139 C 
BRANCH  28  30
ATOM     30  C   UNL     1      -7.989 -10.854  11.631  0.00  0.00    -0.030 A 
ATOM     32  C   UNL     1      -7.351 -11.031  10.403  0.00  0.00    +0.009 A 
ATOM     33  C   UNL     1      -7.551  -9.862  12.507  0.00  0.00    +0.009 A 
ATOM     36  C   UNL     1      -6.277 -10.214  10.051  0.00  0.00    +0.046 A 
ATOM     37  C   UNL     1      -6.477  -9.044  12.156  0.00  0.00    +0.046 A 
ATOM     38  C   UNL     1      -5.839  -9.221  10.928  0.00  0.00    +0.120 A 
BRANCH  38   8
ATOM      8  O   UNL     1      -4.790  -8.425  10.585  0.00  0.00    -0.495 OA
ATOM     42  C   UNL     1      -3.613  -9.072  10.103  0.00  0.00    +0.277 C 
ENDBRANCH  38   8
ENDBRANCH  28  30
ENDBRANCH  10  28
ENDBRANCH  25  26
ENDBRANCH  15  25
TORSDOF 9
ENDMDL
MODEL 6
REMARK VINA RESULT:      -6.8     28.447     31.413
REMARK  Name = 11883041
REMARK  12 active torsions:
REMARK  status: ('A' for Active; 'I' for Inactive)
REMARK    1  A    between atoms: O_4  and  C_17
REMARK    2  A    between atoms: O_5  and  C_22
REMARK    3  A    between atoms: O_8  and  C_38
REMARK    4  A    between atoms: O_8  and  C_42
REMARK    5  A    between atoms: N_10  and  C_28
REMARK    6  A    between atoms: C_12  and  C_20
REMARK    7  A    between atoms: C_14  and  C_22
REMARK    8  A    between atoms: C_14  and  C_23
REMARK    9  A    between atoms: C_15  and  C_25
REMARK   10  A    between atoms: C_25  and  C_26
REMARK   11  A    between atoms: C_28  and  C_30
REMARK   12  A    between atoms: C_29  and  C_31
REMARK                            x       y       z     vdW  Elec       q    Type
REMARK                         _______ _______ _______ _____ _____    ______ ____
ROOT
ATOM      1  S   UNL     1      -6.472 -10.712  12.296  0.00  0.00    -0.057 S 
ATOM      7  O   UNL     1      -9.852  -8.265  10.233  0.00  0.00    -0.270 OA
ATOM      9  N   UNL     1      -8.666  -9.400  12.693  0.00  0.00    -0.229 NA
ATOM     11  N   UNL     1      -7.877  -9.535  10.420  0.00  0.00    -0.261 N 
ATOM     12  C   UNL     1      -8.532 -10.545  16.372  0.00  0.00    -0.019 C 
ATOM     13  C   UNL     1      -6.941 -10.582  16.385  0.00  0.00    +0.011 C 
ATOM     14  C   UNL     1      -6.248 -11.133  17.691  0.00  0.00    +0.021 C 
ATOM     15  C   UNL     1      -8.993  -9.576  15.188  0.00  0.00    +0.054 C 
ATOM     16  C   UNL     1      -9.044  -9.955  17.713  0.00  0.00    +0.010 C 
ATOM     17  C   UNL     1      -6.909 -10.477  18.937  0.00  0.00    +0.123 C 
ATOM     18  C   UNL     1      -6.376 -11.197  15.070  0.00  0.00    +0.049 C 
ATOM     19  C   UNL     1      -8.429 -10.603  18.946  0.00  0.00    +0.032 C 
ATOM     20  C   UNL     1      -9.165 -11.943  16.170  0.00  0.00    +0.012 C 
ATOM     21  C   UNL     1      -8.237  -9.875  13.919  0.00  0.00    +0.058 A 
ATOM     23  C   UNL     1      -4.751 -10.711  17.687  0.00  0.00    +0.016 C 
ATOM     24  C   UNL     1      -7.056 -10.588  13.891  0.00  0.00    +0.015 A 
ATOM     27  C   UNL     1      -7.818  -9.786  11.765  0.00  0.00    +0.165 A 
ATOM     29  C   UNL     1      -8.868  -8.806   9.744  0.00  0.00    +0.255 C 
ATOM     46  H   UNL     1      -7.098  -9.917   9.891  0.00  0.00    +0.157 HD
ENDROOT
BRANCH  29  31
ATOM      2  F   UNL     1      -8.150  -6.358   8.535  0.00  0.00    -0.205 F 
ATOM      3  F   UNL     1      -9.167 -10.961   7.946  0.00  0.00    -0.205 F 
ATOM     31  C   UNL     1      -8.664  -8.663   8.277  0.00  0.00    +0.107 A 
ATOM     34  C   UNL     1      -8.310  -7.426   7.740  0.00  0.00    +0.138 A 
ATOM     35  C   UNL     1      -8.827  -9.767   7.440  0.00  0.00    +0.138 A 
ATOM     39  C   UNL     1      -8.120  -7.292   6.364  0.00  0.00    +0.039 A 
ATOM     40  C   UNL     1      -8.637  -9.633   6.064  0.00  0.00    +0.039 A 
ATOM     41  C   UNL     1      -8.283  -8.395   5.527  0.00  0.00    +0.006 A 
ENDBRANCH  29  31
BRANCH  17   4
ATOM      4  O   UNL     1      -6.395 -11.048  20.138  0.00  0.00    -0.391 OA
ATOM     43  H   UNL     1      -6.769 -11.941  20.226  0.00  0.00    +0.210 HD
ENDBRANCH  17   4
BRANCH  14  22
ATOM     22  C   UNL     1      -6.245 -12.673  17.816  0.00  0.00    +0.165 C 
BRANCH  22   5
ATOM      5  O   UNL     1      -5.127 -13.041  18.592  0.00  0.00    -0.394 OA
ATOM     44  H   UNL     1      -5.460 -13.339  19.456  0.00  0.00    +0.209 HD
ENDBRANCH  22   5
ENDBRANCH  14  22
BRANCH  15  25
ATOM     25  C   UNL     1     -10.508  -9.541  14.946  0.00  0.00    +0.106 C 
BRANCH  25  26
ATOM      6  O   UNL     1     -10.539  -7.265  15.768  0.00  0.00    -0.276 OA
ATOM     10  N   UNL     1     -12.268  -8.017  14.409  0.00  0.00    -0.311 N 
ATOM     26  C   UNL     1     -11.075  -8.149  15.105  0.00  0.00    +0.214 C 
ATOM     45  H   UNL     1     -12.626  -8.810  13.884  0.00  0.00    +0.149 HD
BRANCH  10  28
ATOM     28  C   UNL     1     -13.036  -6.794  14.384  0.00  0.00    +0.139 C 
BRANCH  28  30
ATOM     30  C   UNL     1     -12.716  -5.953  13.182  0.00  0.00    -0.030 A 
ATOM     32  C   UNL     1     -12.553  -4.574  13.321  0.00  0.00    +0.009 A 
ATOM     33  C   UNL     1     -12.580  -6.549  11.928  0.00  0.00    +0.009 A 
ATOM     36  C   UNL     1     -12.254  -3.792  12.205  0.00  0.00    +0.046 A 
ATOM     37  C   UNL     1     -12.281  -5.766  10.813  0.00  0.00    +0.046 A 
ATOM     38  C   UNL     1     -12.119  -4.388  10.952  0.00  0.00    +0.120 A 
BRANCH  38   8
ATOM      8  O   UNL     1     -11.828  -3.624   9.863  0.00  0.00    -0.495 OA
ATOM     42  C   UNL     1     -10.633  -3.937   9.149  0.00  0.00    +0.277 C 
ENDBRANCH  38   8
ENDBRANCH  28  30
ENDBRANCH  10  28
ENDBRANCH  25  26
ENDBRANCH  15  25
TORSDOF 9
ENDMDL
MODEL 7
REMARK VINA RESULT:      -6.8     39.192     42.513
REMARK  Name = 11883041
REMARK  12 active torsions:
REMARK  status: ('A' for Active; 'I' for Inactive)
REMARK    1  A    between atoms: O_4  and  C_17
REMARK    2  A    between atoms: O_5  and  C_22
REMARK    3  A    between atoms: O_8  and  C_38
REMARK    4  A    between atoms: O_8  and  C_42
REMARK    5  A    between atoms: N_10  and  C_28
REMARK    6  A    between atoms: C_12  and  C_20
REMARK    7  A    between atoms: C_14  and  C_22
REMARK    8  A    between atoms: C_14  and  C_23
REMARK    9  A    between atoms: C_15  and  C_25
REMARK   10  A    between atoms: C_25  and  C_26
REMARK   11  A    between atoms: C_28  and  C_30
REMARK   12  A    between atoms: C_29  and  C_31
REMARK                            x       y       z     vdW  Elec       q    Type
REMARK                         _______ _______ _______ _____ _____    ______ ____
ROOT
ATOM      1  S   UNL     1      -6.223   8.265  41.898  0.00  0.00    -0.057 S 
ATOM      7  O   UNL     1      -9.199  10.796  39.366  0.00  0.00    -0.270 OA
ATOM      9  N   UNL     1      -6.569   9.469  39.634  0.00  0.00    -0.229 NA
ATOM     11  N   UNL     1      -8.389   9.575  41.212  0.00  0.00    -0.261 N 
ATOM     12  C   UNL     1      -2.897   8.655  38.788  0.00  0.00    -0.019 C 
ATOM     13  C   UNL     1      -2.917   7.309  39.637  0.00  0.00    +0.011 C 
ATOM     14  C   UNL     1      -1.553   6.529  39.775  0.00  0.00    +0.021 C 
ATOM     15  C   UNL     1      -4.405   9.026  38.415  0.00  0.00    +0.054 C 
ATOM     16  C   UNL     1      -2.112   8.422  37.470  0.00  0.00    +0.010 C 
ATOM     17  C   UNL     1      -0.878   6.425  38.377  0.00  0.00    +0.123 C 
ATOM     18  C   UNL     1      -3.669   7.499  40.987  0.00  0.00    +0.049 C 
ATOM     19  C   UNL     1      -0.750   7.771  37.671  0.00  0.00    +0.032 C 
ATOM     20  C   UNL     1      -2.249   9.837  39.550  0.00  0.00    +0.012 C 
ATOM     21  C   UNL     1      -5.305   8.908  39.619  0.00  0.00    +0.058 A 
ATOM     23  C   UNL     1      -1.844   5.078  40.255  0.00  0.00    +0.016 C 
ATOM     24  C   UNL     1      -4.962   8.204  40.755  0.00  0.00    +0.015 A 
ATOM     27  C   UNL     1      -7.142   9.200  40.788  0.00  0.00    +0.165 A 
ATOM     29  C   UNL     1      -9.326  10.335  40.495  0.00  0.00    +0.255 C 
ATOM     46  H   UNL     1      -8.632   9.237  42.138  0.00  0.00    +0.157 HD
ENDROOT
BRANCH  29  31
ATOM      2  F   UNL     1     -11.754   9.190  39.622  0.00  0.00    -0.205 F 
ATOM      3  F   UNL     1      -9.552  11.960  42.791  0.00  0.00    -0.205 F 
ATOM     31  C   UNL     1     -10.620  10.570  41.190  0.00  0.00    +0.107 A 
ATOM     34  C   UNL     1     -11.787   9.976  40.709  0.00  0.00    +0.138 A 
ATOM     35  C   UNL     1     -10.668  11.384  42.321  0.00  0.00    +0.138 A 
ATOM     39  C   UNL     1     -13.001  10.196  41.360  0.00  0.00    +0.039 A 
ATOM     40  C   UNL     1     -11.881  11.604  42.972  0.00  0.00    +0.039 A 
ATOM     41  C   UNL     1     -13.048  11.010  42.492  0.00  0.00    +0.006 A 
ENDBRANCH  29  31
BRANCH  17   4
ATOM      4  O   UNL     1       0.418   5.839  38.486  0.00  0.00    -0.391 OA
ATOM     43  H   UNL     1       0.439   5.320  39.308  0.00  0.00    +0.210 HD
ENDBRANCH  17   4
BRANCH  14  22
ATOM     22  C   UNL     1      -0.577   7.122  40.815  0.00  0.00    +0.165 C 
BRANCH  22   5
ATOM      5  O   UNL     1       0.149   6.056  41.384  0.00  0.00    -0.394 OA
ATOM     44  H   UNL     1       0.472   6.355  42.251  0.00  0.00    +0.209 HD
ENDBRANCH  22   5
ENDBRANCH  14  22
BRANCH  15  25
ATOM     25  C   UNL     1      -4.576  10.381  37.716  0.00  0.00    +0.106 C 
BRANCH  25  26
ATOM      6  O   UNL     1      -4.777  10.028  35.331  0.00  0.00    -0.276 OA
ATOM     10  N   UNL     1      -6.685  10.430  36.595  0.00  0.00    -0.311 N 
ATOM     26  C   UNL     1      -5.322  10.254  36.407  0.00  0.00    +0.214 C 
ATOM     45  H   UNL     1      -7.038  10.607  37.532  0.00  0.00    +0.149 HD
BRANCH  10  28
ATOM     28  C   UNL     1      -7.645  10.365  35.518  0.00  0.00    +0.139 C 
BRANCH  28  30
ATOM     30  C   UNL     1      -8.860   9.568  35.893  0.00  0.00    -0.030 A 
ATOM     32  C   UNL     1     -10.085   9.835  35.281  0.00  0.00    +0.009 A 
ATOM     33  C   UNL     1      -8.765   8.561  36.854  0.00  0.00    +0.009 A 
ATOM     36  C   UNL     1     -11.214   9.094  35.628  0.00  0.00    +0.046 A 
ATOM     37  C   UNL     1      -9.895   7.820  37.201  0.00  0.00    +0.046 A 
ATOM     38  C   UNL     1     -11.120   8.087  36.589  0.00  0.00    +0.120 A 
BRANCH  38   8
ATOM      8  O   UNL     1     -12.223   7.365  36.929  0.00  0.00    -0.495 OA
ATOM     42  C   UNL     1     -13.082   6.953  35.867  0.00  0.00    +0.277 C 
ENDBRANCH  38   8
ENDBRANCH  28  30
ENDBRANCH  10  28
ENDBRANCH  25  26
ENDBRANCH  15  25
TORSDOF 9
ENDMDL
MODEL 8
REMARK VINA RESULT:      -6.7     23.697     26.554
REMARK  Name = 11883041
REMARK  12 active torsions:
REMARK  status: ('A' for Active; 'I' for Inactive)
REMARK    1  A    between atoms: O_4  and  C_17
REMARK    2  A    between atoms: O_5  and  C_22
REMARK    3  A    between atoms: O_8  and  C_38
REMARK    4  A    between atoms: O_8  and  C_42
REMARK    5  A    between atoms: N_10  and  C_28
REMARK    6  A    between atoms: C_12  and  C_20
REMARK    7  A    between atoms: C_14  and  C_22
REMARK    8  A    between atoms: C_14  and  C_23
REMARK    9  A    between atoms: C_15  and  C_25
REMARK   10  A    between atoms: C_25  and  C_26
REMARK   11  A    between atoms: C_28  and  C_30
REMARK   12  A    between atoms: C_29  and  C_31
REMARK                            x       y       z     vdW  Elec       q    Type
REMARK                         _______ _______ _______ _____ _____    ______ ____
ROOT
ATOM      1  S   UNL     1      19.817  -6.211  20.149  0.00  0.00    -0.057 S 
ATOM      7  O   UNL     1      21.876 -10.183  21.438  0.00  0.00    -0.270 OA
ATOM      9  N   UNL     1      20.509  -7.666  22.174  0.00  0.00    -0.229 NA
ATOM     11  N   UNL     1      21.053  -8.519  19.986  0.00  0.00    -0.261 N 
ATOM     12  C   UNL     1      19.343  -4.794  24.468  0.00  0.00    -0.019 C 
ATOM     13  C   UNL     1      18.220  -4.325  23.442  0.00  0.00    +0.011 C 
ATOM     14  C   UNL     1      17.421  -3.014  23.805  0.00  0.00    +0.021 C 
ATOM     15  C   UNL     1      19.699  -6.318  24.147  0.00  0.00    +0.054 C 
ATOM     16  C   UNL     1      18.786  -4.717  25.914  0.00  0.00    +0.010 C 
ATOM     17  C   UNL     1      16.978  -3.080  25.294  0.00  0.00    +0.123 C 
ATOM     18  C   UNL     1      18.741  -4.355  21.975  0.00  0.00    +0.049 C 
ATOM     19  C   UNL     1      18.127  -3.386  26.249  0.00  0.00    +0.032 C 
ATOM     20  C   UNL     1      20.630  -3.936  24.385  0.00  0.00    +0.012 C 
ATOM     21  C   UNL     1      19.895  -6.529  22.667  0.00  0.00    +0.058 A 
ATOM     23  C   UNL     1      16.129  -2.952  22.941  0.00  0.00    +0.016 C 
ATOM     24  C   UNL     1      19.442  -5.644  21.710  0.00  0.00    +0.015 A 
ATOM     27  C   UNL     1      20.531  -7.603  20.860  0.00  0.00    +0.165 A 
ATOM     29  C   UNL     1      21.683  -9.730  20.316  0.00  0.00    +0.255 C 
ATOM     46  H   UNL     1      20.940  -8.272  19.008  0.00  0.00    +0.157 HD
ENDROOT
BRANCH  29  31
ATOM      2  F   UNL     1      23.986  -9.109  18.808  0.00  0.00    -0.205 F 
ATOM      3  F   UNL     1      20.297 -12.031  19.451  0.00  0.00    -0.205 F 
ATOM     31  C   UNL     1      22.130 -10.550  19.158  0.00  0.00    +0.107 A 
ATOM     34  C   UNL     1      23.278 -10.191  18.452  0.00  0.00    +0.138 A 
ATOM     35  C   UNL     1      21.402 -11.678  18.779  0.00  0.00    +0.138 A 
ATOM     39  C   UNL     1      23.698 -10.960  17.366  0.00  0.00    +0.039 A 
ATOM     40  C   UNL     1      21.822 -12.446  17.693  0.00  0.00    +0.039 A 
ATOM     41  C   UNL     1      22.970 -12.088  16.987  0.00  0.00    +0.006 A 
ENDBRANCH  29  31
BRANCH  17   4
ATOM      4  O   UNL     1      16.366  -1.854  25.691  0.00  0.00    -0.391 OA
ATOM     43  H   UNL     1      15.585  -2.074  26.228  0.00  0.00    +0.210 HD
ENDBRANCH  17   4
BRANCH  14  22
ATOM     22  C   UNL     1      18.179  -1.700  23.513  0.00  0.00    +0.165 C 
BRANCH  22   5
ATOM      5  O   UNL     1      17.590  -1.104  22.379  0.00  0.00    -0.394 OA
ATOM     44  H   UNL     1      18.240  -0.484  22.007  0.00  0.00    +0.209 HD
ENDBRANCH  22   5
ENDBRANCH  14  22
BRANCH  15  25
ATOM     25  C   UNL     1      20.873  -6.884  24.957  0.00  0.00    +0.106 C 
BRANCH  25  26
ATOM      6  O   UNL     1      21.106  -8.173  26.991  0.00  0.00    -0.276 OA
ATOM     10  N   UNL     1      19.115  -8.266  25.797  0.00  0.00    -0.311 N 
ATOM     26  C   UNL     1      20.411  -7.835  26.037  0.00  0.00    +0.214 C 
ATOM     45  H   UNL     1      18.621  -7.921  24.978  0.00  0.00    +0.149 HD
BRANCH  10  28
ATOM     28  C   UNL     1      18.415  -9.184  26.665  0.00  0.00    +0.139 C 
BRANCH  28  30
ATOM     30  C   UNL     1      17.281  -8.520  27.391  0.00  0.00    -0.030 A 
ATOM     32  C   UNL     1      16.577  -7.481  26.781  0.00  0.00    +0.009 A 
ATOM     33  C   UNL     1      16.932  -8.941  28.674  0.00  0.00    +0.009 A 
ATOM     36  C   UNL     1      15.523  -6.864  27.454  0.00  0.00    +0.046 A 
ATOM     37  C   UNL     1      15.877  -8.324  29.347  0.00  0.00    +0.046 A 
ATOM     38  C   UNL     1      15.173  -7.285  28.737  0.00  0.00    +0.120 A 
BRANCH  38   8
ATOM      8  O   UNL     1      14.145  -6.682  29.394  0.00  0.00    -0.495 OA
ATOM     42  C   UNL     1      14.486  -5.709  30.381  0.00  0.00    +0.277 C 
ENDBRANCH  38   8
ENDBRANCH  28  30
ENDBRANCH  10  28
ENDBRANCH  25  26
ENDBRANCH  15  25
TORSDOF 9
ENDMDL
MODEL 9
REMARK VINA RESULT:      -6.7     40.909     42.726
REMARK  Name = 11883041
REMARK  12 active torsions:
REMARK  status: ('A' for Active; 'I' for Inactive)
REMARK    1  A    between atoms: O_4  and  C_17
REMARK    2  A    between atoms: O_5  and  C_22
REMARK    3  A    between atoms: O_8  and  C_38
REMARK    4  A    between atoms: O_8  and  C_42
REMARK    5  A    between atoms: N_10  and  C_28
REMARK    6  A    between atoms: C_12  and  C_20
REMARK    7  A    between atoms: C_14  and  C_22
REMARK    8  A    between atoms: C_14  and  C_23
REMARK    9  A    between atoms: C_15  and  C_25
REMARK   10  A    between atoms: C_25  and  C_26
REMARK   11  A    between atoms: C_28  and  C_30
REMARK   12  A    between atoms: C_29  and  C_31
REMARK                            x       y       z     vdW  Elec       q    Type
REMARK                         _______ _______ _______ _____ _____    ______ ____
ROOT
ATOM      1  S   UNL     1     -13.282  10.225  34.325  0.00  0.00    -0.057 S 
ATOM      7  O   UNL     1     -11.331   6.990  37.046  0.00  0.00    -0.270 OA
ATOM      9  N   UNL     1     -13.162   7.691  34.832  0.00  0.00    -0.229 NA
ATOM     11  N   UNL     1     -11.799   9.137  36.196  0.00  0.00    -0.261 N 
ATOM     12  C   UNL     1     -15.989   7.177  32.260  0.00  0.00    -0.019 C 
ATOM     13  C   UNL     1     -15.521   8.418  31.380  0.00  0.00    +0.011 C 
ATOM     14  C   UNL     1     -16.433   8.810  30.154  0.00  0.00    +0.021 C 
ATOM     15  C   UNL     1     -14.742   6.695  33.135  0.00  0.00    +0.054 C 
ATOM     16  C   UNL     1     -16.408   6.011  31.326  0.00  0.00    +0.010 C 
ATOM     17  C   UNL     1     -16.797   7.527  29.355  0.00  0.00    +0.123 C 
ATOM     18  C   UNL     1     -15.118   9.628  32.273  0.00  0.00    +0.049 C 
ATOM     19  C   UNL     1     -17.381   6.421  30.228  0.00  0.00    +0.032 C 
ATOM     20  C   UNL     1     -17.175   7.515  33.196  0.00  0.00    +0.012 C 
ATOM     21  C   UNL     1     -14.056   7.866  33.791  0.00  0.00    +0.058 A 
ATOM     23  C   UNL     1     -15.627   9.736  29.198  0.00  0.00    +0.016 C 
ATOM     24  C   UNL     1     -14.225   9.171  33.376  0.00  0.00    +0.015 A 
ATOM     27  C   UNL     1     -12.698   8.866  35.199  0.00  0.00    +0.165 A 
ATOM     29  C   UNL     1     -11.180   8.207  37.045  0.00  0.00    +0.255 C 
ATOM     46  H   UNL     1     -11.568  10.122  36.290  0.00  0.00    +0.157 HD
ENDROOT
BRANCH  29  31
ATOM      2  F   UNL     1     -12.005   9.525  39.400  0.00  0.00    -0.205 F 
ATOM      3  F   UNL     1      -8.383   8.063  36.697  0.00  0.00    -0.205 F 
ATOM     31  C   UNL     1     -10.218   8.780  38.024  0.00  0.00    +0.107 A 
ATOM     34  C   UNL     1     -10.688   9.420  39.170  0.00  0.00    +0.138 A 
ATOM     35  C   UNL     1      -8.846   8.677  37.795  0.00  0.00    +0.138 A 
ATOM     39  C   UNL     1      -9.786   9.958  40.088  0.00  0.00    +0.039 A 
ATOM     40  C   UNL     1      -7.944   9.214  38.714  0.00  0.00    +0.039 A 
ATOM     41  C   UNL     1      -8.414   9.855  39.860  0.00  0.00    +0.006 A 
ENDBRANCH  29  31
BRANCH  17   4
ATOM      4  O   UNL     1     -17.725   7.828  28.315  0.00  0.00    -0.391 OA
ATOM     43  H   UNL     1     -17.665   8.781  28.132  0.00  0.00    +0.210 HD
ENDBRANCH  17   4
BRANCH  14  22
ATOM     22  C   UNL     1     -17.703   9.605  30.527  0.00  0.00    +0.165 C 
BRANCH  22   5
ATOM      5  O   UNL     1     -17.569  10.907  30.001  0.00  0.00    -0.394 OA
ATOM     44  H   UNL     1     -17.191  10.821  29.110  0.00  0.00    +0.209 HD
ENDBRANCH  22   5
ENDBRANCH  14  22
BRANCH  15  25
ATOM     25  C   UNL     1     -15.064   5.591  34.151  0.00  0.00    +0.106 C 
BRANCH  25  26
ATOM      6  O   UNL     1     -14.660   3.215  34.366  0.00  0.00    -0.276 OA
ATOM     10  N   UNL     1     -13.711   4.383  32.596  0.00  0.00    -0.311 N 
ATOM     26  C   UNL     1     -14.477   4.258  33.746  0.00  0.00    +0.214 C 
ATOM     45  H   UNL     1     -13.626   5.294  32.153  0.00  0.00    +0.149 HD
BRANCH  10  28
ATOM     28  C   UNL     1     -13.026   3.271  31.979  0.00  0.00    +0.139 C 
BRANCH  28  30
ATOM     30  C   UNL     1     -13.905   2.535  31.010  0.00  0.00    -0.030 A 
ATOM     32  C   UNL     1     -14.488   3.217  29.942  0.00  0.00    +0.009 A 
ATOM     33  C   UNL     1     -14.140   1.170  31.178  0.00  0.00    +0.009 A 
ATOM     36  C   UNL     1     -15.304   2.534  29.040  0.00  0.00    +0.046 A 
ATOM     37  C   UNL     1     -14.956   0.487  30.276  0.00  0.00    +0.046 A 
ATOM     38  C   UNL     1     -15.539   1.169  29.208  0.00  0.00    +0.120 A 
BRANCH  38   8
ATOM      8  O   UNL     1     -16.336   0.503  28.329  0.00  0.00    -0.495 OA
ATOM     42  C   UNL     1     -17.493   1.189  27.852  0.00  0.00    +0.277 C 
ENDBRANCH  38   8
ENDBRANCH  28  30
ENDBRANCH  10  28
ENDBRANCH  25  26
ENDBRANCH  15  25
TORSDOF 9
ENDMDL
MODEL 10
REMARK VINA RESULT:      -6.7     26.851     28.849
REMARK  Name = 11883041
REMARK  12 active torsions:
REMARK  status: ('A' for Active; 'I' for Inactive)
REMARK    1  A    between atoms: O_4  and  C_17
REMARK    2  A    between atoms: O_5  and  C_22
REMARK    3  A    between atoms: O_8  and  C_38
REMARK    4  A    between atoms: O_8  and  C_42
REMARK    5  A    between atoms: N_10  and  C_28
REMARK    6  A    between atoms: C_12  and  C_20
REMARK    7  A    between atoms: C_14  and  C_22
REMARK    8  A    between atoms: C_14  and  C_23
REMARK    9  A    between atoms: C_15  and  C_25
REMARK   10  A    between atoms: C_25  and  C_26
REMARK   11  A    between atoms: C_28  and  C_30
REMARK   12  A    between atoms: C_29  and  C_31
REMARK                            x       y       z     vdW  Elec       q    Type
REMARK                         _______ _______ _______ _____ _____    ______ ____
ROOT
ATOM      1  S   UNL     1      -7.074  -9.856   5.109  0.00  0.00    -0.057 S 
ATOM      7  O   UNL     1      -7.636  -8.634   9.566  0.00  0.00    -0.270 OA
ATOM      9  N   UNL     1      -6.355 -10.368   7.541  0.00  0.00    -0.229 NA
ATOM     11  N   UNL     1      -7.946  -8.584   7.230  0.00  0.00    -0.261 N 
ATOM     12  C   UNL     1      -4.399 -13.401   6.185  0.00  0.00    -0.019 C 
ATOM     13  C   UNL     1      -4.102 -12.688   4.793  0.00  0.00    +0.011 C 
ATOM     14  C   UNL     1      -3.375 -13.548   3.688  0.00  0.00    +0.021 C 
ATOM     15  C   UNL     1      -4.717 -12.266   7.263  0.00  0.00    +0.054 C 
ATOM     16  C   UNL     1      -3.135 -14.174   6.648  0.00  0.00    +0.010 C 
ATOM     17  C   UNL     1      -2.167 -14.289   4.328  0.00  0.00    +0.123 C 
ATOM     18  C   UNL     1      -5.352 -11.922   4.269  0.00  0.00    +0.049 C 
ATOM     19  C   UNL     1      -2.541 -15.079   5.577  0.00  0.00    +0.032 C 
ATOM     20  C   UNL     1      -5.588 -14.390   6.112  0.00  0.00    +0.012 C 
ATOM     21  C   UNL     1      -5.689 -11.254   6.714  0.00  0.00    +0.058 A 
ATOM     23  C   UNL     1      -2.808 -12.596   2.597  0.00  0.00    +0.016 C 
ATOM     24  C   UNL     1      -5.945 -11.105   5.366  0.00  0.00    +0.015 A 
ATOM     27  C   UNL     1      -7.119  -9.589   6.805  0.00  0.00    +0.165 A 
ATOM     29  C   UNL     1      -8.155  -8.172   8.556  0.00  0.00    +0.255 C 
ATOM     46  H   UNL     1      -8.429  -8.098   6.481  0.00  0.00    +0.157 HD
ENDROOT
BRANCH  29  31
ATOM      2  F   UNL     1      -7.385  -5.494   8.110  0.00  0.00    -0.205 F 
ATOM      3  F   UNL     1     -10.841  -8.505   9.353  0.00  0.00    -0.205 F 
ATOM     31  C   UNL     1      -9.090  -7.028   8.727  0.00  0.00    +0.107 A 
ATOM     34  C   UNL     1      -8.649  -5.726   8.492  0.00  0.00    +0.138 A 
ATOM     35  C   UNL     1     -10.407  -7.257   9.124  0.00  0.00    +0.138 A 
ATOM     39  C   UNL     1      -9.526  -4.653   8.653  0.00  0.00    +0.039 A 
ATOM     40  C   UNL     1     -11.284  -6.185   9.285  0.00  0.00    +0.039 A 
ATOM     41  C   UNL     1     -10.844  -4.882   9.049  0.00  0.00    +0.006 A 
ENDBRANCH  29  31
BRANCH  17   4
ATOM      4  O   UNL     1      -1.565 -15.176   3.387  0.00  0.00    -0.391 OA
ATOM     43  H   UNL     1      -1.936 -14.974   2.511  0.00  0.00    +0.210 HD
ENDBRANCH  17   4
BRANCH  14  22
ATOM     22  C   UNL     1      -4.294 -14.538   2.938  0.00  0.00    +0.165 C 
BRANCH  22   5
ATOM      5  O   UNL     1      -3.731 -14.771   1.667  0.00  0.00    -0.394 OA
ATOM     44  H   UNL     1      -2.771 -14.862   1.787  0.00  0.00    +0.209 HD
ENDBRANCH  22   5
ENDBRANCH  14  22
BRANCH  15  25
ATOM     25  C   UNL     1      -5.167 -12.794   8.632  0.00  0.00    +0.106 C 
BRANCH  25  26
ATOM      6  O   UNL     1      -3.622 -13.187  10.452  0.00  0.00    -0.276 OA
ATOM     10  N   UNL     1      -4.125 -11.006   9.826  0.00  0.00    -0.311 N 
ATOM     26  C   UNL     1      -4.219 -12.387   9.737  0.00  0.00    +0.214 C 
ATOM     45  H   UNL     1      -4.658 -10.430   9.180  0.00  0.00    +0.149 HD
BRANCH  10  28
ATOM     28  C   UNL     1      -3.293 -10.332  10.795  0.00  0.00    +0.139 C 
BRANCH  28  30
ATOM     30  C   UNL     1      -3.911 -10.329  12.163  0.00  0.00    -0.030 A 
ATOM     32  C   UNL     1      -5.247  -9.962  12.322  0.00  0.00    +0.009 A 
ATOM     33  C   UNL     1      -3.150 -10.692  13.274  0.00  0.00    +0.009 A 
ATOM     36  C   UNL     1      -5.823  -9.960  13.593  0.00  0.00    +0.046 A 
ATOM     37  C   UNL     1      -3.725 -10.689  14.545  0.00  0.00    +0.046 A 
ATOM     38  C   UNL     1      -5.062 -10.323  14.704  0.00  0.00    +0.120 A 
BRANCH  38   8
ATOM      8  O   UNL     1      -5.624 -10.319  15.944  0.00  0.00    -0.495 OA
ATOM     42  C   UNL     1      -4.736 -10.376  17.060  0.00  0.00    +0.277 C 
ENDBRANCH  38   8
ENDBRANCH  28  30
ENDBRANCH  10  28
ENDBRANCH  25  26
ENDBRANCH  15  25
TORSDOF 9
ENDMDL
