MODEL 1
REMARK VINA RESULT:      -7.6      0.000      0.000
REMARK  Name = 40777099
REMARK  6 active torsions:
REMARK  status: ('A' for Active; 'I' for Inactive)
REMARK    1  A    between atoms: N_5  and  C_15
REMARK    2  A    between atoms: C_9  and  C_16
REMARK    3  A    between atoms: C_10  and  C_15
REMARK    4  A    between atoms: C_18  and  C_21
REMARK    5  A    between atoms: C_19  and  C_22
REMARK    6  A    between atoms: C_20  and  C_23
REMARK                            x       y       z     vdW  Elec       q    Type
REMARK                         _______ _______ _______ _____ _____    ______ ____
ROOT
ATOM      4  N   UNL     1      12.598   6.980  19.391  0.00  0.00    -0.297 NA
ATOM      8  C   UNL     1      12.337   7.876  21.822  0.00  0.00    +0.002 C 
ATOM      9  C   UNL     1      11.678   8.853  20.810  0.00  0.00    +0.055 C 
ATOM     10  C   UNL     1      13.913   6.961  20.083  0.00  0.00    +0.074 C 
ATOM     11  C   UNL     1      13.821   7.677  21.447  0.00  0.00    +0.024 C 
ATOM     12  C   UNL     1      11.638   6.511  21.644  0.00  0.00    +0.019 C 
ATOM     13  C   UNL     1      12.047   8.359  19.381  0.00  0.00    +0.094 C 
ATOM     14  C   UNL     1      11.668   6.116  20.158  0.00  0.00    +0.085 C 
ENDROOT
BRANCH   9  16
ATOM      6  N   UNL     1      12.590  10.971  19.996  0.00  0.00    -0.237 NA
ATOM      7  N   UNL     1      12.391  13.020  21.248  0.00  0.00    -0.232 NA
ATOM     16  C   UNL     1      11.922  10.344  20.987  0.00  0.00    +0.050 A 
ATOM     17  C   UNL     1      11.463  10.979  22.123  0.00  0.00    +0.052 A 
ATOM     18  C   UNL     1      11.729  12.331  22.200  0.00  0.00    +0.076 A 
ATOM     19  C   UNL     1      12.788  12.290  20.189  0.00  0.00    +0.127 A 
ATOM     22  C   UNL     1      13.525  13.017  19.117  0.00  0.00    +0.088 C 
BRANCH  18  21
ATOM      1 BR   UNL     1       9.566  14.600  21.563  0.00  0.00    -0.050 Br
ATOM     21  C   UNL     1      11.303  13.110  23.339  0.00  0.00    +0.014 A 
ATOM     24  C   UNL     1      10.366  14.136  23.225  0.00  0.00    +0.027 A 
ATOM     25  C   UNL     1      11.861  12.809  24.582  0.00  0.00    +0.011 A 
ATOM     27  C   UNL     1       9.986  14.863  24.353  0.00  0.00    +0.016 A 
ATOM     28  C   UNL     1      11.480  13.535  25.710  0.00  0.00    +0.001 A 
ATOM     31  C   UNL     1      10.542  14.563  25.596  0.00  0.00    +0.001 A 
ENDBRANCH  18  21
ENDBRANCH   9  16
BRANCH  10  15
ATOM     15  C   UNL     1      15.036   7.531  19.215  0.00  0.00    +0.123 C 
BRANCH  15   5
ATOM      3  O   UNL     1      16.911   5.455  18.563  0.00  0.00    -0.270 OA
ATOM      5  N   UNL     1      16.313   7.311  19.822  0.00  0.00    -0.309 N 
ATOM     20  C   UNL     1      17.164   6.274  19.443  0.00  0.00    +0.251 C 
ATOM     32  H   UNL     1      16.601   7.937  20.568  0.00  0.00    +0.149 HD
BRANCH  20  23
ATOM      2  S   UNL     1      18.832   7.357  21.356  0.00  0.00    -0.092 S 
ATOM     23  C   UNL     1      18.443   6.165  20.190  0.00  0.00    +0.074 A 
ATOM     26  C   UNL     1      19.424   5.202  20.088  0.00  0.00    +0.021 A 
ATOM     29  C   UNL     1      20.508   5.447  20.979  0.00  0.00    +0.008 A 
ATOM     30  C   UNL     1      20.316   6.587  21.728  0.00  0.00    +0.046 A 
ENDBRANCH  20  23
ENDBRANCH  15   5
ENDBRANCH  10  15
TORSDOF 5
ENDMDL
MODEL 2
REMARK VINA RESULT:      -7.3     26.485     29.837
REMARK  Name = 40777099
REMARK  6 active torsions:
REMARK  status: ('A' for Active; 'I' for Inactive)
REMARK    1  A    between atoms: N_5  and  C_15
REMARK    2  A    between atoms: C_9  and  C_16
REMARK    3  A    between atoms: C_10  and  C_15
REMARK    4  A    between atoms: C_18  and  C_21
REMARK    5  A    between atoms: C_19  and  C_22
REMARK    6  A    between atoms: C_20  and  C_23
REMARK                            x       y       z     vdW  Elec       q    Type
REMARK                         _______ _______ _______ _____ _____    ______ ____
ROOT
ATOM      4  N   UNL     1      -5.706 -10.714   9.687  0.00  0.00    -0.297 NA
ATOM      8  C   UNL     1      -3.769  -9.254  10.633  0.00  0.00    +0.002 C 
ATOM      9  C   UNL     1      -3.420 -10.763  10.753  0.00  0.00    +0.055 C 
ATOM     10  C   UNL     1      -6.246  -9.712  10.643  0.00  0.00    +0.074 C 
ATOM     11  C   UNL     1      -5.098  -8.977  11.368  0.00  0.00    +0.024 C 
ATOM     12  C   UNL     1      -4.012  -8.970   9.135  0.00  0.00    +0.019 C 
ATOM     13  C   UNL     1      -4.694 -11.565  10.360  0.00  0.00    +0.094 C 
ATOM     14  C   UNL     1      -5.036  -9.979   8.588  0.00  0.00    +0.085 C 
ENDROOT
BRANCH   9  16
ATOM      6  N   UNL     1      -2.325 -10.316  12.894  0.00  0.00    -0.237 NA
ATOM      7  N   UNL     1      -1.686 -12.083  14.402  0.00  0.00    -0.232 NA
ATOM     16  C   UNL     1      -2.804 -11.257  12.054  0.00  0.00    +0.050 A 
ATOM     17  C   UNL     1      -2.762 -12.612  12.315  0.00  0.00    +0.052 A 
ATOM     18  C   UNL     1      -2.185 -12.970  13.516  0.00  0.00    +0.076 A 
ATOM     19  C   UNL     1      -1.787 -10.793  14.033  0.00  0.00    +0.127 A 
ATOM     22  C   UNL     1      -1.244  -9.783  14.986  0.00  0.00    +0.088 C 
BRANCH  18  21
ATOM      1 BR   UNL     1      -4.574 -14.056  15.345  0.00  0.00    -0.050 Br
ATOM     21  C   UNL     1      -2.078 -14.355  13.907  0.00  0.00    +0.014 A 
ATOM     24  C   UNL     1      -3.039 -14.977  14.704  0.00  0.00    +0.027 A 
ATOM     25  C   UNL     1      -0.969 -15.076  13.463  0.00  0.00    +0.011 A 
ATOM     27  C   UNL     1      -2.892 -16.318  15.057  0.00  0.00    +0.016 A 
ATOM     28  C   UNL     1      -0.822 -16.418  13.815  0.00  0.00    +0.001 A 
ATOM     31  C   UNL     1      -1.784 -17.039  14.613  0.00  0.00    +0.001 A 
ENDBRANCH  18  21
ENDBRANCH   9  16
BRANCH  10  15
ATOM     15  C   UNL     1      -7.243 -10.325  11.629  0.00  0.00    +0.123 C 
BRANCH  15   5
ATOM      3  O   UNL     1      -8.396  -9.585  14.152  0.00  0.00    -0.270 OA
ATOM      5  N   UNL     1      -6.649 -10.489  12.919  0.00  0.00    -0.309 N 
ATOM     20  C   UNL     1      -7.281 -10.099  14.099  0.00  0.00    +0.251 C 
ATOM     32  H   UNL     1      -5.721 -10.899  12.970  0.00  0.00    +0.149 HD
BRANCH  20  23
ATOM      2  S   UNL     1      -7.350 -10.870  16.748  0.00  0.00    -0.092 S 
ATOM     23  C   UNL     1      -6.521 -10.313  15.357  0.00  0.00    +0.074 A 
ATOM     26  C   UNL     1      -5.178 -10.122  15.598  0.00  0.00    +0.021 A 
ATOM     29  C   UNL     1      -4.825 -10.438  16.942  0.00  0.00    +0.008 A 
ATOM     30  C   UNL     1      -5.911 -10.858  17.677  0.00  0.00    +0.046 A 
ENDBRANCH  20  23
ENDBRANCH  15   5
ENDBRANCH  10  15
TORSDOF 5
ENDMDL
MODEL 3
REMARK VINA RESULT:      -7.2     16.956     19.980
REMARK  Name = 40777099
REMARK  6 active torsions:
REMARK  status: ('A' for Active; 'I' for Inactive)
REMARK    1  A    between atoms: N_5  and  C_15
REMARK    2  A    between atoms: C_9  and  C_16
REMARK    3  A    between atoms: C_10  and  C_15
REMARK    4  A    between atoms: C_18  and  C_21
REMARK    5  A    between atoms: C_19  and  C_22
REMARK    6  A    between atoms: C_20  and  C_23
REMARK                            x       y       z     vdW  Elec       q    Type
REMARK                         _______ _______ _______ _____ _____    ______ ____
ROOT
ATOM      4  N   UNL     1       9.940   6.935   7.676  0.00  0.00    -0.297 NA
ATOM      8  C   UNL     1       9.851   5.067   5.863  0.00  0.00    +0.002 C 
ATOM      9  C   UNL     1      11.166   5.884   5.737  0.00  0.00    +0.055 C 
ATOM     10  C   UNL     1       8.637   6.982   6.962  0.00  0.00    +0.074 C 
ATOM     11  C   UNL     1       8.644   6.023   5.752  0.00  0.00    +0.024 C 
ATOM     12  C   UNL     1       9.829   4.474   7.288  0.00  0.00    +0.019 C 
ATOM     13  C   UNL     1      11.055   7.094   6.710  0.00  0.00    +0.094 C 
ATOM     14  C   UNL     1      10.063   5.600   8.310  0.00  0.00    +0.085 C 
ENDROOT
BRANCH   9  16
ATOM      6  N   UNL     1      12.244   7.494   4.245  0.00  0.00    -0.237 NA
ATOM      7  N   UNL     1      12.467   7.101   1.878  0.00  0.00    -0.232 NA
ATOM     16  C   UNL     1      11.624   6.300   4.347  0.00  0.00    +0.050 A 
ATOM     17  C   UNL     1      11.393   5.461   3.275  0.00  0.00    +0.052 A 
ATOM     18  C   UNL     1      11.841   5.919   2.053  0.00  0.00    +0.076 A 
ATOM     19  C   UNL     1      12.633   7.828   2.999  0.00  0.00    +0.127 A 
ATOM     22  C   UNL     1      13.319   9.142   2.845  0.00  0.00    +0.088 C 
BRANCH  18  21
ATOM      1 BR   UNL     1      14.100   3.721   1.508  0.00  0.00    -0.050 Br
ATOM     21  C   UNL     1      11.659   5.137   0.853  0.00  0.00    +0.014 A 
ATOM     24  C   UNL     1      12.558   4.139   0.476  0.00  0.00    +0.027 A 
ATOM     25  C   UNL     1      10.543   5.405   0.060  0.00  0.00    +0.011 A 
ATOM     27  C   UNL     1      12.341   3.410  -0.693  0.00  0.00    +0.016 A 
ATOM     28  C   UNL     1      10.326   4.675  -1.108  0.00  0.00    +0.001 A 
ATOM     31  C   UNL     1      11.225   3.677  -1.485  0.00  0.00    +0.001 A 
ENDBRANCH  18  21
ENDBRANCH   9  16
BRANCH  10  15
ATOM     15  C   UNL     1       8.243   8.404   6.560  0.00  0.00    +0.123 C 
BRANCH  15   5
ATOM      3  O   UNL     1      10.035   9.931   4.916  0.00  0.00    -0.270 OA
ATOM      5  N   UNL     1       8.192   8.537   5.137  0.00  0.00    -0.309 N 
ATOM     20  C   UNL     1       9.106   9.303   4.414  0.00  0.00    +0.251 C 
ATOM     32  H   UNL     1       7.449   8.058   4.638  0.00  0.00    +0.149 HD
BRANCH  20  23
ATOM      2  S   UNL     1       8.414  10.839   2.229  0.00  0.00    -0.092 S 
ATOM     23  C   UNL     1       8.901   9.361   2.944  0.00  0.00    +0.074 A 
ATOM     26  C   UNL     1       9.048   8.359   2.010  0.00  0.00    +0.021 A 
ATOM     29  C   UNL     1       8.757   8.810   0.691  0.00  0.00    +0.008 A 
ATOM     30  C   UNL     1       8.399  10.140   0.666  0.00  0.00    +0.046 A 
ENDBRANCH  20  23
ENDBRANCH  15   5
ENDBRANCH  10  15
TORSDOF 5
ENDMDL
MODEL 4
REMARK VINA RESULT:      -7.1     26.563     29.840
REMARK  Name = 40777099
REMARK  6 active torsions:
REMARK  status: ('A' for Active; 'I' for Inactive)
REMARK    1  A    between atoms: N_5  and  C_15
REMARK    2  A    between atoms: C_9  and  C_16
REMARK    3  A    between atoms: C_10  and  C_15
REMARK    4  A    between atoms: C_18  and  C_21
REMARK    5  A    between atoms: C_19  and  C_22
REMARK    6  A    between atoms: C_20  and  C_23
REMARK                            x       y       z     vdW  Elec       q    Type
REMARK                         _______ _______ _______ _____ _____    ______ ____
ROOT
ATOM      4  N   UNL     1      -6.243 -11.393  10.891  0.00  0.00    -0.297 NA
ATOM      8  C   UNL     1      -4.933  -9.321  11.772  0.00  0.00    +0.002 C 
ATOM      9  C   UNL     1      -4.293 -10.634  12.301  0.00  0.00    +0.055 C 
ATOM     10  C   UNL     1      -7.187 -10.408  11.480  0.00  0.00    +0.074 C 
ATOM     11  C   UNL     1      -6.418  -9.273  12.191  0.00  0.00    +0.024 C 
ATOM     12  C   UNL     1      -4.900  -9.399  10.230  0.00  0.00    +0.019 C 
ATOM     13  C   UNL     1      -5.239 -11.804  11.903  0.00  0.00    +0.094 C 
ATOM     14  C   UNL     1      -5.529 -10.727   9.775  0.00  0.00    +0.085 C 
ENDROOT
BRANCH   9  16
ATOM      6  N   UNL     1      -2.583 -10.455  14.039  0.00  0.00    -0.237 NA
ATOM      7  N   UNL     1      -3.084 -10.790  16.373  0.00  0.00    -0.232 NA
ATOM     16  C   UNL     1      -3.881 -10.695  13.764  0.00  0.00    +0.050 A 
ATOM     17  C   UNL     1      -4.829 -10.983  14.726  0.00  0.00    +0.052 A 
ATOM     18  C   UNL     1      -4.368 -11.018  16.026  0.00  0.00    +0.076 A 
ATOM     19  C   UNL     1      -2.257 -10.519  15.346  0.00  0.00    +0.127 A 
ATOM     22  C   UNL     1      -0.830 -10.263  15.689  0.00  0.00    +0.088 C 
BRANCH  18  21
ATOM      1 BR   UNL     1      -5.265 -14.079  16.271  0.00  0.00    -0.050 Br
ATOM     21  C   UNL     1      -5.258 -11.311  17.124  0.00  0.00    +0.014 A 
ATOM     24  C   UNL     1      -5.738 -12.597  17.365  0.00  0.00    +0.027 A 
ATOM     25  C   UNL     1      -5.637 -10.258  17.957  0.00  0.00    +0.011 A 
ATOM     27  C   UNL     1      -6.598 -12.832  18.438  0.00  0.00    +0.016 A 
ATOM     28  C   UNL     1      -6.495 -10.492  19.031  0.00  0.00    +0.001 A 
ATOM     31  C   UNL     1      -6.976 -11.780  19.272  0.00  0.00    +0.001 A 
ENDBRANCH  18  21
ENDBRANCH   9  16
BRANCH  10  15
ATOM     15  C   UNL     1      -8.214 -11.066  12.405  0.00  0.00    +0.123 C 
BRANCH  15   5
ATOM      3  O   UNL     1      -8.380 -11.423  15.249  0.00  0.00    -0.270 OA
ATOM      5  N   UNL     1      -8.722 -10.126  13.355  0.00  0.00    -0.309 N 
ATOM     20  C   UNL     1      -8.766 -10.382  14.725  0.00  0.00    +0.251 C 
ATOM     32  H   UNL     1      -9.073  -9.238  13.009  0.00  0.00    +0.149 HD
BRANCH  20  23
ATOM      2  S   UNL     1     -10.695  -8.427  15.000  0.00  0.00    -0.092 S 
ATOM     23  C   UNL     1      -9.348  -9.313  15.577  0.00  0.00    +0.074 A 
ATOM     26  C   UNL     1      -8.954  -8.896  16.830  0.00  0.00    +0.021 A 
ATOM     29  C   UNL     1      -9.769  -7.837  17.323  0.00  0.00    +0.008 A 
ATOM     30  C   UNL     1     -10.754  -7.483  16.427  0.00  0.00    +0.046 A 
ENDBRANCH  20  23
ENDBRANCH  15   5
ENDBRANCH  10  15
TORSDOF 5
ENDMDL
MODEL 5
REMARK VINA RESULT:      -7.0     27.763     30.180
REMARK  Name = 40777099
REMARK  6 active torsions:
REMARK  status: ('A' for Active; 'I' for Inactive)
REMARK    1  A    between atoms: N_5  and  C_15
REMARK    2  A    between atoms: C_9  and  C_16
REMARK    3  A    between atoms: C_10  and  C_15
REMARK    4  A    between atoms: C_18  and  C_21
REMARK    5  A    between atoms: C_19  and  C_22
REMARK    6  A    between atoms: C_20  and  C_23
REMARK                            x       y       z     vdW  Elec       q    Type
REMARK                         _______ _______ _______ _____ _____    ______ ____
ROOT
ATOM      4  N   UNL     1      -7.015 -10.274  18.012  0.00  0.00    -0.297 NA
ATOM      8  C   UNL     1      -5.399 -12.303  18.242  0.00  0.00    +0.002 C 
ATOM      9  C   UNL     1      -4.847 -11.282  17.210  0.00  0.00    +0.055 C 
ATOM     10  C   UNL     1      -7.775 -11.545  17.885  0.00  0.00    +0.074 C 
ATOM     11  C   UNL     1      -6.812 -12.750  17.811  0.00  0.00    +0.024 C 
ATOM     12  C   UNL     1      -5.552 -11.546  19.579  0.00  0.00    +0.019 C 
ATOM     13  C   UNL     1      -5.952 -10.210  16.980  0.00  0.00    +0.094 C 
ATOM     14  C   UNL     1      -6.368 -10.263  19.346  0.00  0.00    +0.085 C 
ENDROOT
BRANCH   9  16
ATOM      6  N   UNL     1      -4.047 -13.143  15.841  0.00  0.00    -0.237 NA
ATOM      7  N   UNL     1      -3.260 -12.834  13.584  0.00  0.00    -0.232 NA
ATOM     16  C   UNL     1      -4.279 -11.816  15.903  0.00  0.00    +0.050 A 
ATOM     17  C   UNL     1      -4.032 -10.945  14.861  0.00  0.00    +0.052 A 
ATOM     18  C   UNL     1      -3.518 -11.516  13.715  0.00  0.00    +0.076 A 
ATOM     19  C   UNL     1      -3.543 -13.579  14.669  0.00  0.00    +0.127 A 
ATOM     22  C   UNL     1      -3.270 -15.040  14.564  0.00  0.00    +0.088 C 
BRANCH  18  21
ATOM      1 BR   UNL     1      -6.021 -10.820  11.850  0.00  0.00    -0.050 Br
ATOM     21  C   UNL     1      -3.214 -10.713  12.555  0.00  0.00    +0.014 A 
ATOM     24  C   UNL     1      -4.197 -10.326  11.644  0.00  0.00    +0.027 A 
ATOM     25  C   UNL     1      -1.889 -10.324  12.357  0.00  0.00    +0.011 A 
ATOM     27  C   UNL     1      -3.856  -9.550  10.536  0.00  0.00    +0.016 A 
ATOM     28  C   UNL     1      -1.548  -9.547  11.250  0.00  0.00    +0.001 A 
ATOM     31  C   UNL     1      -2.531  -9.160  10.339  0.00  0.00    +0.001 A 
ENDBRANCH  18  21
ENDBRANCH   9  16
BRANCH  10  15
ATOM     15  C   UNL     1      -8.753 -11.524  16.709  0.00  0.00    +0.123 C 
BRANCH  15   5
ATOM      3  O   UNL     1      -9.244  -9.727  14.523  0.00  0.00    -0.270 OA
ATOM      5  N   UNL     1      -9.562 -10.345  16.738  0.00  0.00    -0.309 N 
ATOM     20  C   UNL     1      -9.747  -9.525  15.626  0.00  0.00    +0.251 C 
ATOM     32  H   UNL     1     -10.011 -10.095  17.614  0.00  0.00    +0.149 HD
BRANCH  20  23
ATOM      2  S   UNL     1     -12.278  -8.430  15.526  0.00  0.00    -0.092 S 
ATOM     23  C   UNL     1     -10.595  -8.323  15.826  0.00  0.00    +0.074 A 
ATOM     26  C   UNL     1     -10.224  -7.061  16.237  0.00  0.00    +0.021 A 
ATOM     29  C   UNL     1     -11.334  -6.172  16.307  0.00  0.00    +0.008 A 
ATOM     30  C   UNL     1     -12.513  -6.787  15.947  0.00  0.00    +0.046 A 
ENDBRANCH  20  23
ENDBRANCH  15   5
ENDBRANCH  10  15
TORSDOF 5
ENDMDL
MODEL 6
REMARK VINA RESULT:      -7.0     27.348     29.826
REMARK  Name = 40777099
REMARK  6 active torsions:
REMARK  status: ('A' for Active; 'I' for Inactive)
REMARK    1  A    between atoms: N_5  and  C_15
REMARK    2  A    between atoms: C_9  and  C_16
REMARK    3  A    between atoms: C_10  and  C_15
REMARK    4  A    between atoms: C_18  and  C_21
REMARK    5  A    between atoms: C_19  and  C_22
REMARK    6  A    between atoms: C_20  and  C_23
REMARK                            x       y       z     vdW  Elec       q    Type
REMARK                         _______ _______ _______ _____ _____    ______ ____
ROOT
ATOM      4  N   UNL     1      -2.581 -10.683  13.549  0.00  0.00    -0.297 NA
ATOM      8  C   UNL     1      -3.819 -12.943  13.169  0.00  0.00    +0.002 C 
ATOM      9  C   UNL     1      -4.807 -11.752  13.031  0.00  0.00    +0.055 C 
ATOM     10  C   UNL     1      -2.266 -11.626  14.654  0.00  0.00    +0.074 C 
ATOM     11  C   UNL     1      -3.147 -12.891  14.558  0.00  0.00    +0.024 C 
ATOM     12  C   UNL     1      -2.707 -12.723  12.121  0.00  0.00    +0.019 C 
ATOM     13  C   UNL     1      -4.046 -10.466  13.467  0.00  0.00    +0.094 C 
ATOM     14  C   UNL     1      -2.133 -11.305  12.280  0.00  0.00    +0.085 C 
ENDROOT
BRANCH   9  16
ATOM      6  N   UNL     1      -6.709 -13.105  13.760  0.00  0.00    -0.237 NA
ATOM      7  N   UNL     1      -8.617 -12.143  14.873  0.00  0.00    -0.232 NA
ATOM     16  C   UNL     1      -6.171 -11.870  13.695  0.00  0.00    +0.050 A 
ATOM     17  C   UNL     1      -6.786 -10.737  14.190  0.00  0.00    +0.052 A 
ATOM     18  C   UNL     1      -8.021 -10.937  14.774  0.00  0.00    +0.076 A 
ATOM     19  C   UNL     1      -7.917 -13.168  14.353  0.00  0.00    +0.127 A 
ATOM     22  C   UNL     1      -8.545 -14.517  14.442  0.00  0.00    +0.088 C 
BRANCH  18  21
ATOM      1 BR   UNL     1     -10.248  -9.697  12.842  0.00  0.00    -0.050 Br
ATOM     21  C   UNL     1      -8.769  -9.834  15.329  0.00  0.00    +0.014 A 
ATOM     24  C   UNL     1      -9.774  -9.186  14.611  0.00  0.00    +0.027 A 
ATOM     25  C   UNL     1      -8.459  -9.420  16.624  0.00  0.00    +0.011 A 
ATOM     27  C   UNL     1     -10.470  -8.124  15.188  0.00  0.00    +0.016 A 
ATOM     28  C   UNL     1      -9.156  -8.358  17.202  0.00  0.00    +0.001 A 
ATOM     31  C   UNL     1     -10.161  -7.710  16.484  0.00  0.00    +0.001 A 
ENDBRANCH  18  21
ENDBRANCH   9  16
BRANCH  10  15
ATOM     15  C   UNL     1      -2.365 -10.966  16.030  0.00  0.00    +0.123 C 
BRANCH  15   5
ATOM      3  O   UNL     1      -4.752  -9.565  16.796  0.00  0.00    -0.270 OA
ATOM      5  N   UNL     1      -3.466 -11.497  16.773  0.00  0.00    -0.309 N 
ATOM     20  C   UNL     1      -4.591 -10.743  17.104  0.00  0.00    +0.251 C 
ATOM     32  H   UNL     1      -3.414 -12.464  17.079  0.00  0.00    +0.149 HD
BRANCH  20  23
ATOM      2  S   UNL     1      -6.127 -10.753  19.397  0.00  0.00    -0.092 S 
ATOM     23  C   UNL     1      -5.636 -11.433  17.903  0.00  0.00    +0.074 A 
ATOM     26  C   UNL     1      -6.313 -12.599  17.619  0.00  0.00    +0.021 A 
ATOM     29  C   UNL     1      -7.246 -12.939  18.641  0.00  0.00    +0.008 A 
ATOM     30  C   UNL     1      -7.247 -12.020  19.667  0.00  0.00    +0.046 A 
ENDBRANCH  20  23
ENDBRANCH  15   5
ENDBRANCH  10  15
TORSDOF 5
ENDMDL
MODEL 7
REMARK VINA RESULT:      -7.0     28.283     30.013
REMARK  Name = 40777099
REMARK  6 active torsions:
REMARK  status: ('A' for Active; 'I' for Inactive)
REMARK    1  A    between atoms: N_5  and  C_15
REMARK    2  A    between atoms: C_9  and  C_16
REMARK    3  A    between atoms: C_10  and  C_15
REMARK    4  A    between atoms: C_18  and  C_21
REMARK    5  A    between atoms: C_19  and  C_22
REMARK    6  A    between atoms: C_20  and  C_23
REMARK                            x       y       z     vdW  Elec       q    Type
REMARK                         _______ _______ _______ _____ _____    ______ ____
ROOT
ATOM      4  N   UNL     1      -6.560 -10.129  17.410  0.00  0.00    -0.297 NA
ATOM      8  C   UNL     1      -4.916 -12.149  17.383  0.00  0.00    +0.002 C 
ATOM      9  C   UNL     1      -4.401 -11.016  16.452  0.00  0.00    +0.055 C 
ATOM     10  C   UNL     1      -7.309 -11.390  17.167  0.00  0.00    +0.074 C 
ATOM     11  C   UNL     1      -6.335 -12.567  16.942  0.00  0.00    +0.024 C 
ATOM     12  C   UNL     1      -5.043 -11.541  18.797  0.00  0.00    +0.019 C 
ATOM     13  C   UNL     1      -5.524  -9.942  16.365  0.00  0.00    +0.094 C 
ATOM     14  C   UNL     1      -5.878 -10.251  18.721  0.00  0.00    +0.085 C 
ENDROOT
BRANCH   9  16
ATOM      6  N   UNL     1      -3.034 -12.465  15.035  0.00  0.00    -0.237 NA
ATOM      7  N   UNL     1      -2.861 -12.140  12.654  0.00  0.00    -0.232 NA
ATOM     16  C   UNL     1      -3.862 -11.402  15.083  0.00  0.00    +0.050 A 
ATOM     17  C   UNL     1      -4.232 -10.667  13.974  0.00  0.00    +0.052 A 
ATOM     18  C   UNL     1      -3.695 -11.086  12.774  0.00  0.00    +0.076 A 
ATOM     19  C   UNL     1      -2.576 -12.775  13.806  0.00  0.00    +0.127 A 
ATOM     22  C   UNL     1      -1.655 -13.943  13.713  0.00  0.00    +0.088 C 
BRANCH  18  21
ATOM      1 BR   UNL     1      -1.255  -9.485  11.464  0.00  0.00    -0.050 Br
ATOM     21  C   UNL     1      -4.002 -10.402  11.541  0.00  0.00    +0.014 A 
ATOM     24  C   UNL     1      -3.046  -9.660  10.848  0.00  0.00    +0.027 A 
ATOM     25  C   UNL     1      -5.303 -10.498  11.046  0.00  0.00    +0.011 A 
ATOM     27  C   UNL     1      -3.389  -9.014   9.661  0.00  0.00    +0.016 A 
ATOM     28  C   UNL     1      -5.646  -9.852   9.858  0.00  0.00    +0.001 A 
ATOM     31  C   UNL     1      -4.689  -9.110   9.165  0.00  0.00    +0.001 A 
ENDBRANCH  18  21
ENDBRANCH   9  16
BRANCH  10  15
ATOM     15  C   UNL     1      -8.317 -11.258  16.024  0.00  0.00    +0.123 C 
BRANCH  15   5
ATOM      3  O   UNL     1      -9.658  -9.829  13.925  0.00  0.00    -0.270 OA
ATOM      5  N   UNL     1      -9.096 -10.067  16.164  0.00  0.00    -0.309 N 
ATOM     20  C   UNL     1      -9.715  -9.435  15.087  0.00  0.00    +0.251 C 
ATOM     32  H   UNL     1      -9.189  -9.663  17.092  0.00  0.00    +0.149 HD
BRANCH  20  23
ATOM      2  S   UNL     1     -11.766  -7.730  14.378  0.00  0.00    -0.092 S 
ATOM     23  C   UNL     1     -10.467  -8.191  15.394  0.00  0.00    +0.074 A 
ATOM     26  C   UNL     1     -10.274  -7.297  16.425  0.00  0.00    +0.021 A 
ATOM     29  C   UNL     1     -11.205  -6.220  16.380  0.00  0.00    +0.008 A 
ATOM     30  C   UNL     1     -12.074  -6.331  15.317  0.00  0.00    +0.046 A 
ENDBRANCH  20  23
ENDBRANCH  15   5
ENDBRANCH  10  15
TORSDOF 5
ENDMDL
MODEL 8
REMARK VINA RESULT:      -6.9     13.014     16.039
REMARK  Name = 40777099
REMARK  6 active torsions:
REMARK  status: ('A' for Active; 'I' for Inactive)
REMARK    1  A    between atoms: N_5  and  C_15
REMARK    2  A    between atoms: C_9  and  C_16
REMARK    3  A    between atoms: C_10  and  C_15
REMARK    4  A    between atoms: C_18  and  C_21
REMARK    5  A    between atoms: C_19  and  C_22
REMARK    6  A    between atoms: C_20  and  C_23
REMARK                            x       y       z     vdW  Elec       q    Type
REMARK                         _______ _______ _______ _____ _____    ______ ____
ROOT
ATOM      4  N   UNL     1      18.262  -2.834  22.977  0.00  0.00    -0.297 NA
ATOM      8  C   UNL     1      16.855  -1.901  24.960  0.00  0.00    +0.002 C 
ATOM      9  C   UNL     1      18.332  -2.111  25.393  0.00  0.00    +0.055 C 
ATOM     10  C   UNL     1      17.025  -3.640  23.145  0.00  0.00    +0.074 C 
ATOM     11  C   UNL     1      16.282  -3.235  24.437  0.00  0.00    +0.024 C 
ATOM     12  C   UNL     1      16.875  -0.919  23.769  0.00  0.00    +0.019 C 
ATOM     13  C   UNL     1      19.055  -2.852  24.231  0.00  0.00    +0.094 C 
ATOM     14  C   UNL     1      17.859  -1.434  22.704  0.00  0.00    +0.085 C 
ENDROOT
BRANCH   9  16
ATOM      6  N   UNL     1      19.782  -3.390  26.891  0.00  0.00    -0.237 NA
ATOM      7  N   UNL     1      19.137  -3.932  29.149  0.00  0.00    -0.232 NA
ATOM     16  C   UNL     1      18.600  -2.756  26.745  0.00  0.00    +0.050 A 
ATOM     17  C   UNL     1      17.649  -2.667  27.741  0.00  0.00    +0.052 A 
ATOM     18  C   UNL     1      17.975  -3.280  28.934  0.00  0.00    +0.076 A 
ATOM     19  C   UNL     1      19.982  -3.948  28.101  0.00  0.00    +0.127 A 
ATOM     22  C   UNL     1      21.276  -4.661  28.299  0.00  0.00    +0.088 C 
BRANCH  18  21
ATOM      1 BR   UNL     1      18.362  -0.834  30.958  0.00  0.00    -0.050 Br
ATOM     21  C   UNL     1      17.065  -3.262  30.054  0.00  0.00    +0.014 A 
ATOM     24  C   UNL     1      17.106  -2.261  31.025  0.00  0.00    +0.027 A 
ATOM     25  C   UNL     1      16.124  -4.287  30.150  0.00  0.00    +0.011 A 
ATOM     27  C   UNL     1      16.207  -2.285  32.091  0.00  0.00    +0.016 A 
ATOM     28  C   UNL     1      15.225  -4.311  31.215  0.00  0.00    +0.001 A 
ATOM     31  C   UNL     1      15.266  -3.310  32.186  0.00  0.00    +0.001 A 
ENDBRANCH  18  21
ENDBRANCH   9  16
BRANCH  10  15
ATOM     15  C   UNL     1      17.297  -5.144  23.091  0.00  0.00    +0.123 C 
BRANCH  15   5
ATOM      3  O   UNL     1      19.589  -6.279  24.398  0.00  0.00    -0.270 OA
ATOM      5  N   UNL     1      17.340  -5.703  24.408  0.00  0.00    -0.309 N 
ATOM     20  C   UNL     1      18.501  -6.235  24.967  0.00  0.00    +0.251 C 
ATOM     32  H   UNL     1      16.481  -5.717  24.949  0.00  0.00    +0.149 HD
BRANCH  20  23
ATOM      2  S   UNL     1      19.573  -7.886  26.901  0.00  0.00    -0.092 S 
ATOM     23  C   UNL     1      18.375  -6.801  26.334  0.00  0.00    +0.074 A 
ATOM     26  C   UNL     1      17.391  -6.581  27.274  0.00  0.00    +0.021 A 
ATOM     29  C   UNL     1      17.624  -7.312  28.474  0.00  0.00    +0.008 A 
ATOM     30  C   UNL     1      18.777  -8.064  28.407  0.00  0.00    +0.046 A 
ENDBRANCH  20  23
ENDBRANCH  15   5
ENDBRANCH  10  15
TORSDOF 5
ENDMDL
MODEL 9
REMARK VINA RESULT:      -6.9     26.607     29.621
REMARK  Name = 40777099
REMARK  6 active torsions:
REMARK  status: ('A' for Active; 'I' for Inactive)
REMARK    1  A    between atoms: N_5  and  C_15
REMARK    2  A    between atoms: C_9  and  C_16
REMARK    3  A    between atoms: C_10  and  C_15
REMARK    4  A    between atoms: C_18  and  C_21
REMARK    5  A    between atoms: C_19  and  C_22
REMARK    6  A    between atoms: C_20  and  C_23
REMARK                            x       y       z     vdW  Elec       q    Type
REMARK                         _______ _______ _______ _____ _____    ______ ____
ROOT
ATOM      4  N   UNL     1      -5.517 -10.981  10.275  0.00  0.00    -0.297 NA
ATOM      8  C   UNL     1      -3.193 -11.650  11.241  0.00  0.00    +0.002 C 
ATOM      9  C   UNL     1      -4.297 -11.806  12.323  0.00  0.00    +0.055 C 
ATOM     10  C   UNL     1      -4.519  -9.919   9.979  0.00  0.00    +0.074 C 
ATOM     11  C   UNL     1      -3.193 -10.197  10.719  0.00  0.00    +0.024 C 
ATOM     12  C   UNL     1      -3.596 -12.556  10.059  0.00  0.00    +0.019 C 
ATOM     13  C   UNL     1      -5.607 -11.202  11.739  0.00  0.00    +0.094 C 
ATOM     14  C   UNL     1      -5.043 -12.236   9.645  0.00  0.00    +0.085 C 
ENDROOT
BRANCH   9  16
ATOM      6  N   UNL     1      -2.710 -11.065  14.030  0.00  0.00    -0.237 NA
ATOM      7  N   UNL     1      -3.415 -10.393  16.234  0.00  0.00    -0.232 NA
ATOM     16  C   UNL     1      -4.003 -11.300  13.728  0.00  0.00    +0.050 A 
ATOM     17  C   UNL     1      -5.045 -11.108  14.613  0.00  0.00    +0.052 A 
ATOM     18  C   UNL     1      -4.687 -10.649  15.865  0.00  0.00    +0.076 A 
ATOM     19  C   UNL     1      -2.490 -10.620  15.282  0.00  0.00    +0.127 A 
ATOM     22  C   UNL     1      -1.072 -10.350  15.654  0.00  0.00    +0.088 C 
BRANCH  18  21
ATOM      1 BR   UNL     1      -4.120 -12.059  18.679  0.00  0.00    -0.050 Br
ATOM     21  C   UNL     1      -5.682 -10.409  16.882  0.00  0.00    +0.014 A 
ATOM     24  C   UNL     1      -5.579 -10.954  18.162  0.00  0.00    +0.027 A 
ATOM     25  C   UNL     1      -6.774  -9.605  16.553  0.00  0.00    +0.011 A 
ATOM     27  C   UNL     1      -6.566 -10.695  19.113  0.00  0.00    +0.016 A 
ATOM     28  C   UNL     1      -7.760  -9.345  17.504  0.00  0.00    +0.001 A 
ATOM     31  C   UNL     1      -7.657  -9.891  18.785  0.00  0.00    +0.001 A 
ENDBRANCH  18  21
ENDBRANCH   9  16
BRANCH  10  15
ATOM     15  C   UNL     1      -5.055  -8.517  10.278  0.00  0.00    +0.123 C 
BRANCH  15   5
ATOM      3  O   UNL     1      -7.921  -8.681  10.283  0.00  0.00    -0.270 OA
ATOM      5  N   UNL     1      -5.937  -8.076   9.243  0.00  0.00    -0.309 N 
ATOM     20  C   UNL     1      -7.323  -8.194   9.327  0.00  0.00    +0.251 C 
ATOM     32  H   UNL     1      -5.528  -7.667   8.408  0.00  0.00    +0.149 HD
BRANCH  20  23
ATOM      2  S   UNL     1      -7.787  -8.390   6.613  0.00  0.00    -0.092 S 
ATOM     23  C   UNL     1      -8.099  -7.713   8.155  0.00  0.00    +0.074 A 
ATOM     26  C   UNL     1      -9.087  -6.753   8.107  0.00  0.00    +0.021 A 
ATOM     29  C   UNL     1      -9.593  -6.571   6.789  0.00  0.00    +0.008 A 
ATOM     30  C   UNL     1      -8.974  -7.399   5.878  0.00  0.00    +0.046 A 
ENDBRANCH  20  23
ENDBRANCH  15   5
ENDBRANCH  10  15
TORSDOF 5
ENDMDL
MODEL 10
REMARK VINA RESULT:      -6.9     28.465     30.269
REMARK  Name = 40777099
REMARK  6 active torsions:
REMARK  status: ('A' for Active; 'I' for Inactive)
REMARK    1  A    between atoms: N_5  and  C_15
REMARK    2  A    between atoms: C_9  and  C_16
REMARK    3  A    between atoms: C_10  and  C_15
REMARK    4  A    between atoms: C_18  and  C_21
REMARK    5  A    between atoms: C_19  and  C_22
REMARK    6  A    between atoms: C_20  and  C_23
REMARK                            x       y       z     vdW  Elec       q    Type
REMARK                         _______ _______ _______ _____ _____    ______ ____
ROOT
ATOM      4  N   UNL     1      -4.169  -9.596  11.542  0.00  0.00    -0.297 NA
ATOM      8  C   UNL     1      -5.054 -11.204   9.694  0.00  0.00    +0.002 C 
ATOM      9  C   UNL     1      -4.931  -9.757   9.142  0.00  0.00    +0.055 C 
ATOM     10  C   UNL     1      -5.307 -10.396  12.067  0.00  0.00    +0.074 C 
ATOM     11  C   UNL     1      -5.976 -11.201  10.932  0.00  0.00    +0.024 C 
ATOM     12  C   UNL     1      -3.648 -11.618  10.178  0.00  0.00    +0.019 C 
ATOM     13  C   UNL     1      -4.595  -8.829  10.345  0.00  0.00    +0.094 C 
ATOM     14  C   UNL     1      -3.102 -10.541  11.131  0.00  0.00    +0.085 C 
ENDROOT
BRANCH   9  16
ATOM      6  N   UNL     1      -6.119  -9.624   7.009  0.00  0.00    -0.237 NA
ATOM      7  N   UNL     1      -8.091  -8.269   6.719  0.00  0.00    -0.232 NA
ATOM     16  C   UNL     1      -6.070  -9.213   8.292  0.00  0.00    +0.050 A 
ATOM     17  C   UNL     1      -6.983  -8.344   8.855  0.00  0.00    +0.052 A 
ATOM     18  C   UNL     1      -7.982  -7.900   8.012  0.00  0.00    +0.076 A 
ATOM     19  C   UNL     1      -7.140  -9.120   6.289  0.00  0.00    +0.127 A 
ATOM     22  C   UNL     1      -7.226  -9.549   4.863  0.00  0.00    +0.088 C 
BRANCH  18  21
ATOM      1 BR   UNL     1     -10.523  -9.277   9.382  0.00  0.00    -0.050 Br
ATOM     21  C   UNL     1      -8.998  -6.987   8.478  0.00  0.00    +0.014 A 
ATOM     24  C   UNL     1     -10.166  -7.431   9.096  0.00  0.00    +0.027 A 
ATOM     25  C   UNL     1      -8.784  -5.621   8.291  0.00  0.00    +0.011 A 
ATOM     27  C   UNL     1     -11.121  -6.511   9.529  0.00  0.00    +0.016 A 
ATOM     28  C   UNL     1      -9.738  -4.700   8.725  0.00  0.00    +0.001 A 
ATOM     31  C   UNL     1     -10.907  -5.145   9.344  0.00  0.00    +0.001 A 
ENDBRANCH  18  21
ENDBRANCH   9  16
BRANCH  10  15
ATOM     15  C   UNL     1      -6.318  -9.538  12.830  0.00  0.00    +0.123 C 
BRANCH  15   5
ATOM      3  O   UNL     1      -7.413 -11.526  14.589  0.00  0.00    -0.270 OA
ATOM      5  N   UNL     1      -6.110  -9.636  14.241  0.00  0.00    -0.309 N 
ATOM     20  C   UNL     1      -6.683 -10.638  15.023  0.00  0.00    +0.251 C 
ATOM     32  H   UNL     1      -5.526  -8.936  14.688  0.00  0.00    +0.149 HD
BRANCH  20  23
ATOM      2  S   UNL     1      -7.658 -10.215  17.570  0.00  0.00    -0.092 S 
ATOM     23  C   UNL     1      -6.391 -10.587  16.479  0.00  0.00    +0.074 A 
ATOM     26  C   UNL     1      -5.196 -10.802  17.130  0.00  0.00    +0.021 A 
ATOM     29  C   UNL     1      -5.321 -10.660  18.541  0.00  0.00    +0.008 A 
ATOM     30  C   UNL     1      -6.608 -10.341  18.917  0.00  0.00    +0.046 A 
ENDBRANCH  20  23
ENDBRANCH  15   5
ENDBRANCH  10  15
TORSDOF 5
ENDMDL
