MODEL 1
REMARK VINA RESULT:      -8.3      0.000      0.000
REMARK  Name = 7142696
REMARK  3 active torsions:
REMARK  status: ('A' for Active; 'I' for Inactive)
REMARK    1  A    between atoms: N_7  and  C_18
REMARK    2  A    between atoms: C_17  and  C_20
REMARK    3  A    between atoms: C_23  and  C_27
REMARK                            x       y       z     vdW  Elec       q    Type
REMARK                         _______ _______ _______ _____ _____    ______ ____
ROOT
ATOM      2  O   UNL     1      15.511   6.236  21.267  0.00  0.00    -0.266 OA
ATOM      3  O   UNL     1      11.766   7.168  17.820  0.00  0.00    -0.270 OA
ATOM      5  N   UNL     1      11.690   8.865  19.428  0.00  0.00    -0.297 N 
ATOM      6  N   UNL     1      14.166   8.147  21.276  0.00  0.00    -0.310 N 
ATOM      8  C   UNL     1      11.656   8.071  21.787  0.00  0.00    +0.027 C 
ATOM      9  C   UNL     1      12.729  10.217  21.234  0.00  0.00    +0.054 C 
ATOM     10  C   UNL     1      11.854   9.505  22.265  0.00  0.00    +0.018 C 
ATOM     11  C   UNL     1      10.968   8.054  20.410  0.00  0.00    +0.113 C 
ATOM     12  C   UNL     1      13.018   7.366  21.760  0.00  0.00    +0.130 C 
ATOM     13  C   UNL     1      12.011  10.232  19.870  0.00  0.00    +0.117 C 
ATOM     14  C   UNL     1      14.075   9.531  21.095  0.00  0.00    +0.027 A 
ATOM     15  C   UNL     1      15.166  10.242  20.764  0.00  0.00    +0.024 A 
ATOM     16  C   UNL     1      15.379   7.450  21.103  0.00  0.00    +0.273 A 
ATOM     17  C   UNL     1      12.032   8.309  18.194  0.00  0.00    +0.247 C 
ATOM     18  C   UNL     1      16.563   8.275  20.707  0.00  0.00    +0.099 A 
ATOM     19  C   UNL     1      16.433   9.598  20.564  0.00  0.00    +0.030 A 
ENDROOT
BRANCH  17  20
ATOM     20  C   UNL     1      12.794   9.137  17.254  0.00  0.00    +0.037 A 
ATOM     21  C   UNL     1      14.093   9.530  17.570  0.00  0.00    +0.013 A 
ATOM     22  C   UNL     1      12.215   9.529  16.050  0.00  0.00    +0.013 A 
ATOM     24  C   UNL     1      14.817  10.316  16.674  0.00  0.00    +0.001 A 
ATOM     25  C   UNL     1      12.938  10.315  15.154  0.00  0.00    +0.001 A 
ATOM     26  C   UNL     1      14.239  10.709  15.466  0.00  0.00    +0.000 A 
ENDBRANCH  17  20
BRANCH  18   7
ATOM      4  O   UNL     1      18.857   8.535  22.323  0.00  0.00    -0.270 OA
ATOM      7  N   UNL     1      17.752   7.635  20.510  0.00  0.00    -0.277 N 
ATOM     23  C   UNL     1      18.864   7.794  21.338  0.00  0.00    +0.248 C 
ATOM     33  H   UNL     1      17.830   7.138  19.631  0.00  0.00    +0.155 HD
BRANCH  23  27
ATOM      1  F   UNL     1      23.342   4.751  19.975  0.00  0.00    -0.205 F 
ATOM     27  C   UNL     1      20.043   6.993  20.977  0.00  0.00    +0.037 A 
ATOM     28  C   UNL     1      21.272   7.618  20.826  0.00  0.00    +0.016 A 
ATOM     29  C   UNL     1      19.907   5.624  20.797  0.00  0.00    +0.016 A 
ATOM     30  C   UNL     1      22.390   6.857  20.485  0.00  0.00    +0.039 A 
ATOM     31  C   UNL     1      21.027   4.864  20.456  0.00  0.00    +0.039 A 
ATOM     32  C   UNL     1      22.268   5.481  20.301  0.00  0.00    +0.123 A 
ENDBRANCH  23  27
ENDBRANCH  18   7
TORSDOF 3
ENDMDL
MODEL 2
REMARK VINA RESULT:      -7.6     27.536     30.650
REMARK  Name = 7142696
REMARK  3 active torsions:
REMARK  status: ('A' for Active; 'I' for Inactive)
REMARK    1  A    between atoms: N_7  and  C_18
REMARK    2  A    between atoms: C_17  and  C_20
REMARK    3  A    between atoms: C_23  and  C_27
REMARK                            x       y       z     vdW  Elec       q    Type
REMARK                         _______ _______ _______ _____ _____    ______ ____
ROOT
ATOM      2  O   UNL     1      -6.663  -9.916  14.390  0.00  0.00    -0.266 OA
ATOM      3  O   UNL     1      -4.821 -14.401  12.583  0.00  0.00    -0.270 OA
ATOM      5  N   UNL     1      -2.993 -13.084  13.212  0.00  0.00    -0.297 N 
ATOM      6  N   UNL     1      -4.405 -10.515  14.425  0.00  0.00    -0.310 N 
ATOM      8  C   UNL     1      -3.006 -10.769  12.295  0.00  0.00    +0.027 C 
ATOM      9  C   UNL     1      -1.983 -11.209  14.491  0.00  0.00    +0.054 C 
ATOM     10  C   UNL     1      -1.828 -10.414  13.195  0.00  0.00    +0.018 C 
ATOM     11  C   UNL     1      -3.012 -12.279  11.989  0.00  0.00    +0.113 C 
ATOM     12  C   UNL     1      -4.303 -10.313  12.973  0.00  0.00    +0.130 C 
ATOM     13  C   UNL     1      -1.944 -12.719  14.178  0.00  0.00    +0.117 C 
ATOM     14  C   UNL     1      -3.286 -10.865  15.188  0.00  0.00    +0.027 A 
ATOM     15  C   UNL     1      -3.375 -10.933  16.527  0.00  0.00    +0.024 A 
ATOM     16  C   UNL     1      -5.655 -10.243  15.017  0.00  0.00    +0.273 A 
ATOM     17  C   UNL     1      -3.943 -14.092  13.387  0.00  0.00    +0.247 C 
ATOM     18  C   UNL     1      -5.718 -10.356  16.509  0.00  0.00    +0.099 A 
ATOM     19  C   UNL     1      -4.618 -10.674  17.197  0.00  0.00    +0.030 A 
ENDROOT
BRANCH  17  20
ATOM     20  C   UNL     1      -3.921 -14.846  14.643  0.00  0.00    +0.037 A 
ATOM     21  C   UNL     1      -4.703 -14.430  15.718  0.00  0.00    +0.013 A 
ATOM     22  C   UNL     1      -3.116 -15.977  14.757  0.00  0.00    +0.013 A 
ATOM     24  C   UNL     1      -4.682 -15.150  16.913  0.00  0.00    +0.001 A 
ATOM     25  C   UNL     1      -3.095 -16.698  15.950  0.00  0.00    +0.001 A 
ATOM     26  C   UNL     1      -3.877 -16.285  17.028  0.00  0.00    +0.000 A 
ENDBRANCH  17  20
BRANCH  18   7
ATOM      4  O   UNL     1      -7.571 -12.321  17.313  0.00  0.00    -0.270 OA
ATOM      7  N   UNL     1      -6.915 -10.119  17.119  0.00  0.00    -0.277 N 
ATOM     23  C   UNL     1      -7.804 -11.125  17.501  0.00  0.00    +0.248 C 
ATOM     33  H   UNL     1      -7.193  -9.145  17.151  0.00  0.00    +0.155 HD
BRANCH  23  27
ATOM      1  F   UNL     1     -12.458  -9.394  20.052  0.00  0.00    -0.205 F 
ATOM     27  C   UNL     1      -9.029 -10.667  18.174  0.00  0.00    +0.037 A 
ATOM     28  C   UNL     1      -9.890  -9.807  17.509  0.00  0.00    +0.016 A 
ATOM     29  C   UNL     1      -9.303 -11.106  19.460  0.00  0.00    +0.016 A 
ATOM     30  C   UNL     1     -11.053  -9.375  18.147  0.00  0.00    +0.039 A 
ATOM     31  C   UNL     1     -10.466 -10.673  20.098  0.00  0.00    +0.039 A 
ATOM     32  C   UNL     1     -11.341  -9.808  19.441  0.00  0.00    +0.123 A 
ENDBRANCH  23  27
ENDBRANCH  18   7
TORSDOF 3
ENDMDL
MODEL 3
REMARK VINA RESULT:      -7.6     14.770     19.028
REMARK  Name = 7142696
REMARK  3 active torsions:
REMARK  status: ('A' for Active; 'I' for Inactive)
REMARK    1  A    between atoms: N_7  and  C_18
REMARK    2  A    between atoms: C_17  and  C_20
REMARK    3  A    between atoms: C_23  and  C_27
REMARK                            x       y       z     vdW  Elec       q    Type
REMARK                         _______ _______ _______ _____ _____    ______ ____
ROOT
ATOM      2  O   UNL     1       8.260   7.744   3.199  0.00  0.00    -0.266 OA
ATOM      3  O   UNL     1       9.232   4.923  -1.028  0.00  0.00    -0.270 OA
ATOM      5  N   UNL     1      10.482   6.894  -1.186  0.00  0.00    -0.297 N 
ATOM      6  N   UNL     1       9.837   8.318   1.574  0.00  0.00    -0.310 N 
ATOM      8  C   UNL     1       9.188   8.987  -0.812  0.00  0.00    +0.027 C 
ATOM      9  C   UNL     1      11.563   8.887  -0.172  0.00  0.00    +0.054 C 
ATOM     10  C   UNL     1      10.489   9.780  -0.793  0.00  0.00    +0.018 C 
ATOM     11  C   UNL     1       9.353   7.704  -1.646  0.00  0.00    +0.113 C 
ATOM     12  C   UNL     1       8.770   8.686   0.633  0.00  0.00    +0.130 C 
ATOM     13  C   UNL     1      11.751   7.626  -1.040  0.00  0.00    +0.117 C 
ATOM     14  C   UNL     1      11.186   8.483   1.241  0.00  0.00    +0.027 A 
ATOM     15  C   UNL     1      12.142   8.250   2.156  0.00  0.00    +0.024 A 
ATOM     16  C   UNL     1       9.433   7.888   2.854  0.00  0.00    +0.273 A 
ATOM     17  C   UNL     1      10.289   5.539  -0.907  0.00  0.00    +0.247 C 
ATOM     18  C   UNL     1      10.530   7.613   3.835  0.00  0.00    +0.099 A 
ATOM     19  C   UNL     1      11.804   7.804   3.478  0.00  0.00    +0.030 A 
ENDROOT
BRANCH  17  20
ATOM     20  C   UNL     1      11.433   4.772  -0.405  0.00  0.00    +0.037 A 
ATOM     21  C   UNL     1      12.288   4.134  -1.301  0.00  0.00    +0.013 A 
ATOM     22  C   UNL     1      11.660   4.685   0.965  0.00  0.00    +0.013 A 
ATOM     24  C   UNL     1      13.377   3.406  -0.823  0.00  0.00    +0.001 A 
ATOM     25  C   UNL     1      12.749   3.957   1.445  0.00  0.00    +0.001 A 
ATOM     26  C   UNL     1      13.608   3.317   0.550  0.00  0.00    +0.000 A 
ENDBRANCH  17  20
BRANCH  18   7
ATOM      4  O   UNL     1      10.538   4.931   4.700  0.00  0.00    -0.270 OA
ATOM      7  N   UNL     1      10.181   7.177   5.080  0.00  0.00    -0.277 N 
ATOM     23  C   UNL     1      10.201   5.836   5.466  0.00  0.00    +0.248 C 
ATOM     33  H   UNL     1       9.762   7.880   5.678  0.00  0.00    +0.155 HD
BRANCH  23  27
ATOM      1  F   UNL     1       8.761   4.835  10.766  0.00  0.00    -0.205 F 
ATOM     27  C   UNL     1       9.819   5.572   6.861  0.00  0.00    +0.037 A 
ATOM     28  C   UNL     1       9.968   4.293   7.378  0.00  0.00    +0.016 A 
ATOM     29  C   UNL     1       9.320   6.606   7.638  0.00  0.00    +0.016 A 
ATOM     30  C   UNL     1       9.608   4.044   8.702  0.00  0.00    +0.039 A 
ATOM     31  C   UNL     1       8.960   6.356   8.963  0.00  0.00    +0.039 A 
ATOM     32  C   UNL     1       9.105   5.075   9.494  0.00  0.00    +0.123 A 
ENDBRANCH  23  27
ENDBRANCH  18   7
TORSDOF 3
ENDMDL
MODEL 4
REMARK VINA RESULT:      -7.6      4.765      8.288
REMARK  Name = 7142696
REMARK  3 active torsions:
REMARK  status: ('A' for Active; 'I' for Inactive)
REMARK    1  A    between atoms: N_7  and  C_18
REMARK    2  A    between atoms: C_17  and  C_20
REMARK    3  A    between atoms: C_23  and  C_27
REMARK                            x       y       z     vdW  Elec       q    Type
REMARK                         _______ _______ _______ _____ _____    ______ ____
ROOT
ATOM      2  O   UNL     1      11.066  10.368  21.900  0.00  0.00    -0.266 OA
ATOM      3  O   UNL     1      14.161   6.327  20.974  0.00  0.00    -0.270 OA
ATOM      5  N   UNL     1      14.058   7.605  19.018  0.00  0.00    -0.297 N 
ATOM      6  N   UNL     1      12.270  10.065  19.920  0.00  0.00    -0.310 N 
ATOM      8  C   UNL     1      11.757   8.180  18.263  0.00  0.00    +0.027 C 
ATOM      9  C   UNL     1      13.615   9.733  17.815  0.00  0.00    +0.054 C 
ATOM     10  C   UNL     1      12.343   9.127  17.222  0.00  0.00    +0.018 C 
ATOM     11  C   UNL     1      12.763   7.065  18.602  0.00  0.00    +0.113 C 
ATOM     12  C   UNL     1      11.357   8.992  19.501  0.00  0.00    +0.130 C 
ATOM     13  C   UNL     1      14.632   8.611  18.109  0.00  0.00    +0.117 C 
ATOM     14  C   UNL     1      13.311  10.495  19.092  0.00  0.00    +0.027 A 
ATOM     15  C   UNL     1      14.061  11.553  19.442  0.00  0.00    +0.024 A 
ATOM     16  C   UNL     1      11.981  10.700  21.145  0.00  0.00    +0.273 A 
ATOM     17  C   UNL     1      14.635   7.167  20.212  0.00  0.00    +0.247 C 
ATOM     18  C   UNL     1      12.858  11.857  21.512  0.00  0.00    +0.099 A 
ATOM     19  C   UNL     1      13.829  12.244  20.679  0.00  0.00    +0.030 A 
ENDROOT
BRANCH  17  20
ATOM     20  C   UNL     1      15.911   7.764  20.619  0.00  0.00    +0.037 A 
ATOM     21  C   UNL     1      15.929   9.022  21.217  0.00  0.00    +0.013 A 
ATOM     22  C   UNL     1      17.099   7.070  20.405  0.00  0.00    +0.013 A 
ATOM     24  C   UNL     1      17.143   9.588  21.606  0.00  0.00    +0.001 A 
ATOM     25  C   UNL     1      18.313   7.635  20.793  0.00  0.00    +0.001 A 
ATOM     26  C   UNL     1      18.335   8.894  21.393  0.00  0.00    +0.000 A 
ENDBRANCH  17  20
BRANCH  18   7
ATOM      4  O   UNL     1      11.135  14.054  21.895  0.00  0.00    -0.270 OA
ATOM      7  N   UNL     1      12.623  12.487  22.699  0.00  0.00    -0.277 N 
ATOM     23  C   UNL     1      11.759  13.574  22.843  0.00  0.00    +0.248 C 
ATOM     33  H   UNL     1      13.232  12.207  23.460  0.00  0.00    +0.155 HD
BRANCH  23  27
ATOM      1  F   UNL     1      11.224  15.543  28.039  0.00  0.00    -0.205 F 
ATOM     27  C   UNL     1      11.617  14.094  24.211  0.00  0.00    +0.037 A 
ATOM     28  C   UNL     1      10.588  13.626  25.014  0.00  0.00    +0.016 A 
ATOM     29  C   UNL     1      12.516  15.042  24.675  0.00  0.00    +0.016 A 
ATOM     30  C   UNL     1      10.454  14.119  26.312  0.00  0.00    +0.039 A 
ATOM     31  C   UNL     1      12.382  15.534  25.975  0.00  0.00    +0.039 A 
ATOM     32  C   UNL     1      11.351  15.072  26.792  0.00  0.00    +0.123 A 
ENDBRANCH  23  27
ENDBRANCH  18   7
TORSDOF 3
ENDMDL
MODEL 5
REMARK VINA RESULT:      -7.5     31.573     33.264
REMARK  Name = 7142696
REMARK  3 active torsions:
REMARK  status: ('A' for Active; 'I' for Inactive)
REMARK    1  A    between atoms: N_7  and  C_18
REMARK    2  A    between atoms: C_17  and  C_20
REMARK    3  A    between atoms: C_23  and  C_27
REMARK                            x       y       z     vdW  Elec       q    Type
REMARK                         _______ _______ _______ _____ _____    ______ ____
ROOT
ATOM      2  O   UNL     1     -12.223  -7.500   9.335  0.00  0.00    -0.266 OA
ATOM      3  O   UNL     1     -16.602  -5.042  10.579  0.00  0.00    -0.270 OA
ATOM      5  N   UNL     1     -14.905  -4.207  11.955  0.00  0.00    -0.297 N 
ATOM      6  N   UNL     1     -12.349  -5.739  10.865  0.00  0.00    -0.310 N 
ATOM      8  C   UNL     1     -13.552  -5.944  13.118  0.00  0.00    +0.027 C 
ATOM      9  C   UNL     1     -12.509  -3.808  12.476  0.00  0.00    +0.054 C 
ATOM     10  C   UNL     1     -12.577  -4.866  13.577  0.00  0.00    +0.018 C 
ATOM     11  C   UNL     1     -14.948  -5.339  12.882  0.00  0.00    +0.113 C 
ATOM     12  C   UNL     1     -12.992  -6.613  11.856  0.00  0.00    +0.130 C 
ATOM     13  C   UNL     1     -13.903  -3.178  12.280  0.00  0.00    +0.117 C 
ATOM     14  C   UNL     1     -12.031  -4.411  11.169  0.00  0.00    +0.027 A 
ATOM     15  C   UNL     1     -11.340  -3.663  10.292  0.00  0.00    +0.024 A 
ATOM     16  C   UNL     1     -11.981  -6.332   9.641  0.00  0.00    +0.273 A 
ATOM     17  C   UNL     1     -15.764  -4.185  10.854  0.00  0.00    +0.247 C 
ATOM     18  C   UNL     1     -11.236  -5.457   8.681  0.00  0.00    +0.099 A 
ATOM     19  C   UNL     1     -10.938  -4.200   9.022  0.00  0.00    +0.030 A 
ENDROOT
BRANCH  17  20
ATOM     20  C   UNL     1     -15.660  -3.057   9.924  0.00  0.00    +0.037 A 
ATOM     21  C   UNL     1     -16.461  -1.932  10.103  0.00  0.00    +0.013 A 
ATOM     22  C   UNL     1     -14.759  -3.117   8.864  0.00  0.00    +0.013 A 
ATOM     24  C   UNL     1     -16.359  -0.859   9.218  0.00  0.00    +0.001 A 
ATOM     25  C   UNL     1     -14.657  -2.044   7.978  0.00  0.00    +0.001 A 
ATOM     26  C   UNL     1     -15.456  -0.915   8.155  0.00  0.00    +0.000 A 
ENDBRANCH  17  20
BRANCH  18   7
ATOM      4  O   UNL     1      -8.762  -6.669   8.088  0.00  0.00    -0.270 OA
ATOM      7  N   UNL     1     -10.878  -5.988   7.476  0.00  0.00    -0.277 N 
ATOM     23  C   UNL     1      -9.639  -6.581   7.227  0.00  0.00    +0.248 C 
ATOM     33  H   UNL     1     -11.522  -5.798   6.716  0.00  0.00    +0.155 HD
BRANCH  23  27
ATOM      1  F   UNL     1      -8.942  -8.632   2.082  0.00  0.00    -0.205 F 
ATOM     27  C   UNL     1      -9.457  -7.123   5.872  0.00  0.00    +0.037 A 
ATOM     28  C   UNL     1     -10.509  -7.071   4.970  0.00  0.00    +0.016 A 
ATOM     29  C   UNL     1      -8.234  -7.674   5.519  0.00  0.00    +0.016 A 
ATOM     30  C   UNL     1     -10.334  -7.585   3.685  0.00  0.00    +0.039 A 
ATOM     31  C   UNL     1      -8.060  -8.186   4.233  0.00  0.00    +0.039 A 
ATOM     32  C   UNL     1      -9.110  -8.141   3.316  0.00  0.00    +0.123 A 
ENDBRANCH  23  27
ENDBRANCH  18   7
TORSDOF 3
ENDMDL
MODEL 6
REMARK VINA RESULT:      -7.3     12.637     14.675
REMARK  Name = 7142696
REMARK  3 active torsions:
REMARK  status: ('A' for Active; 'I' for Inactive)
REMARK    1  A    between atoms: N_7  and  C_18
REMARK    2  A    between atoms: C_17  and  C_20
REMARK    3  A    between atoms: C_23  and  C_27
REMARK                            x       y       z     vdW  Elec       q    Type
REMARK                         _______ _______ _______ _____ _____    ______ ____
ROOT
ATOM      2  O   UNL     1      12.677   7.585   3.588  0.00  0.00    -0.266 OA
ATOM      3  O   UNL     1       9.261  11.071   5.305  0.00  0.00    -0.270 OA
ATOM      5  N   UNL     1       8.640   8.985   6.163  0.00  0.00    -0.297 N 
ATOM      6  N   UNL     1      10.971   7.108   5.112  0.00  0.00    -0.310 N 
ATOM      8  C   UNL     1       8.490   7.162   4.475  0.00  0.00    +0.027 C 
ATOM      9  C   UNL     1       9.150   6.636   6.788  0.00  0.00    +0.054 C 
ATOM     10  C   UNL     1       8.326   6.145   5.598  0.00  0.00    +0.018 C 
ATOM     11  C   UNL     1       7.991   8.547   4.926  0.00  0.00    +0.113 C 
ATOM     12  C   UNL     1       9.963   7.191   4.046  0.00  0.00    +0.130 C 
ATOM     13  C   UNL     1       8.613   8.003   7.259  0.00  0.00    +0.117 C 
ATOM     14  C   UNL     1      10.616   6.762   6.420  0.00  0.00    +0.027 A 
ATOM     15  C   UNL     1      11.566   6.579   7.352  0.00  0.00    +0.024 A 
ATOM     16  C   UNL     1      12.315   7.296   4.729  0.00  0.00    +0.273 A 
ATOM     17  C   UNL     1       9.237  10.247   6.218  0.00  0.00    +0.247 C 
ATOM     18  C   UNL     1      13.340   7.110   5.804  0.00  0.00    +0.099 A 
ATOM     19  C   UNL     1      12.955   6.760   7.035  0.00  0.00    +0.030 A 
ENDROOT
BRANCH  17  20
ATOM     20  C   UNL     1       9.915  10.632   7.458  0.00  0.00    +0.037 A 
ATOM     21  C   UNL     1      11.303  10.544   7.547  0.00  0.00    +0.013 A 
ATOM     22  C   UNL     1       9.169  11.086   8.543  0.00  0.00    +0.013 A 
ATOM     24  C   UNL     1      11.948  10.914   8.728  0.00  0.00    +0.001 A 
ATOM     25  C   UNL     1       9.813  11.455   9.724  0.00  0.00    +0.001 A 
ATOM     26  C   UNL     1      11.202  11.369   9.816  0.00  0.00    +0.000 A 
ENDBRANCH  17  20
BRANCH  18   7
ATOM      4  O   UNL     1      14.862   9.407   6.394  0.00  0.00    -0.270 OA
ATOM      7  N   UNL     1      14.651   7.301   5.479  0.00  0.00    -0.277 N 
ATOM     23  C   UNL     1      15.367   8.457   5.792  0.00  0.00    +0.248 C 
ATOM     33  H   UNL     1      15.044   6.602   4.859  0.00  0.00    +0.155 HD
BRANCH  23  27
ATOM      1  F   UNL     1      20.730   8.455   4.240  0.00  0.00    -0.205 F 
ATOM     27  C   UNL     1      16.780   8.459   5.383  0.00  0.00    +0.037 A 
ATOM     28  C   UNL     1      17.756   8.802   6.306  0.00  0.00    +0.016 A 
ATOM     29  C   UNL     1      17.111   8.114   4.081  0.00  0.00    +0.016 A 
ATOM     30  C   UNL     1      19.096   8.801   5.917  0.00  0.00    +0.039 A 
ATOM     31  C   UNL     1      18.452   8.114   3.693  0.00  0.00    +0.039 A 
ATOM     32  C   UNL     1      19.444   8.457   4.612  0.00  0.00    +0.123 A 
ENDBRANCH  23  27
ENDBRANCH  18   7
TORSDOF 3
ENDMDL
MODEL 7
REMARK VINA RESULT:      -7.3     13.663     15.708
REMARK  Name = 7142696
REMARK  3 active torsions:
REMARK  status: ('A' for Active; 'I' for Inactive)
REMARK    1  A    between atoms: N_7  and  C_18
REMARK    2  A    between atoms: C_17  and  C_20
REMARK    3  A    between atoms: C_23  and  C_27
REMARK                            x       y       z     vdW  Elec       q    Type
REMARK                         _______ _______ _______ _____ _____    ______ ____
ROOT
ATOM      2  O   UNL     1      14.116   6.924   6.880  0.00  0.00    -0.266 OA
ATOM      3  O   UNL     1      10.543   3.928   4.640  0.00  0.00    -0.270 OA
ATOM      5  N   UNL     1       9.748   6.128   4.604  0.00  0.00    -0.297 N 
ATOM      6  N   UNL     1      12.179   7.736   5.858  0.00  0.00    -0.310 N 
ATOM      8  C   UNL     1       9.834   7.307   6.795  0.00  0.00    +0.027 C 
ATOM      9  C   UNL     1      10.103   8.584   4.708  0.00  0.00    +0.054 C 
ATOM     10  C   UNL     1       9.470   8.612   6.099  0.00  0.00    +0.018 C 
ATOM     11  C   UNL     1       9.298   6.104   5.997  0.00  0.00    +0.113 C 
ATOM     12  C   UNL     1      11.356   7.248   6.973  0.00  0.00    +0.130 C 
ATOM     13  C   UNL     1       9.526   7.402   3.902  0.00  0.00    +0.117 C 
ATOM     14  C   UNL     1      11.611   8.452   4.798  0.00  0.00    +0.027 A 
ATOM     15  C   UNL     1      12.396   8.989   3.848  0.00  0.00    +0.024 A 
ATOM     16  C   UNL     1      13.570   7.533   5.960  0.00  0.00    +0.273 A 
ATOM     17  C   UNL     1      10.355   4.995   4.058  0.00  0.00    +0.247 C 
ATOM     18  C   UNL     1      14.405   8.123   4.866  0.00  0.00    +0.099 A 
ATOM     19  C   UNL     1      13.820   8.817   3.885  0.00  0.00    +0.030 A 
ENDROOT
BRANCH  17  20
ATOM     20  C   UNL     1      10.834   5.071   2.675  0.00  0.00    +0.037 A 
ATOM     21  C   UNL     1      10.022   4.627   1.633  0.00  0.00    +0.013 A 
ATOM     22  C   UNL     1      12.098   5.589   2.408  0.00  0.00    +0.013 A 
ATOM     24  C   UNL     1      10.478   4.703   0.317  0.00  0.00    +0.001 A 
ATOM     25  C   UNL     1      12.555   5.665   1.093  0.00  0.00    +0.001 A 
ATOM     26  C   UNL     1      11.745   5.222   0.047  0.00  0.00    +0.000 A 
ENDBRANCH  17  20
BRANCH  18   7
ATOM      4  O   UNL     1      16.290   9.976   5.844  0.00  0.00    -0.270 OA
ATOM      7  N   UNL     1      15.755   7.933   4.919  0.00  0.00    -0.277 N 
ATOM     23  C   UNL     1      16.653   8.880   5.412  0.00  0.00    +0.248 C 
ATOM     33  H   UNL     1      16.090   7.106   4.438  0.00  0.00    +0.155 HD
BRANCH  23  27
ATOM      1  F   UNL     1      22.017   7.330   5.417  0.00  0.00    -0.205 F 
ATOM     27  C   UNL     1      18.067   8.474   5.413  0.00  0.00    +0.037 A 
ATOM     28  C   UNL     1      18.798   8.556   6.589  0.00  0.00    +0.016 A 
ATOM     29  C   UNL     1      18.643   8.013   4.239  0.00  0.00    +0.016 A 
ATOM     30  C   UNL     1      20.138   8.169   6.589  0.00  0.00    +0.039 A 
ATOM     31  C   UNL     1      19.984   7.625   4.241  0.00  0.00    +0.039 A 
ATOM     32  C   UNL     1      20.731   7.703   5.416  0.00  0.00    +0.123 A 
ENDBRANCH  23  27
ENDBRANCH  18   7
TORSDOF 3
ENDMDL
MODEL 8
REMARK VINA RESULT:      -7.2     21.664     24.421
REMARK  Name = 7142696
REMARK  3 active torsions:
REMARK  status: ('A' for Active; 'I' for Inactive)
REMARK    1  A    between atoms: N_7  and  C_18
REMARK    2  A    between atoms: C_17  and  C_20
REMARK    3  A    between atoms: C_23  and  C_27
REMARK                            x       y       z     vdW  Elec       q    Type
REMARK                         _______ _______ _______ _____ _____    ______ ____
ROOT
ATOM      2  O   UNL     1       9.609  -9.386  32.062  0.00  0.00    -0.266 OA
ATOM      3  O   UNL     1       8.467  -9.061  37.098  0.00  0.00    -0.270 OA
ATOM      5  N   UNL     1       8.060  -6.965  36.140  0.00  0.00    -0.297 N 
ATOM      6  N   UNL     1       8.664  -7.504  33.073  0.00  0.00    -0.310 N 
ATOM      8  C   UNL     1       9.930  -6.060  34.769  0.00  0.00    +0.027 C 
ATOM      9  C   UNL     1       7.604  -5.505  34.183  0.00  0.00    +0.054 C 
ATOM     10  C   UNL     1       9.020  -4.939  34.281  0.00  0.00    +0.018 C 
ATOM     11  C   UNL     1       9.468  -6.566  36.148  0.00  0.00    +0.113 C 
ATOM     12  C   UNL     1       9.943  -7.178  33.719  0.00  0.00    +0.130 C 
ATOM     13  C   UNL     1       7.135  -5.968  35.578  0.00  0.00    +0.117 C 
ATOM     14  C   UNL     1       7.549  -6.671  33.214  0.00  0.00    +0.027 A 
ATOM     15  C   UNL     1       6.425  -6.923  32.522  0.00  0.00    +0.024 A 
ATOM     16  C   UNL     1       8.649  -8.633  32.230  0.00  0.00    +0.273 A 
ATOM     17  C   UNL     1       7.699  -8.224  36.627  0.00  0.00    +0.247 C 
ATOM     18  C   UNL     1       7.369  -8.895  31.500  0.00  0.00    +0.099 A 
ATOM     19  C   UNL     1       6.336  -8.060  31.650  0.00  0.00    +0.030 A 
ENDROOT
BRANCH  17  20
ATOM     20  C   UNL     1       6.286  -8.606  36.561  0.00  0.00    +0.037 A 
ATOM     21  C   UNL     1       5.456  -8.391  37.659  0.00  0.00    +0.013 A 
ATOM     22  C   UNL     1       5.779  -9.184  35.400  0.00  0.00    +0.013 A 
ATOM     24  C   UNL     1       4.110  -8.753  37.594  0.00  0.00    +0.001 A 
ATOM     25  C   UNL     1       4.434  -9.547  35.334  0.00  0.00    +0.001 A 
ATOM     26  C   UNL     1       3.600  -9.331  36.431  0.00  0.00    +0.000 A 
ENDBRANCH  17  20
BRANCH  18   7
ATOM      4  O   UNL     1       6.418 -11.441  32.244  0.00  0.00    -0.270 OA
ATOM      7  N   UNL     1       7.307  -9.990  30.689  0.00  0.00    -0.277 N 
ATOM     23  C   UNL     1       6.827 -11.235  31.100  0.00  0.00    +0.248 C 
ATOM     33  H   UNL     1       7.771  -9.887  29.794  0.00  0.00    +0.155 HD
BRANCH  23  27
ATOM      1  F   UNL     1       6.774 -15.216  27.187  0.00  0.00    -0.205 F 
ATOM     27  C   UNL     1       6.812 -12.282  30.068  0.00  0.00    +0.037 A 
ATOM     28  C   UNL     1       7.820 -12.314  29.116  0.00  0.00    +0.016 A 
ATOM     29  C   UNL     1       5.792 -13.221  30.067  0.00  0.00    +0.016 A 
ATOM     30  C   UNL     1       7.806 -13.309  28.138  0.00  0.00    +0.039 A 
ATOM     31  C   UNL     1       5.779 -14.217  29.089  0.00  0.00    +0.039 A 
ATOM     32  C   UNL     1       6.787 -14.260  28.125  0.00  0.00    +0.123 A 
ENDBRANCH  23  27
ENDBRANCH  18   7
TORSDOF 3
ENDMDL
MODEL 9
REMARK VINA RESULT:      -7.2     26.551     28.616
REMARK  Name = 7142696
REMARK  3 active torsions:
REMARK  status: ('A' for Active; 'I' for Inactive)
REMARK    1  A    between atoms: N_7  and  C_18
REMARK    2  A    between atoms: C_17  and  C_20
REMARK    3  A    between atoms: C_23  and  C_27
REMARK                            x       y       z     vdW  Elec       q    Type
REMARK                         _______ _______ _______ _____ _____    ______ ____
ROOT
ATOM      2  O   UNL     1     -12.754  11.283  20.385  0.00  0.00    -0.266 OA
ATOM      3  O   UNL     1     -13.964  12.380  15.475  0.00  0.00    -0.270 OA
ATOM      5  N   UNL     1     -11.662  12.705  15.729  0.00  0.00    -0.297 N 
ATOM      6  N   UNL     1     -11.186  11.802  18.732  0.00  0.00    -0.310 N 
ATOM      8  C   UNL     1     -11.012  14.125  17.667  0.00  0.00    +0.027 C 
ATOM      9  C   UNL     1      -9.515  12.320  16.918  0.00  0.00    +0.054 C 
ATOM     10  C   UNL     1      -9.551  13.756  17.439  0.00  0.00    +0.018 C 
ATOM     11  C   UNL     1     -11.805  14.022  16.351  0.00  0.00    +0.113 C 
ATOM     12  C   UNL     1     -11.587  13.215  18.760  0.00  0.00    +0.130 C 
ATOM     13  C   UNL     1     -10.274  12.239  15.577  0.00  0.00    +0.117 C 
ATOM     14  C   UNL     1     -10.137  11.362  17.916  0.00  0.00    +0.027 A 
ATOM     15  C   UNL     1      -9.710  10.091  17.991  0.00  0.00    +0.024 A 
ATOM     16  C   UNL     1     -11.838  10.939  19.636  0.00  0.00    +0.273 A 
ATOM     17  C   UNL     1     -12.803  11.995  15.352  0.00  0.00    +0.247 C 
ATOM     18  C   UNL     1     -11.350   9.524  19.668  0.00  0.00    +0.099 A 
ATOM     19  C   UNL     1     -10.332   9.155  18.884  0.00  0.00    +0.030 A 
ENDROOT
BRANCH  17  20
ATOM     20  C   UNL     1     -12.622  10.660  14.773  0.00  0.00    +0.037 A 
ATOM     21  C   UNL     1     -12.497  10.513  13.393  0.00  0.00    +0.013 A 
ATOM     22  C   UNL     1     -12.575   9.546  15.606  0.00  0.00    +0.013 A 
ATOM     24  C   UNL     1     -12.322   9.242  12.844  0.00  0.00    +0.001 A 
ATOM     25  C   UNL     1     -12.400   8.275  15.057  0.00  0.00    +0.001 A 
ATOM     26  C   UNL     1     -12.274   8.124  13.676  0.00  0.00    +0.000 A 
ENDBRANCH  17  20
BRANCH  18   7
ATOM      4  O   UNL     1     -13.457   7.782  18.986  0.00  0.00    -0.270 OA
ATOM      7  N   UNL     1     -11.969   8.653  20.516  0.00  0.00    -0.277 N 
ATOM     23  C   UNL     1     -13.010   7.806  20.134  0.00  0.00    +0.248 C 
ATOM     33  H   UNL     1     -11.721   8.758  21.493  0.00  0.00    +0.155 HD
BRANCH  23  27
ATOM      1  F   UNL     1     -14.964   4.428  24.126  0.00  0.00    -0.205 F 
ATOM     27  C   UNL     1     -13.524   6.918  21.187  0.00  0.00    +0.037 A 
ATOM     28  C   UNL     1     -14.760   7.182  21.759  0.00  0.00    +0.016 A 
ATOM     29  C   UNL     1     -12.765   5.828  21.589  0.00  0.00    +0.016 A 
ATOM     30  C   UNL     1     -15.247   6.338  22.757  0.00  0.00    +0.039 A 
ATOM     31  C   UNL     1     -13.254   4.984  22.586  0.00  0.00    +0.039 A 
ATOM     32  C   UNL     1     -14.495   5.239  23.170  0.00  0.00    +0.123 A 
ENDBRANCH  23  27
ENDBRANCH  18   7
TORSDOF 3
ENDMDL
MODEL 10
REMARK VINA RESULT:      -7.0     13.966     18.073
REMARK  Name = 7142696
REMARK  3 active torsions:
REMARK  status: ('A' for Active; 'I' for Inactive)
REMARK    1  A    between atoms: N_7  and  C_18
REMARK    2  A    between atoms: C_17  and  C_20
REMARK    3  A    between atoms: C_23  and  C_27
REMARK                            x       y       z     vdW  Elec       q    Type
REMARK                         _______ _______ _______ _____ _____    ______ ____
ROOT
ATOM      2  O   UNL     1      12.306   8.291   2.231  0.00  0.00    -0.266 OA
ATOM      3  O   UNL     1      12.951   7.383   7.283  0.00  0.00    -0.270 OA
ATOM      5  N   UNL     1      11.053   8.728   7.041  0.00  0.00    -0.297 N 
ATOM      6  N   UNL     1      10.804   8.969   3.887  0.00  0.00    -0.310 N 
ATOM      8  C   UNL     1      11.379  10.754   5.632  0.00  0.00    +0.027 C 
ATOM      9  C   UNL     1       9.181   9.647   5.692  0.00  0.00    +0.054 C 
ATOM     10  C   UNL     1       9.876  11.008   5.661  0.00  0.00    +0.018 C 
ATOM     11  C   UNL     1      11.816   9.967   6.881  0.00  0.00    +0.113 C 
ATOM     12  C   UNL     1      11.731  10.018   4.333  0.00  0.00    +0.130 C 
ATOM     13  C   UNL     1       9.591   8.886   6.969  0.00  0.00    +0.117 C 
ATOM     14  C   UNL     1       9.540   8.824   4.469  0.00  0.00    +0.027 A 
ATOM     15  C   UNL     1       8.663   7.936   3.970  0.00  0.00    +0.024 A 
ATOM     16  C   UNL     1      11.211   8.189   2.786  0.00  0.00    +0.273 A 
ATOM     17  C   UNL     1      11.731   7.520   7.222  0.00  0.00    +0.247 C 
ATOM     18  C   UNL     1      10.216   7.192   2.278  0.00  0.00    +0.099 A 
ATOM     19  C   UNL     1       9.012   7.104   2.853  0.00  0.00    +0.030 A 
ENDROOT
BRANCH  17  20
ATOM     20  C   UNL     1      10.934   6.295   7.333  0.00  0.00    +0.037 A 
ATOM     21  C   UNL     1      10.559   5.822   8.588  0.00  0.00    +0.013 A 
ATOM     22  C   UNL     1      10.556   5.609   6.182  0.00  0.00    +0.013 A 
ATOM     24  C   UNL     1       9.798   4.657   8.692  0.00  0.00    +0.001 A 
ATOM     25  C   UNL     1       9.796   4.445   6.285  0.00  0.00    +0.001 A 
ATOM     26  C   UNL     1       9.417   3.968   7.540  0.00  0.00    +0.000 A 
ENDBRANCH  17  20
BRANCH  18   7
ATOM      4  O   UNL     1      11.308   4.601   2.463  0.00  0.00    -0.270 OA
ATOM      7  N   UNL     1      10.579   6.405   1.225  0.00  0.00    -0.277 N 
ATOM     23  C   UNL     1      11.117   5.124   1.364  0.00  0.00    +0.248 C 
ATOM     33  H   UNL     1      10.569   6.865   0.323  0.00  0.00    +0.155 HD
BRANCH  23  27
ATOM      1  F   UNL     1      12.242   2.452  -3.407  0.00  0.00    -0.205 F 
ATOM     27  C   UNL     1      11.414   4.422   0.107  0.00  0.00    +0.037 A 
ATOM     28  C   UNL     1      12.512   3.576   0.042  0.00  0.00    +0.016 A 
ATOM     29  C   UNL     1      10.591   4.615  -0.992  0.00  0.00    +0.016 A 
ATOM     30  C   UNL     1      12.793   2.909  -1.151  0.00  0.00    +0.039 A 
ATOM     31  C   UNL     1      10.872   3.947  -2.185  0.00  0.00    +0.039 A 
ATOM     32  C   UNL     1      11.973   3.094  -2.263  0.00  0.00    +0.123 A 
ENDBRANCH  23  27
ENDBRANCH  18   7
TORSDOF 3
ENDMDL
