MODEL 1
REMARK VINA RESULT:      -6.4      0.000      0.000
REMARK  Name = 25314544
REMARK  11 active torsions:
REMARK  status: ('A' for Active; 'I' for Inactive)
REMARK    1  A    between atoms: O_3  and  C_9
REMARK    2  A    between atoms: O_4  and  C_23
REMARK    3  A    between atoms: O_4  and  C_24
REMARK    4  A    between atoms: N_5  and  C_7
REMARK    5  A    between atoms: N_5  and  C_13
REMARK    6  A    between atoms: N_5  and  C_14
REMARK    7  A    between atoms: N_6  and  C_8
REMARK    8  A    between atoms: N_6  and  C_15
REMARK    9  A    between atoms: C_13  and  C_16
REMARK   10  A    between atoms: C_14  and  C_17
REMARK   11  A    between atoms: C_15  and  C_18
REMARK                            x       y       z     vdW  Elec       q    Type
REMARK                         _______ _______ _______ _____ _____    ______ ____
ROOT
ATOM      1  O   UNL     1      14.147   9.662  19.171  0.00  0.00    -0.343 OA
ATOM      2  O   UNL     1      12.569   9.755  17.474  0.00  0.00    -0.347 OA
ATOM      7  C   UNL     1      12.050   8.506  19.478  0.00  0.00    +0.143 C 
ATOM      8  C   UNL     1      14.161   7.329  18.535  0.00  0.00    +0.116 C 
ATOM      9  C   UNL     1      12.650   7.222  18.859  0.00  0.00    +0.156 C 
ATOM     10  C   UNL     1      14.583   8.764  18.144  0.00  0.00    +0.166 C 
ATOM     11  C   UNL     1      12.742   9.755  18.902  0.00  0.00    +0.270 C 
ATOM     12  C   UNL     1      13.835   9.329  16.950  0.00  0.00    +0.196 C 
ENDROOT
BRANCH   9   3
ATOM      3  O   UNL     1      11.941   6.956  17.640  0.00  0.00    -0.388 OA
ATOM     26  H   UNL     1      12.521   7.199  16.899  0.00  0.00    +0.210 HD
ENDBRANCH   9   3
BRANCH   8   6
ATOM      6  N   UNL     1      14.966   6.914  19.690  0.00  0.00    -0.305 NA
ATOM     25  H   UNL     1      14.421   6.281  20.276  0.00  0.00    +0.123 HD
BRANCH   6  15
ATOM     15  C   UNL     1      16.190   6.265  19.252  0.00  0.00    +0.116 C 
BRANCH  15  18
ATOM     18  C   UNL     1      17.372   6.678  20.086  0.00  0.00    -0.033 A 
ATOM     19  C   UNL     1      17.292   7.807  20.900  0.00  0.00    +0.008 A 
ATOM     20  C   UNL     1      18.548   5.929  20.046  0.00  0.00    +0.008 A 
ATOM     21  C   UNL     1      18.387   8.189  21.675  0.00  0.00    +0.046 A 
ATOM     22  C   UNL     1      19.644   6.311  20.821  0.00  0.00    +0.046 A 
ATOM     23  C   UNL     1      19.563   7.440  21.636  0.00  0.00    +0.120 A 
BRANCH  23   4
ATOM      4  O   UNL     1      20.631   7.811  22.393  0.00  0.00    -0.495 OA
ATOM     24  C   UNL     1      20.690   9.175  22.809  0.00  0.00    +0.277 C 
ENDBRANCH  23   4
ENDBRANCH  15  18
ENDBRANCH   6  15
ENDBRANCH   8   6
BRANCH   7   5
ATOM      5  N   UNL     1      12.184   8.489  20.935  0.00  0.00    -0.293 NA
BRANCH   5  13
ATOM     13  C   UNL     1      11.812   7.178  21.467  0.00  0.00    +0.081 C 
ATOM     16  C   UNL     1      10.378   7.164  21.955  0.00  0.00    +0.020 C 
ENDBRANCH   5  13
BRANCH   5  14
ATOM     14  C   UNL     1      11.358   9.537  21.536  0.00  0.00    +0.081 C 
ATOM     17  C   UNL     1      12.160  10.394  22.492  0.00  0.00    +0.020 C 
ENDBRANCH   5  14
ENDBRANCH   7   5
TORSDOF 8
ENDMDL
MODEL 2
REMARK VINA RESULT:      -5.9      2.847      6.796
REMARK  Name = 25314544
REMARK  11 active torsions:
REMARK  status: ('A' for Active; 'I' for Inactive)
REMARK    1  A    between atoms: O_3  and  C_9
REMARK    2  A    between atoms: O_4  and  C_23
REMARK    3  A    between atoms: O_4  and  C_24
REMARK    4  A    between atoms: N_5  and  C_7
REMARK    5  A    between atoms: N_5  and  C_13
REMARK    6  A    between atoms: N_5  and  C_14
REMARK    7  A    between atoms: N_6  and  C_8
REMARK    8  A    between atoms: N_6  and  C_15
REMARK    9  A    between atoms: C_13  and  C_16
REMARK   10  A    between atoms: C_14  and  C_17
REMARK   11  A    between atoms: C_15  and  C_18
REMARK                            x       y       z     vdW  Elec       q    Type
REMARK                         _______ _______ _______ _____ _____    ______ ____
ROOT
ATOM      1  O   UNL     1      15.289   8.532  20.230  0.00  0.00    -0.343 OA
ATOM      2  O   UNL     1      15.248   6.249  19.827  0.00  0.00    -0.347 OA
ATOM      7  C   UNL     1      13.254   7.543  19.389  0.00  0.00    +0.143 C 
ATOM      8  C   UNL     1      13.684   7.895  21.923  0.00  0.00    +0.116 C 
ATOM      9  C   UNL     1      12.756   7.304  20.833  0.00  0.00    +0.156 C 
ATOM     10  C   UNL     1      15.171   7.884  21.502  0.00  0.00    +0.166 C 
ATOM     11  C   UNL     1      14.792   7.523  19.341  0.00  0.00    +0.270 C 
ATOM     12  C   UNL     1      15.713   6.508  21.160  0.00  0.00    +0.196 C 
ENDROOT
BRANCH   9   3
ATOM      3  O   UNL     1      12.665   5.885  21.031  0.00  0.00    -0.388 OA
ATOM     26  H   UNL     1      13.472   5.597  21.488  0.00  0.00    +0.210 HD
ENDBRANCH   9   3
BRANCH   8   6
ATOM      6  N   UNL     1      13.304   9.279  22.228  0.00  0.00    -0.305 NA
ATOM     25  H   UNL     1      13.655   9.898  21.497  0.00  0.00    +0.123 HD
BRANCH   6  15
ATOM     15  C   UNL     1      11.860   9.399  22.339  0.00  0.00    +0.116 C 
BRANCH  15  18
ATOM     18  C   UNL     1      11.433  10.823  22.572  0.00  0.00    -0.033 A 
ATOM     19  C   UNL     1      10.956  11.213  23.823  0.00  0.00    +0.008 A 
ATOM     20  C   UNL     1      11.515  11.753  21.536  0.00  0.00    +0.008 A 
ATOM     21  C   UNL     1      10.562  12.533  24.039  0.00  0.00    +0.046 A 
ATOM     22  C   UNL     1      11.121  13.074  21.752  0.00  0.00    +0.046 A 
ATOM     23  C   UNL     1      10.645  13.463  23.004  0.00  0.00    +0.120 A 
BRANCH  23   4
ATOM      4  O   UNL     1      10.262  14.753  23.216  0.00  0.00    -0.495 OA
ATOM     24  C   UNL     1       8.871  15.046  23.084  0.00  0.00    +0.277 C 
ENDBRANCH  23   4
ENDBRANCH  15  18
ENDBRANCH   6  15
ENDBRANCH   8   6
BRANCH   7   5
ATOM      5  N   UNL     1      12.755   8.819  18.873  0.00  0.00    -0.293 NA
BRANCH   5  13
ATOM     13  C   UNL     1      11.313   8.745  18.636  0.00  0.00    +0.081 C 
ATOM     16  C   UNL     1      11.003   8.528  17.170  0.00  0.00    +0.020 C 
ENDBRANCH   5  13
BRANCH   5  14
ATOM     14  C   UNL     1      13.457   9.182  17.643  0.00  0.00    +0.081 C 
ATOM     17  C   UNL     1      13.862  10.641  17.646  0.00  0.00    +0.020 C 
ENDBRANCH   5  14
ENDBRANCH   7   5
TORSDOF 8
ENDMDL
MODEL 3
REMARK VINA RESULT:      -5.9      2.808      5.513
REMARK  Name = 25314544
REMARK  11 active torsions:
REMARK  status: ('A' for Active; 'I' for Inactive)
REMARK    1  A    between atoms: O_3  and  C_9
REMARK    2  A    between atoms: O_4  and  C_23
REMARK    3  A    between atoms: O_4  and  C_24
REMARK    4  A    between atoms: N_5  and  C_7
REMARK    5  A    between atoms: N_5  and  C_13
REMARK    6  A    between atoms: N_5  and  C_14
REMARK    7  A    between atoms: N_6  and  C_8
REMARK    8  A    between atoms: N_6  and  C_15
REMARK    9  A    between atoms: C_13  and  C_16
REMARK   10  A    between atoms: C_14  and  C_17
REMARK   11  A    between atoms: C_15  and  C_18
REMARK                            x       y       z     vdW  Elec       q    Type
REMARK                         _______ _______ _______ _____ _____    ______ ____
ROOT
ATOM      1  O   UNL     1      12.390   9.072  21.448  0.00  0.00    -0.343 OA
ATOM      2  O   UNL     1      11.706   6.932  22.023  0.00  0.00    -0.347 OA
ATOM      7  C   UNL     1      13.637   7.190  20.592  0.00  0.00    +0.143 C 
ATOM      8  C   UNL     1      11.714   8.306  19.256  0.00  0.00    +0.116 C 
ATOM      9  C   UNL     1      12.738   7.147  19.335  0.00  0.00    +0.156 C 
ATOM     10  C   UNL     1      11.239   8.771  20.651  0.00  0.00    +0.166 C 
ATOM     11  C   UNL     1      12.858   7.760  21.791  0.00  0.00    +0.270 C 
ATOM     12  C   UNL     1      10.602   7.678  21.489  0.00  0.00    +0.196 C 
ENDROOT
BRANCH   9   3
ATOM      3  O   UNL     1      12.020   5.904  19.358  0.00  0.00    -0.388 OA
ATOM     26  H   UNL     1      11.081   6.108  19.503  0.00  0.00    +0.210 HD
ENDBRANCH   9   3
BRANCH   8   6
ATOM      6  N   UNL     1      12.296   9.460  18.562  0.00  0.00    -0.305 NA
ATOM     25  H   UNL     1      13.060   9.844  19.118  0.00  0.00    +0.123 HD
BRANCH   6  15
ATOM     15  C   UNL     1      12.777   9.075  17.246  0.00  0.00    +0.116 C 
BRANCH  15  18
ATOM     18  C   UNL     1      13.820  10.029  16.729  0.00  0.00    -0.033 A 
ATOM     19  C   UNL     1      14.220  11.115  17.508  0.00  0.00    +0.008 A 
ATOM     20  C   UNL     1      14.389   9.826  15.472  0.00  0.00    +0.008 A 
ATOM     21  C   UNL     1      15.188  11.998  17.030  0.00  0.00    +0.046 A 
ATOM     22  C   UNL     1      15.357  10.710  14.994  0.00  0.00    +0.046 A 
ATOM     23  C   UNL     1      15.757  11.795  15.773  0.00  0.00    +0.120 A 
BRANCH  23   4
ATOM      4  O   UNL     1      16.703  12.656  15.307  0.00  0.00    -0.495 OA
ATOM     24  C   UNL     1      17.881  12.815  16.097  0.00  0.00    +0.277 C 
ENDBRANCH  23   4
ENDBRANCH  15  18
ENDBRANCH   6  15
ENDBRANCH   8   6
BRANCH   7   5
ATOM      5  N   UNL     1      14.834   7.996  20.346  0.00  0.00    -0.293 NA
BRANCH   5  13
ATOM     13  C   UNL     1      15.546   7.505  19.166  0.00  0.00    +0.081 C 
ATOM     16  C   UNL     1      16.400   6.298  19.496  0.00  0.00    +0.020 C 
ENDBRANCH   5  13
BRANCH   5  14
ATOM     14  C   UNL     1      15.711   7.979  21.516  0.00  0.00    +0.081 C 
ATOM     17  C   UNL     1      16.346   9.333  21.753  0.00  0.00    +0.020 C 
ENDBRANCH   5  14
ENDBRANCH   7   5
TORSDOF 8
ENDMDL
MODEL 4
REMARK VINA RESULT:      -5.5     26.788     28.476
REMARK  Name = 25314544
REMARK  11 active torsions:
REMARK  status: ('A' for Active; 'I' for Inactive)
REMARK    1  A    between atoms: O_3  and  C_9
REMARK    2  A    between atoms: O_4  and  C_23
REMARK    3  A    between atoms: O_4  and  C_24
REMARK    4  A    between atoms: N_5  and  C_7
REMARK    5  A    between atoms: N_5  and  C_13
REMARK    6  A    between atoms: N_5  and  C_14
REMARK    7  A    between atoms: N_6  and  C_8
REMARK    8  A    between atoms: N_6  and  C_15
REMARK    9  A    between atoms: C_13  and  C_16
REMARK   10  A    between atoms: C_14  and  C_17
REMARK   11  A    between atoms: C_15  and  C_18
REMARK                            x       y       z     vdW  Elec       q    Type
REMARK                         _______ _______ _______ _____ _____    ______ ____
ROOT
ATOM      1  O   UNL     1      -1.980 -10.624  13.596  0.00  0.00    -0.343 OA
ATOM      2  O   UNL     1      -1.784 -12.733  12.651  0.00  0.00    -0.347 OA
ATOM      7  C   UNL     1      -3.649 -11.338  12.004  0.00  0.00    +0.143 C 
ATOM      8  C   UNL     1      -3.950 -11.639  14.563  0.00  0.00    +0.116 C 
ATOM      9  C   UNL     1      -4.510 -11.923  13.147  0.00  0.00    +0.156 C 
ATOM     10  C   UNL     1      -2.406 -11.568  14.585  0.00  0.00    +0.166 C 
ATOM     11  C   UNL     1      -2.158 -11.370  12.384  0.00  0.00    +0.270 C 
ATOM     12  C   UNL     1      -1.717 -12.823  14.081  0.00  0.00    +0.196 C 
ENDROOT
BRANCH   9   3
ATOM      3  O   UNL     1      -4.574 -13.345  12.958  0.00  0.00    -0.388 OA
ATOM     26  H   UNL     1      -5.158 -13.709  13.644  0.00  0.00    +0.210 HD
ENDBRANCH   9   3
BRANCH   8   6
ATOM      6  N   UNL     1      -4.474 -10.371  15.080  0.00  0.00    -0.305 NA
ATOM     25  H   UNL     1      -5.492 -10.365  15.004  0.00  0.00    +0.123 HD
BRANCH   6  15
ATOM     15  C   UNL     1      -4.073 -10.179  16.464  0.00  0.00    +0.116 C 
BRANCH  15  18
ATOM     18  C   UNL     1      -5.221 -10.393  17.414  0.00  0.00    -0.033 A 
ATOM     19  C   UNL     1      -6.500  -9.954  17.074  0.00  0.00    +0.008 A 
ATOM     20  C   UNL     1      -5.004 -11.033  18.634  0.00  0.00    +0.008 A 
ATOM     21  C   UNL     1      -7.563 -10.154  17.954  0.00  0.00    +0.046 A 
ATOM     22  C   UNL     1      -6.068 -11.234  19.515  0.00  0.00    +0.046 A 
ATOM     23  C   UNL     1      -7.347 -10.795  19.174  0.00  0.00    +0.120 A 
BRANCH  23   4
ATOM      4  O   UNL     1      -8.385 -10.992  20.032  0.00  0.00    -0.495 OA
ATOM     24  C   UNL     1      -9.702 -10.916  19.486  0.00  0.00    +0.277 C 
ENDBRANCH  23   4
ENDBRANCH  15  18
ENDBRANCH   6  15
ENDBRANCH   8   6
BRANCH   7   5
ATOM      5  N   UNL     1      -4.057  -9.966  11.699  0.00  0.00    -0.293 NA
BRANCH   5  13
ATOM     13  C   UNL     1      -5.465  -9.927  11.305  0.00  0.00    +0.081 C 
ATOM     16  C   UNL     1      -6.251  -8.945  12.149  0.00  0.00    +0.020 C 
ENDBRANCH   5  13
BRANCH   5  14
ATOM     14  C   UNL     1      -3.215  -9.406  10.642  0.00  0.00    +0.081 C 
ATOM     17  C   UNL     1      -3.991  -9.221   9.355  0.00  0.00    +0.020 C 
ENDBRANCH   5  14
ENDBRANCH   7   5
TORSDOF 8
ENDMDL
MODEL 5
REMARK VINA RESULT:      -5.5     25.566     27.782
REMARK  Name = 25314544
REMARK  11 active torsions:
REMARK  status: ('A' for Active; 'I' for Inactive)
REMARK    1  A    between atoms: O_3  and  C_9
REMARK    2  A    between atoms: O_4  and  C_23
REMARK    3  A    between atoms: O_4  and  C_24
REMARK    4  A    between atoms: N_5  and  C_7
REMARK    5  A    between atoms: N_5  and  C_13
REMARK    6  A    between atoms: N_5  and  C_14
REMARK    7  A    between atoms: N_6  and  C_8
REMARK    8  A    between atoms: N_6  and  C_15
REMARK    9  A    between atoms: C_13  and  C_16
REMARK   10  A    between atoms: C_14  and  C_17
REMARK   11  A    between atoms: C_15  and  C_18
REMARK                            x       y       z     vdW  Elec       q    Type
REMARK                         _______ _______ _______ _____ _____    ______ ____
ROOT
ATOM      1  O   UNL     1     -11.929  12.092  17.151  0.00  0.00    -0.343 OA
ATOM      2  O   UNL     1      -9.899  11.672  16.111  0.00  0.00    -0.347 OA
ATOM      7  C   UNL     1     -11.426   9.832  16.466  0.00  0.00    +0.143 C 
ATOM      8  C   UNL     1     -10.927  10.703  18.858  0.00  0.00    +0.116 C 
ATOM      9  C   UNL     1     -10.788   9.541  17.844  0.00  0.00    +0.156 C 
ATOM     10  C   UNL     1     -10.926  12.089  18.174  0.00  0.00    +0.166 C 
ATOM     11  C   UNL     1     -11.295  11.326  16.118  0.00  0.00    +0.270 C 
ATOM     12  C   UNL     1      -9.687  12.373  17.344  0.00  0.00    +0.196 C 
ENDROOT
BRANCH   9   3
ATOM      3  O   UNL     1      -9.391   9.287  17.630  0.00  0.00    -0.388 OA
ATOM     26  H   UNL     1      -9.057   8.800  18.401  0.00  0.00    +0.210 HD
ENDBRANCH   9   3
BRANCH   8   6
ATOM      6  N   UNL     1     -12.171  10.571  19.625  0.00  0.00    -0.305 NA
ATOM     25  H   UNL     1     -12.806   9.938  19.139  0.00  0.00    +0.123 HD
BRANCH   6  15
ATOM     15  C   UNL     1     -11.895  10.076  20.963  0.00  0.00    +0.116 C 
BRANCH  15  18
ATOM     18  C   UNL     1     -12.464   8.699  21.178  0.00  0.00    -0.033 A 
ATOM     19  C   UNL     1     -11.723   7.574  20.818  0.00  0.00    +0.008 A 
ATOM     20  C   UNL     1     -13.731   8.549  21.740  0.00  0.00    +0.008 A 
ATOM     21  C   UNL     1     -12.249   6.298  21.020  0.00  0.00    +0.046 A 
ATOM     22  C   UNL     1     -14.258   7.272  21.942  0.00  0.00    +0.046 A 
ATOM     23  C   UNL     1     -13.516   6.148  21.582  0.00  0.00    +0.120 A 
BRANCH  23   4
ATOM      4  O   UNL     1     -14.029   4.902  21.781  0.00  0.00    -0.495 OA
ATOM     24  C   UNL     1     -15.115   4.787  22.700  0.00  0.00    +0.277 C 
ENDBRANCH  23   4
ENDBRANCH  15  18
ENDBRANCH   6  15
ENDBRANCH   8   6
BRANCH   7   5
ATOM      5  N   UNL     1     -12.836   9.439  16.456  0.00  0.00    -0.293 NA
BRANCH   5  13
ATOM     13  C   UNL     1     -13.023   8.188  17.190  0.00  0.00    +0.081 C 
ATOM     16  C   UNL     1     -14.322   8.191  17.969  0.00  0.00    +0.020 C 
ENDBRANCH   5  13
BRANCH   5  14
ATOM     14  C   UNL     1     -13.318   9.302  15.081  0.00  0.00    +0.081 C 
ATOM     17  C   UNL     1     -12.609   8.177  14.356  0.00  0.00    +0.020 C 
ENDBRANCH   5  14
ENDBRANCH   7   5
TORSDOF 8
ENDMDL
MODEL 6
REMARK VINA RESULT:      -5.3     27.170     30.909
REMARK  Name = 25314544
REMARK  11 active torsions:
REMARK  status: ('A' for Active; 'I' for Inactive)
REMARK    1  A    between atoms: O_3  and  C_9
REMARK    2  A    between atoms: O_4  and  C_23
REMARK    3  A    between atoms: O_4  and  C_24
REMARK    4  A    between atoms: N_5  and  C_7
REMARK    5  A    between atoms: N_5  and  C_13
REMARK    6  A    between atoms: N_5  and  C_14
REMARK    7  A    between atoms: N_6  and  C_8
REMARK    8  A    between atoms: N_6  and  C_15
REMARK    9  A    between atoms: C_13  and  C_16
REMARK   10  A    between atoms: C_14  and  C_17
REMARK   11  A    between atoms: C_15  and  C_18
REMARK                            x       y       z     vdW  Elec       q    Type
REMARK                         _______ _______ _______ _____ _____    ______ ____
ROOT
ATOM      1  O   UNL     1     -16.349   2.619  23.664  0.00  0.00    -0.343 OA
ATOM      2  O   UNL     1     -17.462   3.601  25.446  0.00  0.00    -0.347 OA
ATOM      7  C   UNL     1     -17.721   4.561  23.242  0.00  0.00    +0.143 C 
ATOM      8  C   UNL     1     -15.174   4.732  23.704  0.00  0.00    +0.116 C 
ATOM      9  C   UNL     1     -16.507   5.488  23.480  0.00  0.00    +0.156 C 
ATOM     10  C   UNL     1     -15.378   3.369  24.403  0.00  0.00    +0.166 C 
ATOM     11  C   UNL     1     -17.571   3.261  24.053  0.00  0.00    +0.270 C 
ATOM     12  C   UNL     1     -16.068   3.457  25.752  0.00  0.00    +0.196 C 
ENDROOT
BRANCH   9   3
ATOM      3  O   UNL     1     -16.786   6.277  24.646  0.00  0.00    -0.388 OA
ATOM     26  H   UNL     1     -15.942   6.455  25.093  0.00  0.00    +0.210 HD
ENDBRANCH   9   3
BRANCH   8   6
ATOM      6  N   UNL     1     -14.495   4.495  22.426  0.00  0.00    -0.305 NA
ATOM     25  H   UNL     1     -15.048   4.894  21.666  0.00  0.00    +0.123 HD
BRANCH   6  15
ATOM     15  C   UNL     1     -13.165   5.079  22.439  0.00  0.00    +0.116 C 
BRANCH  15  18
ATOM     18  C   UNL     1     -13.023   6.173  21.414  0.00  0.00    -0.033 A 
ATOM     19  C   UNL     1     -14.157   6.812  20.915  0.00  0.00    +0.008 A 
ATOM     20  C   UNL     1     -11.757   6.546  20.965  0.00  0.00    +0.008 A 
ATOM     21  C   UNL     1     -14.026   7.827  19.967  0.00  0.00    +0.046 A 
ATOM     22  C   UNL     1     -11.625   7.561  20.016  0.00  0.00    +0.046 A 
ATOM     23  C   UNL     1     -12.760   8.202  19.518  0.00  0.00    +0.120 A 
BRANCH  23   4
ATOM      4  O   UNL     1     -12.631   9.193  18.594  0.00  0.00    -0.495 OA
ATOM     24  C   UNL     1     -11.304   9.572  18.230  0.00  0.00    +0.277 C 
ENDBRANCH  23   4
ENDBRANCH  15  18
ENDBRANCH   6  15
ENDBRANCH   8   6
BRANCH   7   5
ATOM      5  N   UNL     1     -17.863   4.248  21.819  0.00  0.00    -0.293 NA
BRANCH   5  13
ATOM     13  C   UNL     1     -17.714   5.459  21.013  0.00  0.00    +0.081 C 
ATOM     16  C   UNL     1     -17.086   5.156  19.668  0.00  0.00    +0.020 C 
ENDBRANCH   5  13
BRANCH   5  14
ATOM     14  C   UNL     1     -19.157   3.618  21.561  0.00  0.00    +0.081 C 
ATOM     17  C   UNL     1     -18.995   2.278  20.876  0.00  0.00    +0.020 C 
ENDBRANCH   5  14
ENDBRANCH   7   5
TORSDOF 8
ENDMDL
MODEL 7
REMARK VINA RESULT:      -5.3     26.816     28.797
REMARK  Name = 25314544
REMARK  11 active torsions:
REMARK  status: ('A' for Active; 'I' for Inactive)
REMARK    1  A    between atoms: O_3  and  C_9
REMARK    2  A    between atoms: O_4  and  C_23
REMARK    3  A    between atoms: O_4  and  C_24
REMARK    4  A    between atoms: N_5  and  C_7
REMARK    5  A    between atoms: N_5  and  C_13
REMARK    6  A    between atoms: N_5  and  C_14
REMARK    7  A    between atoms: N_6  and  C_8
REMARK    8  A    between atoms: N_6  and  C_15
REMARK    9  A    between atoms: C_13  and  C_16
REMARK   10  A    between atoms: C_14  and  C_17
REMARK   11  A    between atoms: C_15  and  C_18
REMARK                            x       y       z     vdW  Elec       q    Type
REMARK                         _______ _______ _______ _____ _____    ______ ____
ROOT
ATOM      1  O   UNL     1      -4.037 -10.594  12.774  0.00  0.00    -0.343 OA
ATOM      2  O   UNL     1      -2.621 -12.060  11.668  0.00  0.00    -0.347 OA
ATOM      7  C   UNL     1      -3.980 -12.901  13.482  0.00  0.00    +0.143 C 
ATOM      8  C   UNL     1      -2.517 -11.069  14.593  0.00  0.00    +0.116 C 
ATOM      9  C   UNL     1      -2.861 -12.576  14.499  0.00  0.00    +0.156 C 
ATOM     10  C   UNL     1      -2.711 -10.333  13.248  0.00  0.00    +0.166 C 
ATOM     11  C   UNL     1      -3.914 -11.936  12.284  0.00  0.00    +0.270 C 
ATOM     12  C   UNL     1      -1.893 -10.902  12.102  0.00  0.00    +0.196 C 
ENDROOT
BRANCH   9   3
ATOM      3  O   UNL     1      -1.684 -13.289  14.091  0.00  0.00    -0.388 OA
ATOM     26  H   UNL     1      -1.411 -12.939  13.226  0.00  0.00    +0.210 HD
ENDBRANCH   9   3
BRANCH   8   6
ATOM      6  N   UNL     1      -3.355 -10.411  15.600  0.00  0.00    -0.305 NA
ATOM     25  H   UNL     1      -4.335 -10.467  15.319  0.00  0.00    +0.123 HD
BRANCH   6  15
ATOM     15  C   UNL     1      -3.170 -11.031  16.902  0.00  0.00    +0.116 C 
BRANCH  15  18
ATOM     18  C   UNL     1      -4.429 -10.990  17.726  0.00  0.00    -0.033 A 
ATOM     19  C   UNL     1      -4.505 -11.706  18.920  0.00  0.00    +0.008 A 
ATOM     20  C   UNL     1      -5.520 -10.236  17.294  0.00  0.00    +0.008 A 
ATOM     21  C   UNL     1      -5.671 -11.667  19.684  0.00  0.00    +0.046 A 
ATOM     22  C   UNL     1      -6.687 -10.197  18.059  0.00  0.00    +0.046 A 
ATOM     23  C   UNL     1      -6.761 -10.912  19.254  0.00  0.00    +0.120 A 
BRANCH  23   4
ATOM      4  O   UNL     1      -7.899 -10.872  20.000  0.00  0.00    -0.495 OA
ATOM     24  C   UNL     1      -9.136 -11.044  19.308  0.00  0.00    +0.277 C 
ENDBRANCH  23   4
ENDBRANCH  15  18
ENDBRANCH   6  15
ENDBRANCH   8   6
BRANCH   7   5
ATOM      5  N   UNL     1      -5.296 -12.820  14.117  0.00  0.00    -0.293 NA
BRANCH   5  13
ATOM     13  C   UNL     1      -5.325 -13.626  15.337  0.00  0.00    +0.081 C 
ATOM     16  C   UNL     1      -6.637 -13.465  16.077  0.00  0.00    +0.020 C 
ENDBRANCH   5  13
BRANCH   5  14
ATOM     14  C   UNL     1      -6.338 -13.258  13.189  0.00  0.00    +0.081 C 
ATOM     17  C   UNL     1      -6.102 -14.679  12.722  0.00  0.00    +0.020 C 
ENDBRANCH   5  14
ENDBRANCH   7   5
TORSDOF 8
ENDMDL
MODEL 8
REMARK VINA RESULT:      -5.2     26.492     28.899
REMARK  Name = 25314544
REMARK  11 active torsions:
REMARK  status: ('A' for Active; 'I' for Inactive)
REMARK    1  A    between atoms: O_3  and  C_9
REMARK    2  A    between atoms: O_4  and  C_23
REMARK    3  A    between atoms: O_4  and  C_24
REMARK    4  A    between atoms: N_5  and  C_7
REMARK    5  A    between atoms: N_5  and  C_13
REMARK    6  A    between atoms: N_5  and  C_14
REMARK    7  A    between atoms: N_6  and  C_8
REMARK    8  A    between atoms: N_6  and  C_15
REMARK    9  A    between atoms: C_13  and  C_16
REMARK   10  A    between atoms: C_14  and  C_17
REMARK   11  A    between atoms: C_15  and  C_18
REMARK                            x       y       z     vdW  Elec       q    Type
REMARK                         _______ _______ _______ _____ _____    ______ ____
ROOT
ATOM      1  O   UNL     1      -8.429 -12.770  17.802  0.00  0.00    -0.343 OA
ATOM      2  O   UNL     1      -9.243 -11.797  19.744  0.00  0.00    -0.347 OA
ATOM      7  C   UNL     1      -8.176 -10.387  18.094  0.00  0.00    +0.143 C 
ATOM      8  C   UNL     1      -6.324 -12.075  18.768  0.00  0.00    +0.116 C 
ATOM      9  C   UNL     1      -6.801 -10.601  18.769  0.00  0.00    +0.156 C 
ATOM     10  C   UNL     1      -7.499 -13.077  18.847  0.00  0.00    +0.166 C 
ATOM     11  C   UNL     1      -9.085 -11.608  18.327  0.00  0.00    +0.270 C 
ATOM     12  C   UNL     1      -8.386 -12.902  20.065  0.00  0.00    +0.196 C 
ENDROOT
BRANCH   9   3
ATOM      3  O   UNL     1      -6.913 -10.159  20.130  0.00  0.00    -0.388 OA
ATOM     26  H   UNL     1      -7.446 -10.814  20.612  0.00  0.00    +0.210 HD
ENDBRANCH   9   3
BRANCH   8   6
ATOM      6  N   UNL     1      -5.555 -12.366  17.553  0.00  0.00    -0.305 NA
ATOM     25  H   UNL     1      -6.055 -12.010  16.739  0.00  0.00    +0.123 HD
BRANCH   6  15
ATOM     15  C   UNL     1      -4.233 -11.768  17.632  0.00  0.00    +0.116 C 
BRANCH  15  18
ATOM     18  C   UNL     1      -3.575 -11.683  16.281  0.00  0.00    -0.033 A 
ATOM     19  C   UNL     1      -2.639 -10.682  16.021  0.00  0.00    +0.008 A 
ATOM     20  C   UNL     1      -3.901 -12.607  15.288  0.00  0.00    +0.008 A 
ATOM     21  C   UNL     1      -2.028 -10.605  14.770  0.00  0.00    +0.046 A 
ATOM     22  C   UNL     1      -3.290 -12.530  14.036  0.00  0.00    +0.046 A 
ATOM     23  C   UNL     1      -2.353 -11.530  13.778  0.00  0.00    +0.120 A 
BRANCH  23   4
ATOM      4  O   UNL     1      -1.756 -11.456  12.556  0.00  0.00    -0.495 OA
ATOM     24  C   UNL     1      -1.923 -10.242  11.825  0.00  0.00    +0.277 C 
ENDBRANCH  23   4
ENDBRANCH  15  18
ENDBRANCH   6  15
ENDBRANCH   8   6
BRANCH   7   5
ATOM      5  N   UNL     1      -8.016 -10.150  16.658  0.00  0.00    -0.293 NA
BRANCH   5  13
ATOM     13  C   UNL     1      -6.781  -9.411  16.397  0.00  0.00    +0.081 C 
ATOM     16  C   UNL     1      -6.216  -9.740  15.031  0.00  0.00    +0.020 C 
ENDBRANCH   5  13
BRANCH   5  14
ATOM     14  C   UNL     1      -9.169  -9.422  16.130  0.00  0.00    +0.081 C 
ATOM     17  C   UNL     1      -9.463  -8.182  16.948  0.00  0.00    +0.020 C 
ENDBRANCH   5  14
ENDBRANCH   7   5
TORSDOF 8
ENDMDL
MODEL 9
REMARK VINA RESULT:      -5.2     27.392     30.600
REMARK  Name = 25314544
REMARK  11 active torsions:
REMARK  status: ('A' for Active; 'I' for Inactive)
REMARK    1  A    between atoms: O_3  and  C_9
REMARK    2  A    between atoms: O_4  and  C_23
REMARK    3  A    between atoms: O_4  and  C_24
REMARK    4  A    between atoms: N_5  and  C_7
REMARK    5  A    between atoms: N_5  and  C_13
REMARK    6  A    between atoms: N_5  and  C_14
REMARK    7  A    between atoms: N_6  and  C_8
REMARK    8  A    between atoms: N_6  and  C_15
REMARK    9  A    between atoms: C_13  and  C_16
REMARK   10  A    between atoms: C_14  and  C_17
REMARK   11  A    between atoms: C_15  and  C_18
REMARK                            x       y       z     vdW  Elec       q    Type
REMARK                         _______ _______ _______ _____ _____    ______ ____
ROOT
ATOM      1  O   UNL     1     -11.838 -11.757  17.855  0.00  0.00    -0.343 OA
ATOM      2  O   UNL     1     -12.773 -10.381  19.471  0.00  0.00    -0.347 OA
ATOM      7  C   UNL     1     -10.655  -9.751  18.491  0.00  0.00    +0.143 C 
ATOM      8  C   UNL     1     -10.177 -12.053  19.588  0.00  0.00    +0.116 C 
ATOM      9  C   UNL     1      -9.892 -10.530  19.587  0.00  0.00    +0.156 C 
ATOM     10  C   UNL     1     -11.613 -12.386  19.123  0.00  0.00    +0.166 C 
ATOM     11  C   UNL     1     -12.033 -10.389  18.238  0.00  0.00    +0.270 C 
ATOM     12  C   UNL     1     -12.704 -11.732  19.950  0.00  0.00    +0.196 C 
ENDROOT
BRANCH   9   3
ATOM      3  O   UNL     1     -10.287  -9.991  20.857  0.00  0.00    -0.388 OA
ATOM     26  H   UNL     1     -10.811  -9.190  20.689  0.00  0.00    +0.210 HD
ENDBRANCH   9   3
BRANCH   8   6
ATOM      6  N   UNL     1      -9.236 -12.754  18.708  0.00  0.00    -0.305 NA
ATOM     25  H   UNL     1      -9.008 -12.161  17.910  0.00  0.00    +0.123 HD
BRANCH   6  15
ATOM     15  C   UNL     1      -8.027 -13.107  19.433  0.00  0.00    +0.116 C 
BRANCH  15  18
ATOM     18  C   UNL     1      -6.795 -12.553  18.770  0.00  0.00    -0.033 A 
ATOM     19  C   UNL     1      -6.097 -11.500  19.362  0.00  0.00    +0.008 A 
ATOM     20  C   UNL     1      -6.350 -13.093  17.563  0.00  0.00    +0.008 A 
ATOM     21  C   UNL     1      -4.954 -10.989  18.748  0.00  0.00    +0.046 A 
ATOM     22  C   UNL     1      -5.207 -12.581  16.949  0.00  0.00    +0.046 A 
ATOM     23  C   UNL     1      -4.508 -11.529  17.542  0.00  0.00    +0.120 A 
BRANCH  23   4
ATOM      4  O   UNL     1      -3.392 -11.031  16.944  0.00  0.00    -0.495 OA
ATOM     24  C   UNL     1      -3.392 -10.969  15.518  0.00  0.00    +0.277 C 
ENDBRANCH  23   4
ENDBRANCH  15  18
ENDBRANCH   6  15
ENDBRANCH   8   6
BRANCH   7   5
ATOM      5  N   UNL     1      -9.884  -9.719  17.247  0.00  0.00    -0.293 NA
BRANCH   5  13
ATOM     13  C   UNL     1      -8.496  -9.341  17.516  0.00  0.00    +0.081 C 
ATOM     16  C   UNL     1      -7.589  -9.702  16.358  0.00  0.00    +0.020 C 
ENDBRANCH   5  13
BRANCH   5  14
ATOM     14  C   UNL     1     -10.491  -8.789  16.294  0.00  0.00    +0.081 C 
ATOM     17  C   UNL     1     -10.447  -7.365  16.806  0.00  0.00    +0.020 C 
ENDBRANCH   5  14
ENDBRANCH   7   5
TORSDOF 8
ENDMDL
MODEL 10
REMARK VINA RESULT:      -5.2      2.161      3.175
REMARK  Name = 25314544
REMARK  11 active torsions:
REMARK  status: ('A' for Active; 'I' for Inactive)
REMARK    1  A    between atoms: O_3  and  C_9
REMARK    2  A    between atoms: O_4  and  C_23
REMARK    3  A    between atoms: O_4  and  C_24
REMARK    4  A    between atoms: N_5  and  C_7
REMARK    5  A    between atoms: N_5  and  C_13
REMARK    6  A    between atoms: N_5  and  C_14
REMARK    7  A    between atoms: N_6  and  C_8
REMARK    8  A    between atoms: N_6  and  C_15
REMARK    9  A    between atoms: C_13  and  C_16
REMARK   10  A    between atoms: C_14  and  C_17
REMARK   11  A    between atoms: C_15  and  C_18
REMARK                            x       y       z     vdW  Elec       q    Type
REMARK                         _______ _______ _______ _____ _____    ______ ____
ROOT
ATOM      1  O   UNL     1      14.576  10.799  22.600  0.00  0.00    -0.343 OA
ATOM      2  O   UNL     1      14.420  12.614  21.165  0.00  0.00    -0.347 OA
ATOM      7  C   UNL     1      12.494  11.179  21.441  0.00  0.00    +0.143 C 
ATOM      8  C   UNL     1      14.328   9.594  20.519  0.00  0.00    +0.116 C 
ATOM      9  C   UNL     1      12.965  10.285  20.270  0.00  0.00    +0.156 C 
ATOM     10  C   UNL     1      15.271  10.445  21.399  0.00  0.00    +0.166 C 
ATOM     11  C   UNL     1      13.700  11.835  22.136  0.00  0.00    +0.270 C 
ATOM     12  C   UNL     1      15.572  11.824  20.839  0.00  0.00    +0.196 C 
ENDROOT
BRANCH   9   3
ATOM      3  O   UNL     1      13.082  11.120  19.108  0.00  0.00    -0.388 OA
ATOM     26  H   UNL     1      12.765  10.610  18.344  0.00  0.00    +0.210 HD
ENDBRANCH   9   3
BRANCH   8   6
ATOM      6  N   UNL     1      14.136   8.296  21.175  0.00  0.00    -0.305 NA
ATOM     25  H   UNL     1      13.192   8.244  21.558  0.00  0.00    +0.123 HD
BRANCH   6  15
ATOM     15  C   UNL     1      14.356   7.211  20.234  0.00  0.00    +0.116 C 
BRANCH  15  18
ATOM     18  C   UNL     1      15.794   6.765  20.220  0.00  0.00    -0.033 A 
ATOM     19  C   UNL     1      16.325   6.157  19.083  0.00  0.00    +0.008 A 
ATOM     20  C   UNL     1      16.595   6.961  21.345  0.00  0.00    +0.008 A 
ATOM     21  C   UNL     1      17.657   5.746  19.069  0.00  0.00    +0.046 A 
ATOM     22  C   UNL     1      17.928   6.549  21.331  0.00  0.00    +0.046 A 
ATOM     23  C   UNL     1      18.459   5.943  20.193  0.00  0.00    +0.120 A 
BRANCH  23   4
ATOM      4  O   UNL     1      19.760   5.543  20.179  0.00  0.00    -0.495 OA
ATOM     24  C   UNL     1      20.630   6.130  21.147  0.00  0.00    +0.277 C 
ENDBRANCH  23   4
ENDBRANCH  15  18
ENDBRANCH   6  15
ENDBRANCH   8   6
BRANCH   7   5
ATOM      5  N   UNL     1      11.722  10.399  22.410  0.00  0.00    -0.293 NA
BRANCH   5  13
ATOM     13  C   UNL     1      10.858   9.440  21.721  0.00  0.00    +0.081 C 
ATOM     16  C   UNL     1      10.753   8.138  22.487  0.00  0.00    +0.020 C 
ENDBRANCH   5  13
BRANCH   5  14
ATOM     14  C   UNL     1      10.927  11.284  23.261  0.00  0.00    +0.081 C 
ATOM     17  C   UNL     1      11.275  11.104  24.724  0.00  0.00    +0.020 C 
ENDBRANCH   5  14
ENDBRANCH   7   5
TORSDOF 8
ENDMDL
