MODEL 1
REMARK VINA RESULT:      -8.0      0.000      0.000
REMARK  Name = 7051138
REMARK  6 active torsions:
REMARK  status: ('A' for Active; 'I' for Inactive)
REMARK    1  A    between atoms: S_1  and  C_23
REMARK    2  A    between atoms: S_1  and  C_28
REMARK    3  A    between atoms: N_9  and  C_12
REMARK    4  A    between atoms: CA_16  and  CB_19
REMARK    5  A    between atoms: CB_19  and  CG_20
REMARK    6  A    between atoms: C_21  and  C_23
REMARK                            x       y       z     vdW  Elec       q    Type
REMARK                         _______ _______ _______ _____ _____    ______ ____
ROOT
ATOM      2  O   TRP A   2      14.831   9.576  18.955  0.00  0.00    -0.274 OA
ATOM      3  O   UNK A   1      11.784   6.112  21.656  0.00  0.00    -0.274 OA
ATOM      7  N   UNK A   1      13.120   9.217  20.503  0.00  0.00    -0.288 N 
ATOM      8  N   TRP A   2      13.475   6.562  20.188  0.00  0.00    -0.302 N 
ATOM     11  C   UNK A   1      12.678   8.369  21.624  0.00  0.00    +0.164 C 
ATOM     12  C   UNK A   1      11.184  10.294  22.431  0.00  0.00    +0.077 C 
ATOM     13  C   UNK A   1      11.320   8.792  22.215  0.00  0.00    +0.054 C 
ATOM     14  C   UNK A   1      11.486  11.019  21.125  0.00  0.00    +0.041 C 
ATOM     15  C   UNK A   1      12.856  10.655  20.573  0.00  0.00    +0.110 C 
ATOM     16  CA  TRP A   2      14.619   7.372  19.842  0.00  0.00    +0.163 C 
ATOM     17  C   TRP A   2      14.186   8.816  19.682  0.00  0.00    +0.237 C 
ATOM     18  C   UNK A   1      12.559   6.922  21.150  0.00  0.00    +0.234 C 
ATOM     36  H   TRP A   2      13.451   5.604  19.850  0.00  0.00    +0.150 HD
ENDROOT
BRANCH  12   9
ATOM      4  O   UNK A   1      10.402  11.995  24.625  0.00  0.00    -0.274 OA
ATOM      9  N   UNK A   1      12.019  10.750  23.516  0.00  0.00    -0.311 N 
ATOM     21  C   UNK A   1      11.551  11.573  24.533  0.00  0.00    +0.235 C 
ATOM     37  H   UNK A   1      12.969  10.397  23.566  0.00  0.00    +0.149 HD
BRANCH  21  23
ATOM     23  C   UNK A   1      12.638  11.886  25.531  0.00  0.00    +0.267 C 
BRANCH  23   1
ATOM      1  S   UNK A   1      14.162  12.306  24.757  0.00  0.00    +0.005 S 
ATOM      5  O   UNK A   1      13.933  13.400  23.825  0.00  0.00    -0.169 OA
ATOM      6  O   UNK A   1      14.785  11.076  24.294  0.00  0.00    -0.169 OA
BRANCH   1  28
ATOM     28  C   UNK A   1      15.153  12.952  26.072  0.00  0.00    +0.089 A 
ATOM     31  C   UNK A   1      16.492  13.213  25.841  0.00  0.00    +0.027 A 
ATOM     32  C   UNK A   1      14.570  13.183  27.305  0.00  0.00    +0.027 A 
ATOM     33  C   UNK A   1      17.273  13.723  26.879  0.00  0.00    +0.002 A 
ATOM     34  C   UNK A   1      15.351  13.692  28.343  0.00  0.00    +0.002 A 
ATOM     35  C   UNK A   1      16.704  13.961  28.129  0.00  0.00    +0.000 A 
ENDBRANCH   1  28
ENDBRANCH  23   1
ENDBRANCH  21  23
ENDBRANCH  12   9
BRANCH  16  19
ATOM     19  CB  TRP A   2      15.759   7.234  20.841  0.00  0.00    +0.069 C 
BRANCH  19  20
ATOM     10  NE1 TRP A   2      18.161   5.302  18.884  0.00  0.00    -0.360 N 
ATOM     20  CG  TRP A   2      16.929   6.489  20.256  0.00  0.00    -0.020 A 
ATOM     22  CD2 TRP A   2      18.192   6.342  20.857  0.00  0.00    +0.003 A 
ATOM     24  CD1 TRP A   2      16.919   5.853  19.054  0.00  0.00    +0.087 A 
ATOM     25  CE2 TRP A   2      18.959   5.585  19.969  0.00  0.00    +0.047 A 
ATOM     26  CE3 TRP A   2      18.776   6.769  22.066  0.00  0.00    +0.010 A 
ATOM     27  CZ2 TRP A   2      20.287   5.232  20.232  0.00  0.00    +0.026 A 
ATOM     29  CZ3 TRP A   2      20.104   6.423  22.341  0.00  0.00    +0.001 A 
ATOM     30  CH2 TRP A   2      20.846   5.666  21.437  0.00  0.00    +0.002 A 
ATOM     38  HE1 TRP A   2      18.452   4.767  18.077  0.00  0.00    +0.165 HD
ENDBRANCH  19  20
ENDBRANCH  16  19
TORSDOF 6
ENDMDL
MODEL 2
REMARK VINA RESULT:      -7.8     27.836     30.845
REMARK  Name = 7051138
REMARK  6 active torsions:
REMARK  status: ('A' for Active; 'I' for Inactive)
REMARK    1  A    between atoms: S_1  and  C_23
REMARK    2  A    between atoms: S_1  and  C_28
REMARK    3  A    between atoms: N_9  and  C_12
REMARK    4  A    between atoms: CA_16  and  CB_19
REMARK    5  A    between atoms: CB_19  and  CG_20
REMARK    6  A    between atoms: C_21  and  C_23
REMARK                            x       y       z     vdW  Elec       q    Type
REMARK                         _______ _______ _______ _____ _____    ______ ____
ROOT
ATOM      2  O   TRP A   2      -5.382 -13.443  16.096  0.00  0.00    -0.274 OA
ATOM      3  O   UNK A   1      -6.019 -11.064  20.841  0.00  0.00    -0.274 OA
ATOM      7  N   UNK A   1      -6.832 -12.663  17.753  0.00  0.00    -0.288 N 
ATOM      8  N   TRP A   2      -4.684 -11.818  19.147  0.00  0.00    -0.302 N 
ATOM     11  C   UNK A   1      -7.075 -11.575  18.714  0.00  0.00    +0.164 C 
ATOM     12  C   UNK A   1      -9.570 -12.176  18.695  0.00  0.00    +0.077 C 
ATOM     13  C   UNK A   1      -8.368 -11.754  19.531  0.00  0.00    +0.054 C 
ATOM     14  C   UNK A   1      -9.217 -13.431  17.904  0.00  0.00    +0.041 C 
ATOM     15  C   UNK A   1      -7.978 -13.235  17.044  0.00  0.00    +0.110 C 
ATOM     16  CA  TRP A   2      -4.465 -11.966  17.728  0.00  0.00    +0.163 C 
ATOM     17  C   TRP A   2      -5.581 -12.799  17.129  0.00  0.00    +0.237 C 
ATOM     18  C   UNK A   1      -5.905 -11.491  19.693  0.00  0.00    +0.234 C 
ATOM     36  H   TRP A   2      -3.869 -11.761  19.751  0.00  0.00    +0.150 HD
ENDROOT
BRANCH  12   9
ATOM      4  O   UNK A   1     -11.084  -9.854  19.491  0.00  0.00    -0.274 OA
ATOM      9  N   UNK A   1     -10.025 -11.103  17.844  0.00  0.00    -0.311 N 
ATOM     21  C   UNK A   1     -10.753 -10.021  18.321  0.00  0.00    +0.235 C 
ATOM     37  H   UNK A   1      -9.741 -11.115  16.870  0.00  0.00    +0.149 HD
BRANCH  21  23
ATOM     23  C   UNK A   1     -11.090  -9.054  17.212  0.00  0.00    +0.267 C 
BRANCH  23   1
ATOM      1  S   UNK A   1      -9.655  -8.362  16.464  0.00  0.00    +0.005 S 
ATOM      5  O   UNK A   1      -8.503  -8.638  17.307  0.00  0.00    -0.169 OA
ATOM      6  O   UNK A   1      -9.964  -6.994  16.080  0.00  0.00    -0.169 OA
BRANCH   1  28
ATOM     28  C   UNK A   1      -9.443  -9.304  14.981  0.00  0.00    +0.089 A 
ATOM     31  C   UNK A   1     -10.394  -9.211  13.982  0.00  0.00    +0.027 A 
ATOM     32  C   UNK A   1      -8.330 -10.115  14.852  0.00  0.00    +0.027 A 
ATOM     33  C   UNK A   1     -10.227  -9.955  12.813  0.00  0.00    +0.002 A 
ATOM     34  C   UNK A   1      -8.162 -10.859  13.683  0.00  0.00    +0.002 A 
ATOM     35  C   UNK A   1      -9.112 -10.779  12.664  0.00  0.00    +0.000 A 
ENDBRANCH   1  28
ENDBRANCH  23   1
ENDBRANCH  21  23
ENDBRANCH  12   9
BRANCH  16  19
ATOM     19  CB  TRP A   2      -4.316 -10.629  17.015  0.00  0.00    +0.069 C 
BRANCH  19  20
ATOM     10  NE1 TRP A   2      -1.257 -10.756  15.026  0.00  0.00    -0.360 N 
ATOM     20  CG  TRP A   2      -3.235 -10.671  15.968  0.00  0.00    -0.020 A 
ATOM     22  CD2 TRP A   2      -3.439 -10.647  14.577  0.00  0.00    +0.003 A 
ATOM     24  CD1 TRP A   2      -1.903 -10.737  16.233  0.00  0.00    +0.087 A 
ATOM     25  CE2 TRP A   2      -2.170 -10.702  13.998  0.00  0.00    +0.047 A 
ATOM     26  CE3 TRP A   2      -4.567 -10.584  13.736  0.00  0.00    +0.010 A 
ATOM     27  CZ2 TRP A   2      -1.972 -10.697  12.612  0.00  0.00    +0.026 A 
ATOM     29  CZ3 TRP A   2      -4.385 -10.579  12.348  0.00  0.00    +0.001 A 
ATOM     30  CH2 TRP A   2      -3.106 -10.634  11.797  0.00  0.00    +0.002 A 
ATOM     38  HE1 TRP A   2      -0.254 -10.805  14.906  0.00  0.00    +0.165 HD
ENDBRANCH  19  20
ENDBRANCH  16  19
TORSDOF 6
ENDMDL
MODEL 3
REMARK VINA RESULT:      -7.7     27.933     31.053
REMARK  Name = 7051138
REMARK  6 active torsions:
REMARK  status: ('A' for Active; 'I' for Inactive)
REMARK    1  A    between atoms: S_1  and  C_23
REMARK    2  A    between atoms: S_1  and  C_28
REMARK    3  A    between atoms: N_9  and  C_12
REMARK    4  A    between atoms: CA_16  and  CB_19
REMARK    5  A    between atoms: CB_19  and  CG_20
REMARK    6  A    between atoms: C_21  and  C_23
REMARK                            x       y       z     vdW  Elec       q    Type
REMARK                         _______ _______ _______ _____ _____    ______ ____
ROOT
ATOM      2  O   TRP A   2      -5.109 -13.847  16.327  0.00  0.00    -0.274 OA
ATOM      3  O   UNK A   1      -5.986 -11.118  20.839  0.00  0.00    -0.274 OA
ATOM      7  N   UNK A   1      -6.615 -13.149  17.969  0.00  0.00    -0.288 N 
ATOM      8  N   TRP A   2      -4.599 -11.814  19.163  0.00  0.00    -0.302 N 
ATOM     11  C   UNK A   1      -7.009 -12.020  18.830  0.00  0.00    +0.164 C 
ATOM     12  C   UNK A   1      -9.363 -13.028  18.996  0.00  0.00    +0.077 C 
ATOM     13  C   UNK A   1      -8.225 -12.325  19.724  0.00  0.00    +0.054 C 
ATOM     14  C   UNK A   1      -8.828 -14.283  18.317  0.00  0.00    +0.041 C 
ATOM     15  C   UNK A   1      -7.669 -13.975  17.380  0.00  0.00    +0.110 C 
ATOM     16  CA  TRP A   2      -4.405 -12.073  17.756  0.00  0.00    +0.163 C 
ATOM     17  C   TRP A   2      -5.381 -13.139  17.299  0.00  0.00    +0.237 C 
ATOM     18  C   UNK A   1      -5.839 -11.638  19.734  0.00  0.00    +0.234 C 
ATOM     36  H   TRP A   2      -3.786 -11.558  19.716  0.00  0.00    +0.150 HD
ENDROOT
BRANCH  12   9
ATOM      4  O   UNK A   1     -11.615 -11.309  19.539  0.00  0.00    -0.274 OA
ATOM      9  N   UNK A   1     -10.023 -12.142  18.067  0.00  0.00    -0.311 N 
ATOM     21  C   UNK A   1     -11.107 -11.349  18.423  0.00  0.00    +0.235 C 
ATOM     37  H   UNK A   1      -9.632 -12.053  17.135  0.00  0.00    +0.149 HD
BRANCH  21  23
ATOM     23  C   UNK A   1     -11.590 -10.524  17.255  0.00  0.00    +0.267 C 
BRANCH  23   1
ATOM      1  S   UNK A   1     -10.269  -9.767  16.373  0.00  0.00    +0.005 S 
ATOM      5  O   UNK A   1      -9.956 -10.577  15.205  0.00  0.00    -0.169 OA
ATOM      6  O   UNK A   1      -9.224  -9.433  17.327  0.00  0.00    -0.169 OA
BRANCH   1  28
ATOM     28  C   UNK A   1     -10.959  -8.251  15.775  0.00  0.00    +0.089 A 
ATOM     31  C   UNK A   1     -11.665  -8.256  14.585  0.00  0.00    +0.027 A 
ATOM     32  C   UNK A   1     -10.779  -7.093  16.508  0.00  0.00    +0.027 A 
ATOM     33  C   UNK A   1     -12.209  -7.061  14.113  0.00  0.00    +0.002 A 
ATOM     34  C   UNK A   1     -11.323  -5.897  16.036  0.00  0.00    +0.002 A 
ATOM     35  C   UNK A   1     -12.037  -5.882  14.837  0.00  0.00    +0.000 A 
ENDBRANCH   1  28
ENDBRANCH  23   1
ENDBRANCH  21  23
ENDBRANCH  12   9
BRANCH  16  19
ATOM     19  CB  TRP A   2      -4.510 -10.813  16.908  0.00  0.00    +0.069 C 
BRANCH  19  20
ATOM     10  NE1 TRP A   2      -1.375 -10.600  15.049  0.00  0.00    -0.360 N 
ATOM     20  CG  TRP A   2      -3.389 -10.717  15.908  0.00  0.00    -0.020 A 
ATOM     22  CD2 TRP A   2      -3.539 -10.636  14.512  0.00  0.00    +0.003 A 
ATOM     24  CD1 TRP A   2      -2.067 -10.694  16.226  0.00  0.00    +0.087 A 
ATOM     25  CE2 TRP A   2      -2.248 -10.563  13.986  0.00  0.00    +0.047 A 
ATOM     26  CE3 TRP A   2      -4.636 -10.616  13.627  0.00  0.00    +0.010 A 
ATOM     27  CZ2 TRP A   2      -1.998 -10.470  12.612  0.00  0.00    +0.026 A 
ATOM     29  CZ3 TRP A   2      -4.400 -10.524  12.250  0.00  0.00    +0.001 A 
ATOM     30  CH2 TRP A   2      -3.100 -10.452  11.753  0.00  0.00    +0.002 A 
ATOM     38  HE1 TRP A   2      -0.368 -10.566  14.970  0.00  0.00    +0.165 HD
ENDBRANCH  19  20
ENDBRANCH  16  19
TORSDOF 6
ENDMDL
MODEL 4
REMARK VINA RESULT:      -7.6     28.930     30.945
REMARK  Name = 7051138
REMARK  6 active torsions:
REMARK  status: ('A' for Active; 'I' for Inactive)
REMARK    1  A    between atoms: S_1  and  C_23
REMARK    2  A    between atoms: S_1  and  C_28
REMARK    3  A    between atoms: N_9  and  C_12
REMARK    4  A    between atoms: CA_16  and  CB_19
REMARK    5  A    between atoms: CB_19  and  CG_20
REMARK    6  A    between atoms: C_21  and  C_23
REMARK                            x       y       z     vdW  Elec       q    Type
REMARK                         _______ _______ _______ _____ _____    ______ ____
ROOT
ATOM      2  O   TRP A   2      -6.113 -13.639  14.453  0.00  0.00    -0.274 OA
ATOM      3  O   UNK A   1      -3.633 -11.605  18.729  0.00  0.00    -0.274 OA
ATOM      7  N   UNK A   1      -6.227 -12.964  16.686  0.00  0.00    -0.288 N 
ATOM      8  N   TRP A   2      -3.630 -12.250  16.538  0.00  0.00    -0.302 N 
ATOM     11  C   UNK A   1      -5.782 -11.946  17.652  0.00  0.00    +0.164 C 
ATOM     12  C   UNK A   1      -7.813 -12.513  19.115  0.00  0.00    +0.077 C 
ATOM     13  C   UNK A   1      -6.330 -12.168  19.074  0.00  0.00    +0.054 C 
ATOM     14  C   UNK A   1      -8.077 -13.711  18.210  0.00  0.00    +0.041 C 
ATOM     15  C   UNK A   1      -7.597 -13.468  16.787  0.00  0.00    +0.110 C 
ATOM     16  CA  TRP A   2      -4.320 -12.296  15.270  0.00  0.00    +0.163 C 
ATOM     17  C   TRP A   2      -5.614 -13.069  15.426  0.00  0.00    +0.237 C 
ATOM     18  C   UNK A   1      -4.256 -11.948  17.726  0.00  0.00    +0.234 C 
ATOM     36  H   TRP A   2      -2.615 -12.248  16.527  0.00  0.00    +0.150 HD
ENDROOT
BRANCH  12   9
ATOM      4  O   UNK A   1     -10.318 -11.743  20.320  0.00  0.00    -0.274 OA
ATOM      9  N   UNK A   1      -8.630 -11.375  18.768  0.00  0.00    -0.311 N 
ATOM     21  C   UNK A   1      -9.828 -11.084  19.408  0.00  0.00    +0.235 C 
ATOM     37  H   UNK A   1      -8.274 -10.728  18.071  0.00  0.00    +0.149 HD
BRANCH  21  23
ATOM     23  C   UNK A   1     -10.465  -9.837  18.844  0.00  0.00    +0.267 C 
BRANCH  23   1
ATOM      1  S   UNK A   1      -9.850  -9.432  17.245  0.00  0.00    +0.005 S 
ATOM      5  O   UNK A   1      -9.992 -10.591  16.377  0.00  0.00    -0.169 OA
ATOM      6  O   UNK A   1      -8.550  -8.802  17.410  0.00  0.00    -0.169 OA
BRANCH   1  28
ATOM     28  C   UNK A   1     -10.974  -8.203  16.647  0.00  0.00    +0.089 A 
ATOM     31  C   UNK A   1     -10.480  -6.972  16.257  0.00  0.00    +0.027 A 
ATOM     32  C   UNK A   1     -12.324  -8.499  16.583  0.00  0.00    +0.027 A 
ATOM     33  C   UNK A   1     -11.367  -6.003  15.785  0.00  0.00    +0.002 A 
ATOM     34  C   UNK A   1     -13.211  -7.530  16.113  0.00  0.00    +0.002 A 
ATOM     35  C   UNK A   1     -12.731  -6.281  15.714  0.00  0.00    +0.000 A 
ENDBRANCH   1  28
ENDBRANCH  23   1
ENDBRANCH  21  23
ENDBRANCH  12   9
BRANCH  16  19
ATOM     19  CB  TRP A   2      -4.557 -10.913  14.681  0.00  0.00    +0.069 C 
BRANCH  19  20
ATOM     10  NE1 TRP A   2      -2.115 -10.735  11.972  0.00  0.00    -0.360 N 
ATOM     20  CG  TRP A   2      -3.759 -10.696  13.423  0.00  0.00    -0.020 A 
ATOM     22  CD2 TRP A   2      -4.207 -10.022  12.273  0.00  0.00    +0.003 A 
ATOM     24  CD1 TRP A   2      -2.484 -11.127  13.231  0.00  0.00    +0.087 A 
ATOM     25  CE2 TRP A   2      -3.148 -10.058  11.364  0.00  0.00    +0.047 A 
ATOM     26  CE3 TRP A   2      -5.403  -9.378  11.897  0.00  0.00    +0.010 A 
ATOM     27  CZ2 TRP A   2      -3.226  -9.481  10.092  0.00  0.00    +0.026 A 
ATOM     29  CZ3 TRP A   2      -5.494  -8.796  10.628  0.00  0.00    +0.001 A 
ATOM     30  CH2 TRP A   2      -4.421  -8.848   9.740  0.00  0.00    +0.002 A 
ATOM     38  HE1 TRP A   2      -1.216 -10.919  11.548  0.00  0.00    +0.165 HD
ENDBRANCH  19  20
ENDBRANCH  16  19
TORSDOF 6
ENDMDL
MODEL 5
REMARK VINA RESULT:      -7.6      1.913      2.683
REMARK  Name = 7051138
REMARK  6 active torsions:
REMARK  status: ('A' for Active; 'I' for Inactive)
REMARK    1  A    between atoms: S_1  and  C_23
REMARK    2  A    between atoms: S_1  and  C_28
REMARK    3  A    between atoms: N_9  and  C_12
REMARK    4  A    between atoms: CA_16  and  CB_19
REMARK    5  A    between atoms: CB_19  and  CG_20
REMARK    6  A    between atoms: C_21  and  C_23
REMARK                            x       y       z     vdW  Elec       q    Type
REMARK                         _______ _______ _______ _____ _____    ______ ____
ROOT
ATOM      2  O   TRP A   2      13.324  11.234  19.056  0.00  0.00    -0.274 OA
ATOM      3  O   UNK A   1      10.900   8.392  22.880  0.00  0.00    -0.274 OA
ATOM      7  N   UNK A   1      12.087  11.211  21.037  0.00  0.00    -0.288 N 
ATOM      8  N   TRP A   2      12.146   8.515  20.970  0.00  0.00    -0.302 N 
ATOM     11  C   UNK A   1      11.912  10.529  22.331  0.00  0.00    +0.164 C 
ATOM     12  C   UNK A   1      10.845  12.670  23.262  0.00  0.00    +0.077 C 
ATOM     13  C   UNK A   1      10.806  11.148  23.206  0.00  0.00    +0.054 C 
ATOM     14  C   UNK A   1      10.826  13.226  21.843  0.00  0.00    +0.041 C 
ATOM     15  C   UNK A   1      11.958  12.668  20.995  0.00  0.00    +0.110 C 
ATOM     16  CA  TRP A   2      13.206   9.163  20.234  0.00  0.00    +0.163 C 
ATOM     17  C   TRP A   2      12.852  10.621  20.017  0.00  0.00    +0.237 C 
ATOM     18  C   UNK A   1      11.561   9.063  22.089  0.00  0.00    +0.234 C 
ATOM     36  H   TRP A   2      11.960   7.536  20.772  0.00  0.00    +0.150 HD
ENDROOT
BRANCH  12   9
ATOM      4  O   UNK A   1      10.798  13.910  25.865  0.00  0.00    -0.274 OA
ATOM      9  N   UNK A   1      11.979  13.142  24.020  0.00  0.00    -0.311 N 
ATOM     21  C   UNK A   1      11.857  13.730  25.272  0.00  0.00    +0.235 C 
ATOM     37  H   UNK A   1      12.907  12.974  23.643  0.00  0.00    +0.149 HD
BRANCH  21  23
ATOM     23  C   UNK A   1      13.203  14.123  25.830  0.00  0.00    +0.267 C 
BRANCH  23   1
ATOM      1  S   UNK A   1      14.210  12.728  26.203  0.00  0.00    +0.005 S 
ATOM      5  O   UNK A   1      13.408  11.520  26.078  0.00  0.00    -0.169 OA
ATOM      6  O   UNK A   1      14.919  13.005  27.442  0.00  0.00    -0.169 OA
BRANCH   1  28
ATOM     28  C   UNK A   1      15.400  12.690  24.895  0.00  0.00    +0.089 A 
ATOM     31  C   UNK A   1      16.457  13.581  24.921  0.00  0.00    +0.027 A 
ATOM     32  C   UNK A   1      15.250  11.770  23.873  0.00  0.00    +0.027 A 
ATOM     33  C   UNK A   1      17.397  13.552  23.889  0.00  0.00    +0.002 A 
ATOM     34  C   UNK A   1      16.189  11.741  22.841  0.00  0.00    +0.002 A 
ATOM     35  C   UNK A   1      17.261  12.633  22.849  0.00  0.00    +0.000 A 
ENDBRANCH   1  28
ENDBRANCH  23   1
ENDBRANCH  21  23
ENDBRANCH  12   9
BRANCH  16  19
ATOM     19  CB  TRP A   2      14.564   9.007  20.901  0.00  0.00    +0.069 C 
BRANCH  19  20
ATOM     10  NE1 TRP A   2      15.932   6.189  19.025  0.00  0.00    -0.360 N 
ATOM     20  CG  TRP A   2      15.371   7.900  20.276  0.00  0.00    -0.020 A 
ATOM     22  CD2 TRP A   2      16.713   7.597  20.568  0.00  0.00    +0.003 A 
ATOM     24  CD1 TRP A   2      14.904   7.038  19.335  0.00  0.00    +0.087 A 
ATOM     25  CE2 TRP A   2      17.049   6.507  19.763  0.00  0.00    +0.047 A 
ATOM     26  CE3 TRP A   2      17.689   8.129  21.434  0.00  0.00    +0.010 A 
ATOM     27  CZ2 TRP A   2      18.319   5.920  19.781  0.00  0.00    +0.026 A 
ATOM     29  CZ3 TRP A   2      18.964   7.552  21.461  0.00  0.00    +0.001 A 
ATOM     30  CH2 TRP A   2      19.272   6.464  20.647  0.00  0.00    +0.002 A 
ATOM     38  HE1 TRP A   2      15.881   5.438  18.350  0.00  0.00    +0.165 HD
ENDBRANCH  19  20
ENDBRANCH  16  19
TORSDOF 6
ENDMDL
MODEL 6
REMARK VINA RESULT:      -7.5     27.573     31.338
REMARK  Name = 7051138
REMARK  6 active torsions:
REMARK  status: ('A' for Active; 'I' for Inactive)
REMARK    1  A    between atoms: S_1  and  C_23
REMARK    2  A    between atoms: S_1  and  C_28
REMARK    3  A    between atoms: N_9  and  C_12
REMARK    4  A    between atoms: CA_16  and  CB_19
REMARK    5  A    between atoms: CB_19  and  CG_20
REMARK    6  A    between atoms: C_21  and  C_23
REMARK                            x       y       z     vdW  Elec       q    Type
REMARK                         _______ _______ _______ _____ _____    ______ ____
ROOT
ATOM      2  O   TRP A   2     -17.495   4.263  31.580  0.00  0.00    -0.274 OA
ATOM      3  O   UNK A   1     -13.805   4.915  35.392  0.00  0.00    -0.274 OA
ATOM      7  N   UNK A   1     -16.142   5.714  32.813  0.00  0.00    -0.288 N 
ATOM      8  N   TRP A   2     -15.133   3.573  34.107  0.00  0.00    -0.302 N 
ATOM     11  C   UNK A   1     -14.805   5.890  33.406  0.00  0.00    +0.164 C 
ATOM     12  C   UNK A   1     -15.155   8.431  33.327  0.00  0.00    +0.077 C 
ATOM     13  C   UNK A   1     -14.623   7.243  34.118  0.00  0.00    +0.054 C 
ATOM     14  C   UNK A   1     -16.611   8.176  32.954  0.00  0.00    +0.041 C 
ATOM     15  C   UNK A   1     -16.785   6.872  32.191  0.00  0.00    +0.110 C 
ATOM     16  CA  TRP A   2     -15.702   3.286  32.811  0.00  0.00    +0.163 C 
ATOM     17  C   TRP A   2     -16.566   4.450  32.369  0.00  0.00    +0.237 C 
ATOM     18  C   UNK A   1     -14.552   4.780  34.425  0.00  0.00    +0.234 C 
ATOM     36  H   TRP A   2     -14.980   2.795  34.742  0.00  0.00    +0.150 HD
ENDROOT
BRANCH  12   9
ATOM      4  O   UNK A   1     -12.784  10.069  33.236  0.00  0.00    -0.274 OA
ATOM      9  N   UNK A   1     -14.335   8.707  32.173  0.00  0.00    -0.311 N 
ATOM     21  C   UNK A   1     -13.205   9.514  32.226  0.00  0.00    +0.235 C 
ATOM     37  H   UNK A   1     -14.563   8.236  31.303  0.00  0.00    +0.149 HD
BRANCH  21  23
ATOM     23  C   UNK A   1     -12.543   9.623  30.874  0.00  0.00    +0.267 C 
BRANCH  23   1
ATOM      1  S   UNK A   1     -13.421  10.685  29.779  0.00  0.00    +0.005 S 
ATOM      5  O   UNK A   1     -13.372  12.043  30.298  0.00  0.00    -0.169 OA
ATOM      6  O   UNK A   1     -14.703  10.065  29.484  0.00  0.00    -0.169 OA
BRANCH   1  28
ATOM     28  C   UNK A   1     -12.458  10.669  28.295  0.00  0.00    +0.089 A 
ATOM     31  C   UNK A   1     -12.900  11.384  27.197  0.00  0.00    +0.027 A 
ATOM     32  C   UNK A   1     -11.281   9.942  28.263  0.00  0.00    +0.027 A 
ATOM     33  C   UNK A   1     -12.141  11.371  26.026  0.00  0.00    +0.002 A 
ATOM     34  C   UNK A   1     -10.522   9.928  27.092  0.00  0.00    +0.002 A 
ATOM     35  C   UNK A   1     -10.953  10.642  25.974  0.00  0.00    +0.000 A 
ENDBRANCH   1  28
ENDBRANCH  23   1
ENDBRANCH  21  23
ENDBRANCH  12   9
BRANCH  16  19
ATOM     19  CB  TRP A   2     -14.646   2.941  31.770  0.00  0.00    +0.069 C 
BRANCH  19  20
ATOM     10  NE1 TRP A   2     -15.787   0.091  29.794  0.00  0.00    -0.360 N 
ATOM     20  CG  TRP A   2     -15.165   1.964  30.749  0.00  0.00    -0.020 A 
ATOM     22  CD2 TRP A   2     -15.600   2.287  29.452  0.00  0.00    +0.003 A 
ATOM     24  CD1 TRP A   2     -15.282   0.625  30.949  0.00  0.00    +0.087 A 
ATOM     25  CE2 TRP A   2     -15.991   1.084  28.862  0.00  0.00    +0.047 A 
ATOM     26  CE3 TRP A   2     -15.707   3.476  28.703  0.00  0.00    +0.010 A 
ATOM     27  CZ2 TRP A   2     -16.486   1.010  27.555  0.00  0.00    +0.026 A 
ATOM     29  CZ3 TRP A   2     -16.201   3.417  27.395  0.00  0.00    +0.001 A 
ATOM     30  CH2 TRP A   2     -16.583   2.202  26.831  0.00  0.00    +0.002 A 
ATOM     38  HE1 TRP A   2     -15.985  -0.889  29.646  0.00  0.00    +0.165 HD
ENDBRANCH  19  20
ENDBRANCH  16  19
TORSDOF 6
ENDMDL
MODEL 7
REMARK VINA RESULT:      -7.4     28.306     32.191
REMARK  Name = 7051138
REMARK  6 active torsions:
REMARK  status: ('A' for Active; 'I' for Inactive)
REMARK    1  A    between atoms: S_1  and  C_23
REMARK    2  A    between atoms: S_1  and  C_28
REMARK    3  A    between atoms: N_9  and  C_12
REMARK    4  A    between atoms: CA_16  and  CB_19
REMARK    5  A    between atoms: CB_19  and  CG_20
REMARK    6  A    between atoms: C_21  and  C_23
REMARK                            x       y       z     vdW  Elec       q    Type
REMARK                         _______ _______ _______ _____ _____    ______ ____
ROOT
ATOM      2  O   TRP A   2     -15.742   0.611  27.863  0.00  0.00    -0.274 OA
ATOM      3  O   UNK A   1     -19.276   4.513  28.793  0.00  0.00    -0.274 OA
ATOM      7  N   UNK A   1     -17.130   2.284  27.009  0.00  0.00    -0.288 N 
ATOM      8  N   TRP A   2     -17.857   2.885  29.536  0.00  0.00    -0.302 N 
ATOM     11  C   UNK A   1     -17.631   3.652  27.229  0.00  0.00    +0.164 C 
ATOM     12  C   UNK A   1     -18.115   3.829  24.715  0.00  0.00    +0.077 C 
ATOM     13  C   UNK A   1     -18.592   4.138  26.128  0.00  0.00    +0.054 C 
ATOM     14  C   UNK A   1     -17.823   2.338  24.597  0.00  0.00    +0.041 C 
ATOM     15  C   UNK A   1     -16.821   1.868  25.641  0.00  0.00    +0.110 C 
ATOM     16  CA  TRP A   2     -16.583   2.215  29.414  0.00  0.00    +0.163 C 
ATOM     17  C   TRP A   2     -16.470   1.592  28.037  0.00  0.00    +0.237 C 
ATOM     18  C   UNK A   1     -18.369   3.714  28.565  0.00  0.00    +0.234 C 
ATOM     36  H   TRP A   2     -18.300   2.900  30.450  0.00  0.00    +0.150 HD
ENDROOT
BRANCH  12   9
ATOM      4  O   UNK A   1     -18.156   6.342  23.300  0.00  0.00    -0.274 OA
ATOM      9  N   UNK A   1     -16.978   4.640  24.352  0.00  0.00    -0.311 N 
ATOM     21  C   UNK A   1     -17.097   5.842  23.666  0.00  0.00    +0.235 C 
ATOM     37  H   UNK A   1     -16.061   4.345  24.672  0.00  0.00    +0.149 HD
BRANCH  21  23
ATOM     23  C   UNK A   1     -15.748   6.474  23.425  0.00  0.00    +0.267 C 
BRANCH  23   1
ATOM      1  S   UNK A   1     -14.630   5.385  22.611  0.00  0.00    +0.005 S 
ATOM      5  O   UNK A   1     -15.379   4.537  21.697  0.00  0.00    -0.169 OA
ATOM      6  O   UNK A   1     -13.771   4.787  23.620  0.00  0.00    -0.169 OA
BRANCH   1  28
ATOM     28  C   UNK A   1     -13.632   6.454  21.615  0.00  0.00    +0.089 A 
ATOM     31  C   UNK A   1     -14.200   7.590  21.067  0.00  0.00    +0.027 A 
ATOM     32  C   UNK A   1     -12.303   6.133  21.404  0.00  0.00    +0.027 A 
ATOM     33  C   UNK A   1     -13.413   8.432  20.282  0.00  0.00    +0.002 A 
ATOM     34  C   UNK A   1     -11.516   6.975  20.618  0.00  0.00    +0.002 A 
ATOM     35  C   UNK A   1     -12.072   8.124  20.056  0.00  0.00    +0.000 A 
ENDBRANCH   1  28
ENDBRANCH  23   1
ENDBRANCH  21  23
ENDBRANCH  12   9
BRANCH  16  19
ATOM     19  CB  TRP A   2     -15.407   3.133  29.715  0.00  0.00    +0.069 C 
BRANCH  19  20
ATOM     10  NE1 TRP A   2     -14.529   2.412  33.185  0.00  0.00    -0.360 N 
ATOM     20  CG  TRP A   2     -15.050   3.124  31.178  0.00  0.00    -0.020 A 
ATOM     22  CD2 TRP A   2     -14.903   4.260  31.994  0.00  0.00    +0.003 A 
ATOM     24  CD1 TRP A   2     -14.821   2.003  31.912  0.00  0.00    +0.087 A 
ATOM     25  CE2 TRP A   2     -14.572   3.785  33.264  0.00  0.00    +0.047 A 
ATOM     26  CE3 TRP A   2     -15.015   5.650  31.796  0.00  0.00    +0.010 A 
ATOM     27  CZ2 TRP A   2     -14.346   4.637  34.352  0.00  0.00    +0.026 A 
ATOM     29  CZ3 TRP A   2     -14.791   6.513  32.875  0.00  0.00    +0.001 A 
ATOM     30  CH2 TRP A   2     -14.462   6.012  34.133  0.00  0.00    +0.002 A 
ATOM     38  HE1 TRP A   2     -14.311   1.796  33.956  0.00  0.00    +0.165 HD
ENDBRANCH  19  20
ENDBRANCH  16  19
TORSDOF 6
ENDMDL
MODEL 8
REMARK VINA RESULT:      -7.3     16.429     20.383
REMARK  Name = 7051138
REMARK  6 active torsions:
REMARK  status: ('A' for Active; 'I' for Inactive)
REMARK    1  A    between atoms: S_1  and  C_23
REMARK    2  A    between atoms: S_1  and  C_28
REMARK    3  A    between atoms: N_9  and  C_12
REMARK    4  A    between atoms: CA_16  and  CB_19
REMARK    5  A    between atoms: CB_19  and  CG_20
REMARK    6  A    between atoms: C_21  and  C_23
REMARK                            x       y       z     vdW  Elec       q    Type
REMARK                         _______ _______ _______ _____ _____    ______ ____
ROOT
ATOM      2  O   TRP A   2      10.119  10.145   5.870  0.00  0.00    -0.274 OA
ATOM      3  O   UNK A   1      10.954   5.486   8.355  0.00  0.00    -0.274 OA
ATOM      7  N   UNK A   1      11.621   8.484   6.533  0.00  0.00    -0.288 N 
ATOM      8  N   TRP A   2       9.556   7.139   7.626  0.00  0.00    -0.302 N 
ATOM     11  C   UNK A   1      11.807   7.031   6.687  0.00  0.00    +0.164 C 
ATOM     12  C   UNK A   1      14.344   7.385   6.525  0.00  0.00    +0.077 C 
ATOM     13  C   UNK A   1      13.203   6.643   7.210  0.00  0.00    +0.054 C 
ATOM     14  C   UNK A   1      14.098   8.886   6.621  0.00  0.00    +0.041 C 
ATOM     15  C   UNK A   1      12.747   9.281   6.044  0.00  0.00    +0.110 C 
ATOM     16  CA  TRP A   2       9.190   8.068   6.583  0.00  0.00    +0.163 C 
ATOM     17  C   TRP A   2      10.340   9.022   6.331  0.00  0.00    +0.237 C 
ATOM     18  C   UNK A   1      10.767   6.488   7.666  0.00  0.00    +0.234 C 
ATOM     36  H   TRP A   2       8.822   6.805   8.245  0.00  0.00    +0.150 HD
ENDROOT
BRANCH  12   9
ATOM      4  O   UNK A   1      16.436   8.169   4.701  0.00  0.00    -0.274 OA
ATOM      9  N   UNK A   1      14.518   6.945   5.161  0.00  0.00    -0.311 N 
ATOM     21  C   UNK A   1      15.562   7.381   4.355  0.00  0.00    +0.235 C 
ATOM     37  H   UNK A   1      13.883   6.237   4.805  0.00  0.00    +0.149 HD
BRANCH  21  23
ATOM     23  C   UNK A   1      15.496   6.755   2.983  0.00  0.00    +0.267 C 
BRANCH  23   1
ATOM      1  S   UNK A   1      14.027   7.189   2.116  0.00  0.00    +0.005 S 
ATOM      5  O   UNK A   1      14.340   7.333   0.702  0.00  0.00    -0.169 OA
ATOM      6  O   UNK A   1      13.387   8.279   2.833  0.00  0.00    -0.169 OA
BRANCH   1  28
ATOM     28  C   UNK A   1      12.995   5.760   2.269  0.00  0.00    +0.089 A 
ATOM     31  C   UNK A   1      13.356   4.596   1.616  0.00  0.00    +0.027 A 
ATOM     32  C   UNK A   1      11.848   5.837   3.039  0.00  0.00    +0.027 A 
ATOM     33  C   UNK A   1      12.542   3.469   1.737  0.00  0.00    +0.002 A 
ATOM     34  C   UNK A   1      11.034   4.710   3.159  0.00  0.00    +0.002 A 
ATOM     35  C   UNK A   1      11.380   3.527   2.507  0.00  0.00    +0.000 A 
ENDBRANCH   1  28
ENDBRANCH  23   1
ENDBRANCH  21  23
ENDBRANCH  12   9
BRANCH  16  19
ATOM     19  CB  TRP A   2       8.747   7.370   5.305  0.00  0.00    +0.069 C 
BRANCH  19  20
ATOM     10  NE1 TRP A   2       6.719   9.871   3.584  0.00  0.00    -0.360 N 
ATOM     20  CG  TRP A   2       8.058   8.319   4.360  0.00  0.00    -0.020 A 
ATOM     22  CD2 TRP A   2       8.317   8.436   2.983  0.00  0.00    +0.003 A 
ATOM     24  CD1 TRP A   2       7.083   9.196   4.717  0.00  0.00    +0.087 A 
ATOM     25  CE2 TRP A   2       7.456   9.428   2.509  0.00  0.00    +0.047 A 
ATOM     26  CE3 TRP A   2       9.193   7.808   2.076  0.00  0.00    +0.010 A 
ATOM     27  CZ2 TRP A   2       7.427   9.824   1.167  0.00  0.00    +0.026 A 
ATOM     29  CZ3 TRP A   2       9.175   8.193   0.731  0.00  0.00    +0.001 A 
ATOM     30  CH2 TRP A   2       8.304   9.186   0.285  0.00  0.00    +0.002 A 
ATOM     38  HE1 TRP A   2       6.013  10.594   3.541  0.00  0.00    +0.165 HD
ENDBRANCH  19  20
ENDBRANCH  16  19
TORSDOF 6
ENDMDL
MODEL 9
REMARK VINA RESULT:      -7.2      1.765      2.312
REMARK  Name = 7051138
REMARK  6 active torsions:
REMARK  status: ('A' for Active; 'I' for Inactive)
REMARK    1  A    between atoms: S_1  and  C_23
REMARK    2  A    between atoms: S_1  and  C_28
REMARK    3  A    between atoms: N_9  and  C_12
REMARK    4  A    between atoms: CA_16  and  CB_19
REMARK    5  A    between atoms: CB_19  and  CG_20
REMARK    6  A    between atoms: C_21  and  C_23
REMARK                            x       y       z     vdW  Elec       q    Type
REMARK                         _______ _______ _______ _____ _____    ______ ____
ROOT
ATOM      2  O   TRP A   2      13.351  11.171  19.033  0.00  0.00    -0.274 OA
ATOM      3  O   UNK A   1      10.941   8.387  22.908  0.00  0.00    -0.274 OA
ATOM      7  N   UNK A   1      12.116  11.178  21.015  0.00  0.00    -0.288 N 
ATOM      8  N   TRP A   2      12.186   8.482  20.995  0.00  0.00    -0.302 N 
ATOM     11  C   UNK A   1      11.945  10.518  22.321  0.00  0.00    +0.164 C 
ATOM     12  C   UNK A   1      10.870  12.670  23.215  0.00  0.00    +0.077 C 
ATOM     13  C   UNK A   1      10.837  11.147  23.186  0.00  0.00    +0.054 C 
ATOM     14  C   UNK A   1      10.847  13.202  21.787  0.00  0.00    +0.041 C 
ATOM     15  C   UNK A   1      11.981  12.633  20.948  0.00  0.00    +0.110 C 
ATOM     16  CA  TRP A   2      13.242   9.121  20.246  0.00  0.00    +0.163 C 
ATOM     17  C   TRP A   2      12.882  10.573  20.005  0.00  0.00    +0.237 C 
ATOM     18  C   UNK A   1      11.600   9.046  22.105  0.00  0.00    +0.234 C 
ATOM     36  H   TRP A   2      12.003   7.499  20.815  0.00  0.00    +0.150 HD
ENDROOT
BRANCH  12   9
ATOM      4  O   UNK A   1      10.837  13.813  25.863  0.00  0.00    -0.274 OA
ATOM      9  N   UNK A   1      12.003  13.160  23.964  0.00  0.00    -0.311 N 
ATOM     21  C   UNK A   1      11.888  13.697  25.239  0.00  0.00    +0.235 C 
ATOM     37  H   UNK A   1      12.927  13.043  23.559  0.00  0.00    +0.149 HD
BRANCH  21  23
ATOM     23  C   UNK A   1      13.231  14.124  25.780  0.00  0.00    +0.267 C 
BRANCH  23   1
ATOM      1  S   UNK A   1      14.277  12.755  26.138  0.00  0.00    +0.005 S 
ATOM      5  O   UNK A   1      15.541  12.930  25.438  0.00  0.00    -0.169 OA
ATOM      6  O   UNK A   1      13.505  11.537  25.950  0.00  0.00    -0.169 OA
BRANCH   1  28
ATOM     28  C   UNK A   1      14.623  12.914  27.866  0.00  0.00    +0.089 A 
ATOM     31  C   UNK A   1      15.344  11.921  28.503  0.00  0.00    +0.027 A 
ATOM     32  C   UNK A   1      14.165  14.029  28.545  0.00  0.00    +0.027 A 
ATOM     33  C   UNK A   1      15.617  12.047  29.866  0.00  0.00    +0.002 A 
ATOM     34  C   UNK A   1      14.436  14.154  29.908  0.00  0.00    +0.002 A 
ATOM     35  C   UNK A   1      15.162  13.162  30.568  0.00  0.00    +0.000 A 
ENDBRANCH   1  28
ENDBRANCH  23   1
ENDBRANCH  21  23
ENDBRANCH  12   9
BRANCH  16  19
ATOM     19  CB  TRP A   2      14.602   8.982  20.916  0.00  0.00    +0.069 C 
BRANCH  19  20
ATOM     10  NE1 TRP A   2      15.983   6.142  19.082  0.00  0.00    -0.360 N 
ATOM     20  CG  TRP A   2      15.415   7.871  20.305  0.00  0.00    -0.020 A 
ATOM     22  CD2 TRP A   2      16.760   7.583  20.597  0.00  0.00    +0.003 A 
ATOM     24  CD1 TRP A   2      14.950   6.988  19.382  0.00  0.00    +0.087 A 
ATOM     25  CE2 TRP A   2      17.101   6.482  19.809  0.00  0.00    +0.047 A 
ATOM     26  CE3 TRP A   2      17.736   8.138  21.449  0.00  0.00    +0.010 A 
ATOM     27  CZ2 TRP A   2      18.376   5.905  19.831  0.00  0.00    +0.026 A 
ATOM     29  CZ3 TRP A   2      19.016   7.571  21.480  0.00  0.00    +0.001 A 
ATOM     30  CH2 TRP A   2      19.329   6.472  20.683  0.00  0.00    +0.002 A 
ATOM     38  HE1 TRP A   2      15.935   5.380  18.420  0.00  0.00    +0.165 HD
ENDBRANCH  19  20
ENDBRANCH  16  19
TORSDOF 6
ENDMDL
MODEL 10
REMARK VINA RESULT:      -7.0     19.665     23.623
REMARK  Name = 7051138
REMARK  6 active torsions:
REMARK  status: ('A' for Active; 'I' for Inactive)
REMARK    1  A    between atoms: S_1  and  C_23
REMARK    2  A    between atoms: S_1  and  C_28
REMARK    3  A    between atoms: N_9  and  C_12
REMARK    4  A    between atoms: CA_16  and  CB_19
REMARK    5  A    between atoms: CB_19  and  CG_20
REMARK    6  A    between atoms: C_21  and  C_23
REMARK                            x       y       z     vdW  Elec       q    Type
REMARK                         _______ _______ _______ _____ _____    ______ ____
ROOT
ATOM      2  O   TRP A   2      15.458   7.763   0.771  0.00  0.00    -0.274 OA
ATOM      3  O   UNK A   1      13.611   2.836   1.715  0.00  0.00    -0.274 OA
ATOM      7  N   UNK A   1      14.645   5.745  -0.080  0.00  0.00    -0.288 N 
ATOM      8  N   TRP A   2      14.373   4.859   2.453  0.00  0.00    -0.302 N 
ATOM     11  C   UNK A   1      13.658   4.671   0.125  0.00  0.00    +0.164 C 
ATOM     12  C   UNK A   1      13.802   4.125  -2.378  0.00  0.00    +0.077 C 
ATOM     13  C   UNK A   1      13.706   3.579  -0.959  0.00  0.00    +0.054 C 
ATOM     14  C   UNK A   1      14.991   5.073  -2.474  0.00  0.00    +0.041 C 
ATOM     15  C   UNK A   1      14.912   6.193  -1.447  0.00  0.00    +0.110 C 
ATOM     16  CA  TRP A   2      14.380   6.296   2.311  0.00  0.00    +0.163 C 
ATOM     17  C   TRP A   2      14.922   6.666   0.945  0.00  0.00    +0.237 C 
ATOM     18  C   UNK A   1      13.905   4.007   1.479  0.00  0.00    +0.234 C 
ATOM     36  H   TRP A   2      14.537   4.471   3.378  0.00  0.00    +0.150 HD
ENDROOT
BRANCH  12   9
ATOM      4  O   UNK A   1      12.536   3.940  -4.963  0.00  0.00    -0.274 OA
ATOM      9  N   UNK A   1      12.568   4.751  -2.788  0.00  0.00    -0.311 N 
ATOM     21  C   UNK A   1      12.034   4.604  -4.062  0.00  0.00    +0.235 C 
ATOM     37  H   UNK A   1      12.041   5.266  -2.089  0.00  0.00    +0.149 HD
BRANCH  21  23
ATOM     23  C   UNK A   1      10.739   5.365  -4.207  0.00  0.00    +0.267 C 
BRANCH  23   1
ATOM      1  S   UNK A   1       9.467   4.733  -3.168  0.00  0.00    +0.005 S 
ATOM      5  O   UNK A   1       9.792   3.363  -2.804  0.00  0.00    -0.169 OA
ATOM      6  O   UNK A   1       8.187   5.037  -3.788  0.00  0.00    -0.169 OA
BRANCH   1  28
ATOM     28  C   UNK A   1       9.594   5.699  -1.691  0.00  0.00    +0.089 A 
ATOM     31  C   UNK A   1       9.959   5.079  -0.510  0.00  0.00    +0.027 A 
ATOM     32  C   UNK A   1       9.326   7.055  -1.747  0.00  0.00    +0.027 A 
ATOM     33  C   UNK A   1      10.060   5.841   0.655  0.00  0.00    +0.002 A 
ATOM     34  C   UNK A   1       9.425   7.817  -0.582  0.00  0.00    +0.002 A 
ATOM     35  C   UNK A   1       9.791   7.209   0.619  0.00  0.00    +0.000 A 
ENDBRANCH   1  28
ENDBRANCH  23   1
ENDBRANCH  21  23
ENDBRANCH  12   9
BRANCH  16  19
ATOM     19  CB  TRP A   2      13.013   6.916   2.562  0.00  0.00    +0.069 C 
BRANCH  19  20
ATOM     10  NE1 TRP A   2      12.744   7.442   6.165  0.00  0.00    -0.360 N 
ATOM     20  CG  TRP A   2      12.676   6.953   4.029  0.00  0.00    -0.020 A 
ATOM     22  CD2 TRP A   2      11.623   6.254   4.646  0.00  0.00    +0.003 A 
ATOM     24  CD1 TRP A   2      13.353   7.673   4.962  0.00  0.00    +0.087 A 
ATOM     25  CE2 TRP A   2      11.684   6.579   6.002  0.00  0.00    +0.047 A 
ATOM     26  CE3 TRP A   2      10.616   5.374   4.203  0.00  0.00    +0.010 A 
ATOM     27  CZ2 TRP A   2      10.783   6.065   6.942  0.00  0.00    +0.026 A 
ATOM     29  CZ3 TRP A   2       9.708   4.853   5.132  0.00  0.00    +0.001 A 
ATOM     30  CH2 TRP A   2       9.792   5.194   6.480  0.00  0.00    +0.002 A 
ATOM     38  HE1 TRP A   2      13.028   7.848   7.046  0.00  0.00    +0.165 HD
ENDBRANCH  19  20
ENDBRANCH  16  19
TORSDOF 6
ENDMDL
