MODEL 1
REMARK VINA RESULT:      -6.9      0.000      0.000
REMARK  Name = 75536172
REMARK  14 active torsions:
REMARK  status: ('A' for Active; 'I' for Inactive)
REMARK    1  A    between atoms: O_2  and  C_31
REMARK    2  A    between atoms: N_4  and  C_14
REMARK    3  A    between atoms: C_7  and  C_11
REMARK    4  A    between atoms: C_8  and  C_14
REMARK    5  A    between atoms: C_10  and  C_15
REMARK    6  A    between atoms: C_11  and  C_16
REMARK    7  A    between atoms: C_11  and  C_17
REMARK    8  A    between atoms: C_12  and  C_18
REMARK    9  A    between atoms: C_15  and  C_19
REMARK   10  A    between atoms: C_20  and  C_23
REMARK   11  A    between atoms: C_23  and  C_26
REMARK   12  A    between atoms: C_24  and  C_29
REMARK   13  A    between atoms: C_26  and  C_30
REMARK   14  A    between atoms: C_30  and  C_31
REMARK                            x       y       z     vdW  Elec       q    Type
REMARK                         _______ _______ _______ _____ _____    ______ ____
ROOT
ATOM      7  C   UNL     1      14.958   8.508  20.558  0.00  0.00    +0.000 C 
ATOM      8  C   UNL     1      14.588   7.036  20.252  0.00  0.00    +0.032 C 
ATOM      9  C   UNL     1      14.372   8.938  21.911  0.00  0.00    +0.012 C 
ATOM     10  C   UNL     1      12.838   8.801  21.951  0.00  0.00    +0.022 C 
ATOM     12  C   UNL     1      12.377   7.464  21.409  0.00  0.00    -0.073 C 
ATOM     13  C   UNL     1      13.179   6.682  20.663  0.00  0.00    -0.022 C 
ATOM     18  C   UNL     1      10.989   7.023  21.782  0.00  0.00    +0.039 C 
ENDROOT
BRANCH   7  11
ATOM     11  C   UNL     1      16.475   8.726  20.557  0.00  0.00    -0.013 C 
ATOM     16  C   UNL     1      17.174   7.600  21.310  0.00  0.00    +0.007 C 
ATOM     17  C   UNL     1      16.817  10.081  21.171  0.00  0.00    +0.007 C 
ENDBRANCH   7  11
BRANCH   8  14
ATOM     14  C   UNL     1      14.784   6.713  18.766  0.00  0.00    +0.112 C 
BRANCH  14   4
ATOM      1  O   UNL     1      12.288   7.221  17.441  0.00  0.00    -0.276 OA
ATOM      4  N   UNL     1      14.466   7.847  17.955  0.00  0.00    -0.315 N 
ATOM     20  C   UNL     1      13.222   8.014  17.347  0.00  0.00    +0.213 C 
ATOM     32  H   UNL     1      15.128   8.614  17.910  0.00  0.00    +0.149 HD
BRANCH  20  23
ATOM     23  C   UNL     1      13.156   9.287  16.518  0.00  0.00    +0.096 C 
BRANCH  23  26
ATOM     26  C   UNL     1      14.204  10.328  16.907  0.00  0.00    +0.020 C 
BRANCH  26  30
ATOM     30  C   UNL     1      14.906  10.932  15.690  0.00  0.00    +0.121 C 
BRANCH  30  31
ATOM      3  O   UNL     1      13.587  11.515  13.727  0.00  0.00    -0.251 OA
ATOM     31  C   UNL     1      13.966  11.776  14.861  0.00  0.00    +0.305 C 
BRANCH  31   2
ATOM      2  O   UNL     1      13.572  12.888  15.535  0.00  0.00    -0.481 OA
ATOM     34  H   UNL     1      13.642  13.696  14.982  0.00  0.00    +0.295 HD
ENDBRANCH  31   2
ENDBRANCH  30  31
ENDBRANCH  26  30
ENDBRANCH  23  26
ENDBRANCH  20  23
ENDBRANCH  14   4
ENDBRANCH   8  14
BRANCH  10  15
ATOM     15  C   UNL     1      12.160   9.958  21.208  0.00  0.00    +0.082 C 
BRANCH  15  19
ATOM      5  N   UNL     1      11.810  10.866  23.511  0.00  0.00    -0.342 N 
ATOM      6  N   UNL     1      11.085  12.145  21.844  0.00  0.00    -0.232 NA
ATOM     19  C   UNL     1      11.672  11.012  22.160  0.00  0.00    +0.109 A 
ATOM     21  C   UNL     1      11.275  11.980  24.110  0.00  0.00    +0.066 A 
ATOM     22  C   UNL     1      10.829  12.761  23.047  0.00  0.00    +0.092 A 
ATOM     24  C   UNL     1      10.217  13.997  23.317  0.00  0.00    -0.023 A 
ATOM     25  C   UNL     1      11.148  12.357  25.446  0.00  0.00    +0.028 A 
ATOM     27  C   UNL     1      10.079  14.397  24.652  0.00  0.00    +0.005 A 
ATOM     28  C   UNL     1      10.537  13.590  25.697  0.00  0.00    +0.002 A 
ATOM     29  C   UNL     1       9.712  14.895  22.236  0.00  0.00    +0.046 C 
ATOM     33  H   UNL     1      12.228  10.079  23.989  0.00  0.00    +0.167 HD
ENDBRANCH  15  19
ENDBRANCH  10  15
TORSDOF 10
ENDMDL
MODEL 2
REMARK VINA RESULT:      -6.7     27.662     29.825
REMARK  Name = 75536172
REMARK  14 active torsions:
REMARK  status: ('A' for Active; 'I' for Inactive)
REMARK    1  A    between atoms: O_2  and  C_31
REMARK    2  A    between atoms: N_4  and  C_14
REMARK    3  A    between atoms: C_7  and  C_11
REMARK    4  A    between atoms: C_8  and  C_14
REMARK    5  A    between atoms: C_10  and  C_15
REMARK    6  A    between atoms: C_11  and  C_16
REMARK    7  A    between atoms: C_11  and  C_17
REMARK    8  A    between atoms: C_12  and  C_18
REMARK    9  A    between atoms: C_15  and  C_19
REMARK   10  A    between atoms: C_20  and  C_23
REMARK   11  A    between atoms: C_23  and  C_26
REMARK   12  A    between atoms: C_24  and  C_29
REMARK   13  A    between atoms: C_26  and  C_30
REMARK   14  A    between atoms: C_30  and  C_31
REMARK                            x       y       z     vdW  Elec       q    Type
REMARK                         _______ _______ _______ _____ _____    ______ ____
ROOT
ATOM      7  C   UNL     1      -9.318  -9.312  16.772  0.00  0.00    +0.000 C 
ATOM      8  C   UNL     1      -9.798 -10.669  17.344  0.00  0.00    +0.032 C 
ATOM      9  C   UNL     1      -9.137  -9.407  15.249  0.00  0.00    +0.012 C 
ATOM     10  C   UNL     1      -8.120 -10.493  14.850  0.00  0.00    +0.022 C 
ATOM     12  C   UNL     1      -8.368 -11.795  15.584  0.00  0.00    -0.073 C 
ATOM     13  C   UNL     1      -9.132 -11.856  16.690  0.00  0.00    -0.022 C 
ATOM     18  C   UNL     1      -7.756 -13.034  14.993  0.00  0.00    +0.039 C 
ENDROOT
BRANCH   7  11
ATOM     11  C   UNL     1     -10.290  -8.177  17.108  0.00  0.00    -0.013 C 
ATOM     16  C   UNL     1     -11.722  -8.700  17.161  0.00  0.00    +0.007 C 
ATOM     17  C   UNL     1     -10.164  -7.049  16.089  0.00  0.00    +0.007 C 
ENDBRANCH   7  11
BRANCH   8  14
ATOM     14  C   UNL     1      -9.584 -10.736  18.861  0.00  0.00    +0.112 C 
BRANCH  14   4
ATOM      1  O   UNL     1      -7.828 -12.784  19.845  0.00  0.00    -0.276 OA
ATOM      4  N   UNL     1      -8.199 -10.587  19.185  0.00  0.00    -0.315 N 
ATOM     20  C   UNL     1      -7.418 -11.641  19.659  0.00  0.00    +0.213 C 
ATOM     32  H   UNL     1      -7.737  -9.713  18.957  0.00  0.00    +0.149 HD
BRANCH  20  23
ATOM     23  C   UNL     1      -5.990 -11.207  19.953  0.00  0.00    +0.096 C 
BRANCH  23  26
ATOM     26  C   UNL     1      -5.227 -10.729  18.719  0.00  0.00    +0.020 C 
BRANCH  26  30
ATOM     30  C   UNL     1      -4.358 -11.830  18.109  0.00  0.00    +0.121 C 
BRANCH  30  31
ATOM      3  O   UNL     1      -3.266 -10.321  16.541  0.00  0.00    -0.251 OA
ATOM     31  C   UNL     1      -3.767 -11.410  16.783  0.00  0.00    +0.305 C 
BRANCH  31   2
ATOM      2  O   UNL     1      -3.853 -12.407  15.864  0.00  0.00    -0.481 OA
ATOM     34  H   UNL     1      -3.169 -12.321  15.166  0.00  0.00    +0.295 HD
ENDBRANCH  31   2
ENDBRANCH  30  31
ENDBRANCH  26  30
ENDBRANCH  23  26
ENDBRANCH  20  23
ENDBRANCH  14   4
ENDBRANCH   8  14
BRANCH  10  15
ATOM     15  C   UNL     1      -6.682 -10.008  15.064  0.00  0.00    +0.082 C 
BRANCH  15  19
ATOM      5  N   UNL     1      -6.462  -9.089  12.748  0.00  0.00    -0.342 N 
ATOM      6  N   UNL     1      -4.804 -10.401  13.432  0.00  0.00    -0.232 NA
ATOM     19  C   UNL     1      -5.954  -9.855  13.759  0.00  0.00    +0.109 A 
ATOM     21  C   UNL     1      -5.582  -9.143  11.697  0.00  0.00    +0.066 A 
ATOM     22  C   UNL     1      -4.556  -9.969  12.150  0.00  0.00    +0.092 A 
ATOM     24  C   UNL     1      -3.470 -10.239  11.300  0.00  0.00    -0.023 A 
ATOM     25  C   UNL     1      -5.595  -8.560  10.430  0.00  0.00    +0.028 A 
ATOM     27  C   UNL     1      -3.462  -9.663  10.022  0.00  0.00    +0.005 A 
ATOM     28  C   UNL     1      -4.507  -8.839   9.598  0.00  0.00    +0.002 A 
ATOM     29  C   UNL     1      -2.330 -11.113  11.707  0.00  0.00    +0.046 C 
ATOM     33  H   UNL     1      -7.332  -8.574  12.767  0.00  0.00    +0.167 HD
ENDBRANCH  15  19
ENDBRANCH  10  15
TORSDOF 10
ENDMDL
MODEL 3
REMARK VINA RESULT:      -6.6      5.288     10.432
REMARK  Name = 75536172
REMARK  14 active torsions:
REMARK  status: ('A' for Active; 'I' for Inactive)
REMARK    1  A    between atoms: O_2  and  C_31
REMARK    2  A    between atoms: N_4  and  C_14
REMARK    3  A    between atoms: C_7  and  C_11
REMARK    4  A    between atoms: C_8  and  C_14
REMARK    5  A    between atoms: C_10  and  C_15
REMARK    6  A    between atoms: C_11  and  C_16
REMARK    7  A    between atoms: C_11  and  C_17
REMARK    8  A    between atoms: C_12  and  C_18
REMARK    9  A    between atoms: C_15  and  C_19
REMARK   10  A    between atoms: C_20  and  C_23
REMARK   11  A    between atoms: C_23  and  C_26
REMARK   12  A    between atoms: C_24  and  C_29
REMARK   13  A    between atoms: C_26  and  C_30
REMARK   14  A    between atoms: C_30  and  C_31
REMARK                            x       y       z     vdW  Elec       q    Type
REMARK                         _______ _______ _______ _____ _____    ______ ____
ROOT
ATOM      7  C   UNL     1      18.762   8.718  21.811  0.00  0.00    +0.000 C 
ATOM      8  C   UNL     1      17.584   8.271  20.911  0.00  0.00    +0.032 C 
ATOM      9  C   UNL     1      20.102   8.307  21.182  0.00  0.00    +0.012 C 
ATOM     10  C   UNL     1      20.202   6.785  20.966  0.00  0.00    +0.022 C 
ATOM     12  C   UNL     1      18.951   6.224  20.321  0.00  0.00    -0.073 C 
ATOM     13  C   UNL     1      17.794   6.909  20.294  0.00  0.00    -0.022 C 
ATOM     18  C   UNL     1      19.072   4.876  19.666  0.00  0.00    +0.039 C 
ENDROOT
BRANCH   7  11
ATOM     11  C   UNL     1      18.749  10.230  22.057  0.00  0.00    -0.013 C 
ATOM     16  C   UNL     1      19.054  10.983  20.767  0.00  0.00    +0.007 C 
ATOM     17  C   UNL     1      19.749  10.600  23.149  0.00  0.00    +0.007 C 
ENDBRANCH   7  11
BRANCH   8  14
ATOM     14  C   UNL     1      16.261   8.282  21.686  0.00  0.00    +0.112 C 
BRANCH  14   4
ATOM      1  O   UNL     1      14.156   6.808  20.407  0.00  0.00    -0.276 OA
ATOM      4  N   UNL     1      15.208   8.823  20.885  0.00  0.00    -0.315 N 
ATOM     20  C   UNL     1      14.222   8.029  20.299  0.00  0.00    +0.213 C 
ATOM     32  H   UNL     1      15.107   9.832  20.830  0.00  0.00    +0.149 HD
BRANCH  20  23
ATOM     23  C   UNL     1      13.241   8.850  19.476  0.00  0.00    +0.096 C 
BRANCH  23  26
ATOM     26  C   UNL     1      12.055   9.378  20.281  0.00  0.00    +0.020 C 
BRANCH  26  30
ATOM     30  C   UNL     1      10.831   8.467  20.180  0.00  0.00    +0.121 C 
BRANCH  30  31
ATOM      3  O   UNL     1      10.409   7.839  22.494  0.00  0.00    -0.251 OA
ATOM     31  C   UNL     1      10.732   7.525  21.357  0.00  0.00    +0.305 C 
BRANCH  31   2
ATOM      2  O   UNL     1      11.048   6.252  21.001  0.00  0.00    -0.481 OA
ATOM     34  H   UNL     1      12.018   6.121  20.935  0.00  0.00    +0.295 HD
ENDBRANCH  31   2
ENDBRANCH  30  31
ENDBRANCH  26  30
ENDBRANCH  23  26
ENDBRANCH  20  23
ENDBRANCH  14   4
ENDBRANCH   8  14
BRANCH  10  15
ATOM     15  C   UNL     1      20.513   6.060  22.281  0.00  0.00    +0.082 C 
BRANCH  15  19
ATOM      5  N   UNL     1      22.371   5.001  20.983  0.00  0.00    -0.342 N 
ATOM      6  N   UNL     1      21.865   4.032  22.917  0.00  0.00    -0.232 NA
ATOM     19  C   UNL     1      21.575   5.014  22.093  0.00  0.00    +0.109 A 
ATOM     21  C   UNL     1      23.233   3.941  21.097  0.00  0.00    +0.066 A 
ATOM     22  C   UNL     1      22.896   3.352  22.312  0.00  0.00    +0.092 A 
ATOM     24  C   UNL     1      23.603   2.215  22.742  0.00  0.00    -0.023 A 
ATOM     25  C   UNL     1      24.246   3.461  20.267  0.00  0.00    +0.028 A 
ATOM     27  C   UNL     1      24.625   1.716  21.924  0.00  0.00    +0.005 A 
ATOM     28  C   UNL     1      24.939   2.329  20.709  0.00  0.00    +0.002 A 
ATOM     29  C   UNL     1      23.305   1.525  24.032  0.00  0.00    +0.046 C 
ATOM     33  H   UNL     1      22.333   5.655  20.212  0.00  0.00    +0.167 HD
ENDBRANCH  15  19
ENDBRANCH  10  15
TORSDOF 10
ENDMDL
MODEL 4
REMARK VINA RESULT:      -6.4     26.841     29.570
REMARK  Name = 75536172
REMARK  14 active torsions:
REMARK  status: ('A' for Active; 'I' for Inactive)
REMARK    1  A    between atoms: O_2  and  C_31
REMARK    2  A    between atoms: N_4  and  C_14
REMARK    3  A    between atoms: C_7  and  C_11
REMARK    4  A    between atoms: C_8  and  C_14
REMARK    5  A    between atoms: C_10  and  C_15
REMARK    6  A    between atoms: C_11  and  C_16
REMARK    7  A    between atoms: C_11  and  C_17
REMARK    8  A    between atoms: C_12  and  C_18
REMARK    9  A    between atoms: C_15  and  C_19
REMARK   10  A    between atoms: C_20  and  C_23
REMARK   11  A    between atoms: C_23  and  C_26
REMARK   12  A    between atoms: C_24  and  C_29
REMARK   13  A    between atoms: C_26  and  C_30
REMARK   14  A    between atoms: C_30  and  C_31
REMARK                            x       y       z     vdW  Elec       q    Type
REMARK                         _______ _______ _______ _____ _____    ______ ____
ROOT
ATOM      7  C   UNL     1      -3.146 -12.255  12.342  0.00  0.00    +0.000 C 
ATOM      8  C   UNL     1      -2.023 -11.190  12.401  0.00  0.00    +0.032 C 
ATOM      9  C   UNL     1      -3.618 -12.456  10.894  0.00  0.00    +0.012 C 
ATOM     10  C   UNL     1      -4.148 -11.152  10.268  0.00  0.00    +0.022 C 
ATOM     12  C   UNL     1      -3.214  -9.986  10.519  0.00  0.00    -0.073 C 
ATOM     13  C   UNL     1      -2.261 -10.027  11.468  0.00  0.00    -0.022 C 
ATOM     18  C   UNL     1      -3.369  -8.788   9.624  0.00  0.00    +0.039 C 
ENDROOT
BRANCH   7  11
ATOM     11  C   UNL     1      -2.691 -13.595  12.929  0.00  0.00    -0.013 C 
ATOM     16  C   UNL     1      -2.633 -14.661  11.840  0.00  0.00    +0.007 C 
ATOM     17  C   UNL     1      -3.622 -14.024  14.059  0.00  0.00    +0.007 C 
ENDBRANCH   7  11
BRANCH   8  14
ATOM     14  C   UNL     1      -1.830 -10.667  13.829  0.00  0.00    +0.112 C 
BRANCH  14   4
ATOM      1  O   UNL     1      -2.319 -10.879  16.650  0.00  0.00    -0.276 OA
ATOM      4  N   UNL     1      -3.090 -10.517  14.489  0.00  0.00    -0.315 N 
ATOM     20  C   UNL     1      -3.237 -10.636  15.871  0.00  0.00    +0.213 C 
ATOM     32  H   UNL     1      -3.888 -10.202  13.947  0.00  0.00    +0.149 HD
BRANCH  20  23
ATOM     23  C   UNL     1      -4.682 -10.461  16.309  0.00  0.00    +0.096 C 
BRANCH  23  26
ATOM     26  C   UNL     1      -4.874 -10.505  17.824  0.00  0.00    +0.020 C 
BRANCH  26  30
ATOM     30  C   UNL     1      -5.302 -11.889  18.317  0.00  0.00    +0.121 C 
BRANCH  30  31
ATOM      3  O   UNL     1      -3.452 -12.154  19.878  0.00  0.00    -0.251 OA
ATOM     31  C   UNL     1      -4.168 -12.617  19.001  0.00  0.00    +0.305 C 
BRANCH  31   2
ATOM      2  O   UNL     1      -4.031 -13.882  18.523  0.00  0.00    -0.481 OA
ATOM     34  H   UNL     1      -4.133 -13.917  17.547  0.00  0.00    +0.295 HD
ENDBRANCH  31   2
ENDBRANCH  30  31
ENDBRANCH  26  30
ENDBRANCH  23  26
ENDBRANCH  20  23
ENDBRANCH  14   4
ENDBRANCH   8  14
BRANCH  10  15
ATOM     15  C   UNL     1      -5.564 -10.837  10.764  0.00  0.00    +0.082 C 
BRANCH  15  19
ATOM      5  N   UNL     1      -7.203  -9.042  10.172  0.00  0.00    -0.342 N 
ATOM      6  N   UNL     1      -6.246 -10.084   8.459  0.00  0.00    -0.232 NA
ATOM     19  C   UNL     1      -6.322 -10.005   9.768  0.00  0.00    +0.109 A 
ATOM     21  C   UNL     1      -7.732  -8.460   9.048  0.00  0.00    +0.066 A 
ATOM     22  C   UNL     1      -7.119  -9.129   7.992  0.00  0.00    +0.092 A 
ATOM     24  C   UNL     1      -7.444  -8.769   6.673  0.00  0.00    -0.023 A 
ATOM     25  C   UNL     1      -8.665  -7.438   8.870  0.00  0.00    +0.028 A 
ATOM     27  C   UNL     1      -8.379  -7.746   6.471  0.00  0.00    +0.005 A 
ATOM     28  C   UNL     1      -8.977  -7.094   7.551  0.00  0.00    +0.002 A 
ATOM     29  C   UNL     1      -6.832  -9.437   5.485  0.00  0.00    +0.046 C 
ATOM     33  H   UNL     1      -7.429  -8.800  11.128  0.00  0.00    +0.167 HD
ENDBRANCH  15  19
ENDBRANCH  10  15
TORSDOF 10
ENDMDL
MODEL 5
REMARK VINA RESULT:      -6.4     27.384     29.766
REMARK  Name = 75536172
REMARK  14 active torsions:
REMARK  status: ('A' for Active; 'I' for Inactive)
REMARK    1  A    between atoms: O_2  and  C_31
REMARK    2  A    between atoms: N_4  and  C_14
REMARK    3  A    between atoms: C_7  and  C_11
REMARK    4  A    between atoms: C_8  and  C_14
REMARK    5  A    between atoms: C_10  and  C_15
REMARK    6  A    between atoms: C_11  and  C_16
REMARK    7  A    between atoms: C_11  and  C_17
REMARK    8  A    between atoms: C_12  and  C_18
REMARK    9  A    between atoms: C_15  and  C_19
REMARK   10  A    between atoms: C_20  and  C_23
REMARK   11  A    between atoms: C_23  and  C_26
REMARK   12  A    between atoms: C_24  and  C_29
REMARK   13  A    between atoms: C_26  and  C_30
REMARK   14  A    between atoms: C_30  and  C_31
REMARK                            x       y       z     vdW  Elec       q    Type
REMARK                         _______ _______ _______ _____ _____    ______ ____
ROOT
ATOM      7  C   UNL     1      -8.968 -10.326  17.014  0.00  0.00    +0.000 C 
ATOM      8  C   UNL     1      -8.989 -11.806  17.468  0.00  0.00    +0.032 C 
ATOM      9  C   UNL     1      -9.051 -10.234  15.482  0.00  0.00    +0.012 C 
ATOM     10  C   UNL     1      -7.890 -10.974  14.791  0.00  0.00    +0.022 C 
ATOM     12  C   UNL     1      -7.673 -12.354  15.375  0.00  0.00    -0.073 C 
ATOM     13  C   UNL     1      -8.184 -12.713  16.567  0.00  0.00    -0.022 C 
ATOM     18  C   UNL     1      -6.895 -13.331  14.538  0.00  0.00    +0.039 C 
ENDROOT
BRANCH   7  11
ATOM     11  C   UNL     1     -10.110  -9.522  17.643  0.00  0.00    -0.013 C 
ATOM     16  C   UNL     1     -11.458 -10.021  17.132  0.00  0.00    +0.007 C 
ATOM     17  C   UNL     1      -9.938  -8.034  17.350  0.00  0.00    +0.007 C 
ENDBRANCH   7  11
BRANCH   8  14
ATOM     14  C   UNL     1      -8.492 -11.949  18.911  0.00  0.00    +0.112 C 
BRANCH  14   4
ATOM      1  O   UNL     1      -6.486 -10.310  20.149  0.00  0.00    -0.276 OA
ATOM      4  N   UNL     1      -7.085 -12.201  18.940  0.00  0.00    -0.315 N 
ATOM     20  C   UNL     1      -6.178 -11.348  19.568  0.00  0.00    +0.213 C 
ATOM     32  H   UNL     1      -6.742 -13.090  18.589  0.00  0.00    +0.149 HD
BRANCH  20  23
ATOM     23  C   UNL     1      -4.744 -11.832  19.427  0.00  0.00    +0.096 C 
BRANCH  23  26
ATOM     26  C   UNL     1      -4.329 -12.114  17.984  0.00  0.00    +0.020 C 
BRANCH  26  30
ATOM     30  C   UNL     1      -3.949 -10.840  17.228  0.00  0.00    +0.121 C 
BRANCH  30  31
ATOM      3  O   UNL     1      -3.441 -12.190  15.265  0.00  0.00    -0.251 OA
ATOM     31  C   UNL     1      -3.309 -11.149  15.894  0.00  0.00    +0.305 C 
BRANCH  31   2
ATOM      2  O   UNL     1      -2.551 -10.110  15.455  0.00  0.00    -0.481 OA
ATOM     34  H   UNL     1      -2.729  -9.899  14.514  0.00  0.00    +0.295 HD
ENDBRANCH  31   2
ENDBRANCH  30  31
ENDBRANCH  26  30
ENDBRANCH  23  26
ENDBRANCH  20  23
ENDBRANCH  14   4
ENDBRANCH   8  14
BRANCH  10  15
ATOM     15  C   UNL     1      -6.599 -10.147  14.844  0.00  0.00    +0.082 C 
BRANCH  15  19
ATOM      5  N   UNL     1      -4.760 -10.178  13.150  0.00  0.00    -0.342 N 
ATOM      6  N   UNL     1      -6.711  -9.381  12.447  0.00  0.00    -0.232 NA
ATOM     19  C   UNL     1      -6.056  -9.888  13.467  0.00  0.00    +0.109 A 
ATOM     21  C   UNL     1      -4.563  -9.836  11.836  0.00  0.00    +0.066 A 
ATOM     22  C   UNL     1      -5.796  -9.340  11.421  0.00  0.00    +0.092 A 
ATOM     24  C   UNL     1      -5.943  -8.892  10.097  0.00  0.00    -0.023 A 
ATOM     25  C   UNL     1      -3.448  -9.914  11.002  0.00  0.00    +0.028 A 
ATOM     27  C   UNL     1      -4.836  -8.961   9.242  0.00  0.00    +0.005 A 
ATOM     28  C   UNL     1      -3.612  -9.463   9.688  0.00  0.00    +0.002 A 
ATOM     29  C   UNL     1      -7.231  -8.347   9.573  0.00  0.00    +0.046 C 
ATOM     33  H   UNL     1      -4.065 -10.573  13.770  0.00  0.00    +0.167 HD
ENDBRANCH  15  19
ENDBRANCH  10  15
TORSDOF 10
ENDMDL
MODEL 6
REMARK VINA RESULT:      -6.4     26.664     29.814
REMARK  Name = 75536172
REMARK  14 active torsions:
REMARK  status: ('A' for Active; 'I' for Inactive)
REMARK    1  A    between atoms: O_2  and  C_31
REMARK    2  A    between atoms: N_4  and  C_14
REMARK    3  A    between atoms: C_7  and  C_11
REMARK    4  A    between atoms: C_8  and  C_14
REMARK    5  A    between atoms: C_10  and  C_15
REMARK    6  A    between atoms: C_11  and  C_16
REMARK    7  A    between atoms: C_11  and  C_17
REMARK    8  A    between atoms: C_12  and  C_18
REMARK    9  A    between atoms: C_15  and  C_19
REMARK   10  A    between atoms: C_20  and  C_23
REMARK   11  A    between atoms: C_23  and  C_26
REMARK   12  A    between atoms: C_24  and  C_29
REMARK   13  A    between atoms: C_26  and  C_30
REMARK   14  A    between atoms: C_30  and  C_31
REMARK                            x       y       z     vdW  Elec       q    Type
REMARK                         _______ _______ _______ _____ _____    ______ ____
ROOT
ATOM      7  C   UNL     1      -3.383 -12.191  13.804  0.00  0.00    +0.000 C 
ATOM      8  C   UNL     1      -2.174 -11.363  14.303  0.00  0.00    +0.032 C 
ATOM      9  C   UNL     1      -3.213 -12.545  12.318  0.00  0.00    +0.012 C 
ATOM     10  C   UNL     1      -3.080 -11.291  11.433  0.00  0.00    +0.022 C 
ATOM     12  C   UNL     1      -2.093 -10.297  12.008  0.00  0.00    -0.073 C 
ATOM     13  C   UNL     1      -1.689 -10.353  13.290  0.00  0.00    -0.022 C 
ATOM     18  C   UNL     1      -1.545  -9.263  11.065  0.00  0.00    +0.039 C 
ENDROOT
BRANCH   7  11
ATOM     11  C   UNL     1      -3.573 -13.472  14.623  0.00  0.00    -0.013 C 
ATOM     16  C   UNL     1      -3.041 -14.678  13.855  0.00  0.00    +0.007 C 
ATOM     17  C   UNL     1      -5.045 -13.663  14.978  0.00  0.00    +0.007 C 
ENDBRANCH   7  11
BRANCH   8  14
ATOM     14  C   UNL     1      -2.499 -10.649  15.620  0.00  0.00    +0.112 C 
BRANCH  14   4
ATOM      1  O   UNL     1      -4.359 -10.875  17.796  0.00  0.00    -0.276 OA
ATOM      4  N   UNL     1      -3.856 -10.198  15.631  0.00  0.00    -0.315 N 
ATOM     20  C   UNL     1      -4.692 -10.349  16.737  0.00  0.00    +0.213 C 
ATOM     32  H   UNL     1      -4.192  -9.647  14.848  0.00  0.00    +0.149 HD
BRANCH  20  23
ATOM     23  C   UNL     1      -6.090  -9.811  16.476  0.00  0.00    +0.096 C 
BRANCH  23  26
ATOM     26  C   UNL     1      -7.205 -10.758  16.913  0.00  0.00    +0.020 C 
BRANCH  26  30
ATOM     30  C   UNL     1      -7.978 -10.230  18.123  0.00  0.00    +0.121 C 
BRANCH  30  31
ATOM      3  O   UNL     1      -7.859 -11.869  19.920  0.00  0.00    -0.251 OA
ATOM     31  C   UNL     1      -7.471 -10.824  19.417  0.00  0.00    +0.305 C 
BRANCH  31   2
ATOM      2  O   UNL     1      -6.505 -10.047  19.974  0.00  0.00    -0.481 OA
ATOM     34  H   UNL     1      -6.884  -9.277  20.449  0.00  0.00    +0.295 HD
ENDBRANCH  31   2
ENDBRANCH  30  31
ENDBRANCH  26  30
ENDBRANCH  23  26
ENDBRANCH  20  23
ENDBRANCH  14   4
ENDBRANCH   8  14
BRANCH  10  15
ATOM     15  C   UNL     1      -4.445 -10.635  11.195  0.00  0.00    +0.082 C 
BRANCH  15  19
ATOM      5  N   UNL     1      -4.218 -11.507   8.862  0.00  0.00    -0.342 N 
ATOM      6  N   UNL     1      -5.701  -9.877   9.148  0.00  0.00    -0.232 NA
ATOM     19  C   UNL     1      -4.814 -10.645   9.739  0.00  0.00    +0.109 A 
ATOM     21  C   UNL     1      -4.756 -11.280   7.620  0.00  0.00    +0.066 A 
ATOM     22  C   UNL     1      -5.679 -10.258   7.826  0.00  0.00    +0.092 A 
ATOM     24  C   UNL     1      -6.422  -9.777   6.735  0.00  0.00    -0.023 A 
ATOM     25  C   UNL     1      -4.523 -11.863   6.375  0.00  0.00    +0.028 A 
ATOM     27  C   UNL     1      -6.204 -10.348   5.474  0.00  0.00    +0.005 A 
ATOM     28  C   UNL     1      -5.271 -11.372   5.300  0.00  0.00    +0.002 A 
ATOM     29  C   UNL     1      -7.431  -8.684   6.870  0.00  0.00    +0.046 C 
ATOM     33  H   UNL     1      -3.506 -12.189   9.084  0.00  0.00    +0.167 HD
ENDBRANCH  15  19
ENDBRANCH  10  15
TORSDOF 10
ENDMDL
MODEL 7
REMARK VINA RESULT:      -6.4     13.401     18.328
REMARK  Name = 75536172
REMARK  14 active torsions:
REMARK  status: ('A' for Active; 'I' for Inactive)
REMARK    1  A    between atoms: O_2  and  C_31
REMARK    2  A    between atoms: N_4  and  C_14
REMARK    3  A    between atoms: C_7  and  C_11
REMARK    4  A    between atoms: C_8  and  C_14
REMARK    5  A    between atoms: C_10  and  C_15
REMARK    6  A    between atoms: C_11  and  C_16
REMARK    7  A    between atoms: C_11  and  C_17
REMARK    8  A    between atoms: C_12  and  C_18
REMARK    9  A    between atoms: C_15  and  C_19
REMARK   10  A    between atoms: C_20  and  C_23
REMARK   11  A    between atoms: C_23  and  C_26
REMARK   12  A    between atoms: C_24  and  C_29
REMARK   13  A    between atoms: C_26  and  C_30
REMARK   14  A    between atoms: C_30  and  C_31
REMARK                            x       y       z     vdW  Elec       q    Type
REMARK                         _______ _______ _______ _____ _____    ______ ____
ROOT
ATOM      7  C   UNL     1       8.618   8.569   5.280  0.00  0.00    +0.000 C 
ATOM      8  C   UNL     1       8.320   7.740   6.553  0.00  0.00    +0.032 C 
ATOM      9  C   UNL     1       8.423   7.709   4.022  0.00  0.00    +0.012 C 
ATOM     10  C   UNL     1       9.333   6.466   4.020  0.00  0.00    +0.022 C 
ATOM     12  C   UNL     1       9.297   5.739   5.349  0.00  0.00    -0.073 C 
ATOM     13  C   UNL     1       8.827   6.320   6.468  0.00  0.00    -0.022 C 
ATOM     18  C   UNL     1       9.771   4.312   5.354  0.00  0.00    +0.039 C 
ENDROOT
BRANCH   7  11
ATOM     11  C   UNL     1       7.735   9.819   5.195  0.00  0.00    -0.013 C 
ATOM     16  C   UNL     1       6.820   9.742   3.977  0.00  0.00    +0.007 C 
ATOM     17  C   UNL     1       8.598  11.076   5.144  0.00  0.00    +0.007 C 
ENDBRANCH   7  11
BRANCH   8  14
ATOM     14  C   UNL     1       8.899   8.415   7.802  0.00  0.00    +0.112 C 
BRANCH  14   4
ATOM      1  O   UNL     1      10.099  10.903   8.585  0.00  0.00    -0.276 OA
ATOM      4  N   UNL     1      10.253   8.814   7.580  0.00  0.00    -0.315 N 
ATOM     20  C   UNL     1      10.755  10.047   7.997  0.00  0.00    +0.213 C 
ATOM     32  H   UNL     1      10.907   8.133   7.206  0.00  0.00    +0.149 HD
BRANCH  20  23
ATOM     23  C   UNL     1      12.214  10.231   7.612  0.00  0.00    +0.096 C 
BRANCH  23  26
ATOM     26  C   UNL     1      12.629   9.436   6.376  0.00  0.00    +0.020 C 
BRANCH  26  30
ATOM     30  C   UNL     1      13.886   8.599   6.616  0.00  0.00    +0.121 C 
BRANCH  30  31
ATOM      3  O   UNL     1      14.350   6.305   7.291  0.00  0.00    -0.251 OA
ATOM     31  C   UNL     1      13.552   7.159   6.929  0.00  0.00    +0.305 C 
BRANCH  31   2
ATOM      2  O   UNL     1      12.226   6.911   6.764  0.00  0.00    -0.481 OA
ATOM     34  H   UNL     1      11.672   7.659   7.076  0.00  0.00    +0.295 HD
ENDBRANCH  31   2
ENDBRANCH  30  31
ENDBRANCH  26  30
ENDBRANCH  23  26
ENDBRANCH  20  23
ENDBRANCH  14   4
ENDBRANCH   8  14
BRANCH  10  15
ATOM     15  C   UNL     1      10.770   6.834   3.634  0.00  0.00    +0.082 C 
BRANCH  15  19
ATOM      5  N   UNL     1      10.536   5.690   1.423  0.00  0.00    -0.342 N 
ATOM      6  N   UNL     1      12.454   5.349   2.492  0.00  0.00    -0.232 NA
ATOM     19  C   UNL     1      11.286   5.951   2.534  0.00  0.00    +0.109 A 
ATOM     21  C   UNL     1      11.268   4.864   0.607  0.00  0.00    +0.066 A 
ATOM     22  C   UNL     1      12.460   4.666   1.299  0.00  0.00    +0.092 A 
ATOM     24  C   UNL     1      13.453   3.850   0.730  0.00  0.00    -0.023 A 
ATOM     25  C   UNL     1      10.997   4.290  -0.635  0.00  0.00    +0.028 A 
ATOM     27  C   UNL     1      13.203   3.264  -0.518  0.00  0.00    +0.005 A 
ATOM     28  C   UNL     1      11.996   3.481  -1.186  0.00  0.00    +0.002 A 
ATOM     29  C   UNL     1      14.759   3.587   1.405  0.00  0.00    +0.046 C 
ATOM     33  H   UNL     1       9.607   6.040   1.232  0.00  0.00    +0.167 HD
ENDBRANCH  15  19
ENDBRANCH  10  15
TORSDOF 10
ENDMDL
MODEL 8
REMARK VINA RESULT:      -6.3      4.233      8.200
REMARK  Name = 75536172
REMARK  14 active torsions:
REMARK  status: ('A' for Active; 'I' for Inactive)
REMARK    1  A    between atoms: O_2  and  C_31
REMARK    2  A    between atoms: N_4  and  C_14
REMARK    3  A    between atoms: C_7  and  C_11
REMARK    4  A    between atoms: C_8  and  C_14
REMARK    5  A    between atoms: C_10  and  C_15
REMARK    6  A    between atoms: C_11  and  C_16
REMARK    7  A    between atoms: C_11  and  C_17
REMARK    8  A    between atoms: C_12  and  C_18
REMARK    9  A    between atoms: C_15  and  C_19
REMARK   10  A    between atoms: C_20  and  C_23
REMARK   11  A    between atoms: C_23  and  C_26
REMARK   12  A    between atoms: C_24  and  C_29
REMARK   13  A    between atoms: C_26  and  C_30
REMARK   14  A    between atoms: C_30  and  C_31
REMARK                            x       y       z     vdW  Elec       q    Type
REMARK                         _______ _______ _______ _____ _____    ______ ____
ROOT
ATOM      7  C   UNL     1      14.234   9.437  19.330  0.00  0.00    +0.000 C 
ATOM      8  C   UNL     1      13.062   8.463  19.601  0.00  0.00    +0.032 C 
ATOM      9  C   UNL     1      13.746  10.653  18.529  0.00  0.00    +0.012 C 
ATOM     10  C   UNL     1      13.124  10.250  17.179  0.00  0.00    +0.022 C 
ATOM     12  C   UNL     1      12.146   9.102  17.329  0.00  0.00    -0.073 C 
ATOM     13  C   UNL     1      12.124   8.323  18.426  0.00  0.00    -0.022 C 
ATOM     18  C   UNL     1      11.163   8.898  16.210  0.00  0.00    +0.039 C 
ENDROOT
BRANCH   7  11
ATOM     11  C   UNL     1      14.898   9.905  20.629  0.00  0.00    -0.013 C 
ATOM     16  C   UNL     1      14.132  11.083  21.223  0.00  0.00    +0.007 C 
ATOM     17  C   UNL     1      16.355  10.279  20.377  0.00  0.00    +0.007 C 
ENDBRANCH   7  11
BRANCH   8  14
ATOM     14  C   UNL     1      13.576   7.078  20.011  0.00  0.00    +0.112 C 
BRANCH  14   4
ATOM      1  O   UNL     1      16.041   6.360  21.297  0.00  0.00    -0.276 OA
ATOM      4  N   UNL     1      14.819   6.788  19.368  0.00  0.00    -0.315 N 
ATOM     20  C   UNL     1      15.973   6.446  20.073  0.00  0.00    +0.213 C 
ATOM     32  H   UNL     1      14.839   6.718  18.355  0.00  0.00    +0.149 HD
BRANCH  20  23
ATOM     23  C   UNL     1      17.160   6.216  19.152  0.00  0.00    +0.096 C 
BRANCH  23  26
ATOM     26  C   UNL     1      18.281   5.395  19.787  0.00  0.00    +0.020 C 
BRANCH  26  30
ATOM     30  C   UNL     1      19.390   6.274  20.368  0.00  0.00    +0.121 C 
BRANCH  30  31
ATOM      3  O   UNL     1      20.951   5.369  22.003  0.00  0.00    -0.251 OA
ATOM     31  C   UNL     1      20.565   5.453  20.845  0.00  0.00    +0.305 C 
BRANCH  31   2
ATOM      2  O   UNL     1      21.162   4.797  19.816  0.00  0.00    -0.481 OA
ATOM     34  H   UNL     1      21.004   5.244  18.957  0.00  0.00    +0.295 HD
ENDBRANCH  31   2
ENDBRANCH  30  31
ENDBRANCH  26  30
ENDBRANCH  23  26
ENDBRANCH  20  23
ENDBRANCH  14   4
ENDBRANCH   8  14
BRANCH  10  15
ATOM     15  C   UNL     1      14.208   9.915  16.148  0.00  0.00    +0.082 C 
BRANCH  15  19
ATOM      5  N   UNL     1      13.253  11.861  14.901  0.00  0.00    -0.342 N 
ATOM      6  N   UNL     1      15.146  11.025  14.091  0.00  0.00    -0.232 NA
ATOM     19  C   UNL     1      14.235  10.920  15.032  0.00  0.00    +0.109 A 
ATOM     21  C   UNL     1      13.550  12.626  13.801  0.00  0.00    +0.066 A 
ATOM     22  C   UNL     1      14.736  12.083  13.314  0.00  0.00    +0.092 A 
ATOM     24  C   UNL     1      15.325  12.645  12.168  0.00  0.00    -0.023 A 
ATOM     25  C   UNL     1      12.903  13.711  13.210  0.00  0.00    +0.028 A 
ATOM     27  C   UNL     1      14.693  13.735  11.558  0.00  0.00    +0.005 A 
ATOM     28  C   UNL     1      13.503  14.258  12.071  0.00  0.00    +0.002 A 
ATOM     29  C   UNL     1      16.596  12.122  11.582  0.00  0.00    +0.046 C 
ATOM     33  H   UNL     1      12.449  11.976  15.504  0.00  0.00    +0.167 HD
ENDBRANCH  15  19
ENDBRANCH  10  15
TORSDOF 10
ENDMDL
MODEL 9
REMARK VINA RESULT:      -6.2     27.785     30.059
REMARK  Name = 75536172
REMARK  14 active torsions:
REMARK  status: ('A' for Active; 'I' for Inactive)
REMARK    1  A    between atoms: O_2  and  C_31
REMARK    2  A    between atoms: N_4  and  C_14
REMARK    3  A    between atoms: C_7  and  C_11
REMARK    4  A    between atoms: C_8  and  C_14
REMARK    5  A    between atoms: C_10  and  C_15
REMARK    6  A    between atoms: C_11  and  C_16
REMARK    7  A    between atoms: C_11  and  C_17
REMARK    8  A    between atoms: C_12  and  C_18
REMARK    9  A    between atoms: C_15  and  C_19
REMARK   10  A    between atoms: C_20  and  C_23
REMARK   11  A    between atoms: C_23  and  C_26
REMARK   12  A    between atoms: C_24  and  C_29
REMARK   13  A    between atoms: C_26  and  C_30
REMARK   14  A    between atoms: C_30  and  C_31
REMARK                            x       y       z     vdW  Elec       q    Type
REMARK                         _______ _______ _______ _____ _____    ______ ____
ROOT
ATOM      7  C   UNL     1      -5.408 -11.287  17.169  0.00  0.00    +0.000 C 
ATOM      8  C   UNL     1      -6.280 -11.129  18.439  0.00  0.00    +0.032 C 
ATOM      9  C   UNL     1      -5.290  -9.946  16.430  0.00  0.00    +0.012 C 
ATOM     10  C   UNL     1      -6.663  -9.388  16.013  0.00  0.00    +0.022 C 
ATOM     12  C   UNL     1      -7.665  -9.448  17.147  0.00  0.00    -0.073 C 
ATOM     13  C   UNL     1      -7.470 -10.222  18.231  0.00  0.00    -0.022 C 
ATOM     18  C   UNL     1      -8.875  -8.564  17.031  0.00  0.00    +0.039 C 
ENDROOT
BRANCH   7  11
ATOM     11  C   UNL     1      -4.011 -11.821  17.502  0.00  0.00    -0.013 C 
ATOM     16  C   UNL     1      -3.739 -11.704  18.998  0.00  0.00    +0.007 C 
ATOM     17  C   UNL     1      -2.951 -11.072  16.699  0.00  0.00    +0.007 C 
ENDBRANCH   7  11
BRANCH   8  14
ATOM     14  C   UNL     1      -6.761 -12.491  18.953  0.00  0.00    +0.112 C 
BRANCH  14   4
ATOM      1  O   UNL     1      -8.175 -14.030  16.985  0.00  0.00    -0.276 OA
ATOM      4  N   UNL     1      -8.180 -12.610  18.824  0.00  0.00    -0.315 N 
ATOM     20  C   UNL     1      -8.785 -13.383  17.833  0.00  0.00    +0.213 C 
ATOM     32  H   UNL     1      -8.770 -12.208  19.545  0.00  0.00    +0.149 HD
BRANCH  20  23
ATOM     23  C   UNL     1     -10.302 -13.315  17.900  0.00  0.00    +0.096 C 
BRANCH  23  26
ATOM     26  C   UNL     1     -10.851 -11.890  17.944  0.00  0.00    +0.020 C 
BRANCH  26  30
ATOM     30  C   UNL     1     -11.717 -11.637  19.180  0.00  0.00    +0.121 C 
BRANCH  30  31
ATOM      3  O   UNL     1      -9.821 -10.709  20.394  0.00  0.00    -0.251 OA
ATOM     31  C   UNL     1     -11.024 -10.736  20.176  0.00  0.00    +0.305 C 
BRANCH  31   2
ATOM      2  O   UNL     1     -11.912  -9.932  20.818  0.00  0.00    -0.481 OA
ATOM     34  H   UNL     1     -12.805 -10.336  20.862  0.00  0.00    +0.295 HD
ENDBRANCH  31   2
ENDBRANCH  30  31
ENDBRANCH  26  30
ENDBRANCH  23  26
ENDBRANCH  20  23
ENDBRANCH  14   4
ENDBRANCH   8  14
BRANCH  10  15
ATOM     15  C   UNL     1      -7.198 -10.109  14.770  0.00  0.00    +0.082 C 
BRANCH  15  19
ATOM      5  N   UNL     1      -6.537  -9.006  12.624  0.00  0.00    -0.342 N 
ATOM      6  N   UNL     1      -5.174 -10.602  13.355  0.00  0.00    -0.232 NA
ATOM     19  C   UNL     1      -6.279  -9.933  13.594  0.00  0.00    +0.109 A 
ATOM     21  C   UNL     1      -5.531  -9.082  11.695  0.00  0.00    +0.066 A 
ATOM     22  C   UNL     1      -4.694 -10.086  12.174  0.00  0.00    +0.092 A 
ATOM     24  C   UNL     1      -3.541 -10.422  11.443  0.00  0.00    -0.023 A 
ATOM     25  C   UNL     1      -5.289  -8.380  10.513  0.00  0.00    +0.028 A 
ATOM     27  C   UNL     1      -3.279  -9.731  10.254  0.00  0.00    +0.005 A 
ATOM     28  C   UNL     1      -4.139  -8.728   9.799  0.00  0.00    +0.002 A 
ATOM     29  C   UNL     1      -2.592 -11.486  11.888  0.00  0.00    +0.046 C 
ATOM     33  H   UNL     1      -7.328  -8.377  12.592  0.00  0.00    +0.167 HD
ENDBRANCH  15  19
ENDBRANCH  10  15
TORSDOF 10
ENDMDL
MODEL 10
REMARK VINA RESULT:      -6.1      4.004      8.557
REMARK  Name = 75536172
REMARK  14 active torsions:
REMARK  status: ('A' for Active; 'I' for Inactive)
REMARK    1  A    between atoms: O_2  and  C_31
REMARK    2  A    between atoms: N_4  and  C_14
REMARK    3  A    between atoms: C_7  and  C_11
REMARK    4  A    between atoms: C_8  and  C_14
REMARK    5  A    between atoms: C_10  and  C_15
REMARK    6  A    between atoms: C_11  and  C_16
REMARK    7  A    between atoms: C_11  and  C_17
REMARK    8  A    between atoms: C_12  and  C_18
REMARK    9  A    between atoms: C_15  and  C_19
REMARK   10  A    between atoms: C_20  and  C_23
REMARK   11  A    between atoms: C_23  and  C_26
REMARK   12  A    between atoms: C_24  and  C_29
REMARK   13  A    between atoms: C_26  and  C_30
REMARK   14  A    between atoms: C_30  and  C_31
REMARK                            x       y       z     vdW  Elec       q    Type
REMARK                         _______ _______ _______ _____ _____    ______ ____
ROOT
ATOM      7  C   UNL     1      12.510  12.472  21.932  0.00  0.00    +0.000 C 
ATOM      8  C   UNL     1      11.117  11.928  22.331  0.00  0.00    +0.032 C 
ATOM      9  C   UNL     1      13.098  11.645  20.778  0.00  0.00    +0.012 C 
ATOM     10  C   UNL     1      13.240  10.155  21.142  0.00  0.00    +0.022 C 
ATOM     12  C   UNL     1      11.985   9.612  21.794  0.00  0.00    -0.073 C 
ATOM     13  C   UNL     1      11.040  10.420  22.307  0.00  0.00    -0.022 C 
ATOM     18  C   UNL     1      11.818   8.118  21.801  0.00  0.00    +0.039 C 
ENDROOT
BRANCH   7  11
ATOM     11  C   UNL     1      12.452  13.950  21.532  0.00  0.00    -0.013 C 
ATOM     16  C   UNL     1      11.707  14.116  20.212  0.00  0.00    +0.007 C 
ATOM     17  C   UNL     1      13.859  14.531  21.436  0.00  0.00    +0.007 C 
ENDBRANCH   7  11
BRANCH   8  14
ATOM     14  C   UNL     1      10.699  12.438  23.715  0.00  0.00    +0.112 C 
BRANCH  14   4
ATOM      1  O   UNL     1      10.736  14.015  26.114  0.00  0.00    -0.276 OA
ATOM      4  N   UNL     1      11.847  12.763  24.503  0.00  0.00    -0.315 N 
ATOM     20  C   UNL     1      11.773  13.539  25.660  0.00  0.00    +0.213 C 
ATOM     32  H   UNL     1      12.733  12.323  24.277  0.00  0.00    +0.149 HD
BRANCH  20  23
ATOM     23  C   UNL     1      13.139  13.759  26.290  0.00  0.00    +0.096 C 
BRANCH  23  26
ATOM     26  C   UNL     1      14.295  13.680  25.295  0.00  0.00    +0.020 C 
BRANCH  26  30
ATOM     30  C   UNL     1      15.467  12.853  25.827  0.00  0.00    +0.121 C 
BRANCH  30  31
ATOM      3  O   UNL     1      15.168  11.039  27.423  0.00  0.00    -0.251 OA
ATOM     31  C   UNL     1      15.024  11.486  26.294  0.00  0.00    +0.305 C 
BRANCH  31   2
ATOM      2  O   UNL     1      14.426  10.789  25.292  0.00  0.00    -0.481 OA
ATOM     34  H   UNL     1      13.449  10.874  25.320  0.00  0.00    +0.295 HD
ENDBRANCH  31   2
ENDBRANCH  30  31
ENDBRANCH  26  30
ENDBRANCH  23  26
ENDBRANCH  20  23
ENDBRANCH  14   4
ENDBRANCH   8  14
BRANCH  10  15
ATOM     15  C   UNL     1      14.466   9.919  22.032  0.00  0.00    +0.082 C 
BRANCH  15  19
ATOM      5  N   UNL     1      15.004   8.111  20.390  0.00  0.00    -0.342 N 
ATOM      6  N   UNL     1      16.641   8.673  21.783  0.00  0.00    -0.232 NA
ATOM     19  C   UNL     1      15.399   8.910  21.425  0.00  0.00    +0.109 A 
ATOM     21  C   UNL     1      16.062   7.303  20.057  0.00  0.00    +0.066 A 
ATOM     22  C   UNL     1      17.071   7.674  20.942  0.00  0.00    +0.092 A 
ATOM     24  C   UNL     1      18.316   7.027  20.869  0.00  0.00    -0.023 A 
ATOM     25  C   UNL     1      16.217   6.311  19.088  0.00  0.00    +0.028 A 
ATOM     27  C   UNL     1      18.495   6.027  19.904  0.00  0.00    +0.005 A 
ATOM     28  C   UNL     1      17.463   5.678  19.030  0.00  0.00    +0.002 A 
ATOM     29  C   UNL     1      19.450   7.365  21.780  0.00  0.00    +0.046 C 
ATOM     33  H   UNL     1      14.095   8.110  19.948  0.00  0.00    +0.167 HD
ENDBRANCH  15  19
ENDBRANCH  10  15
TORSDOF 10
ENDMDL
