MODEL 1
REMARK VINA RESULT:      -7.7      0.000      0.000
REMARK  Name = 45361536
REMARK  12 active torsions:
REMARK  status: ('A' for Active; 'I' for Inactive)
REMARK    1  A    between atoms: O_1  and  C_11
REMARK    2  A    between atoms: O_4  and  C_24
REMARK    3  A    between atoms: O_4  and  C_27
REMARK    4  A    between atoms: N_5  and  C_15
REMARK    5  A    between atoms: N_6  and  C_25
REMARK    6  A    between atoms: C_8  and  C_18
REMARK    7  A    between atoms: C_10  and  C_20
REMARK    8  A    between atoms: C_14  and  C_19
REMARK    9  A    between atoms: C_19  and  C_21
REMARK   10  A    between atoms: C_19  and  C_22
REMARK   11  A    between atoms: C_23  and  C_24
REMARK   12  A    between atoms: C_25  and  C_26
REMARK                            x       y       z     vdW  Elec       q    Type
REMARK                         _______ _______ _______ _____ _____    ______ ____
ROOT
ATOM      8  C   UNL     1      15.843  10.122  21.326  0.00  0.00    -0.027 C 
ATOM      9  C   UNL     1      15.547   8.621  21.656  0.00  0.00    +0.028 C 
ATOM     10  C   UNL     1      16.688   7.692  21.105  0.00  0.00    +0.012 C 
ATOM     11  C   UNL     1      14.102   8.225  21.236  0.00  0.00    +0.122 C 
ATOM     12  C   UNL     1      14.763  11.016  21.978  0.00  0.00    +0.007 C 
ATOM     13  C   UNL     1      17.208  10.513  21.936  0.00  0.00    +0.009 C 
ATOM     14  C   UNL     1      13.033   9.186  21.807  0.00  0.00    +0.029 C 
ATOM     15  C   UNL     1      18.067   8.142  21.666  0.00  0.00    +0.076 C 
ATOM     16  C   UNL     1      13.349  10.657  21.539  0.00  0.00    +0.007 C 
ATOM     17  C   UNL     1      18.352   9.628  21.459  0.00  0.00    +0.023 C 
ATOM     18  C   UNL     1      15.867  10.401  19.802  0.00  0.00    +0.011 C 
ATOM     20  C   UNL     1      16.475   6.202  21.420  0.00  0.00    +0.010 C 
ENDROOT
BRANCH  15   5
ATOM      3  O   UNL     1      19.853   6.329  23.042  0.00  0.00    -0.272 OA
ATOM      5  N   UNL     1      19.154   7.380  21.089  0.00  0.00    -0.309 N 
ATOM     23  C   UNL     1      19.957   6.535  21.835  0.00  0.00    +0.251 C 
ATOM     37  H   UNL     1      19.369   7.526  20.106  0.00  0.00    +0.149 HD
BRANCH  23  24
ATOM     24  C   UNL     1      21.012   5.868  20.979  0.00  0.00    +0.324 C 
BRANCH  24   4
ATOM      4  O   UNL     1      22.062   5.368  21.780  0.00  0.00    -0.483 OA
BRANCH   4  27
ATOM     27  C   UNL     1      22.902   4.442  21.209  0.00  0.00    +0.121 A 
ATOM     29  C   UNL     1      23.902   4.857  20.330  0.00  0.00    +0.045 A 
ATOM     30  C   UNL     1      22.753   3.088  21.507  0.00  0.00    +0.045 A 
ATOM     34  C   UNL     1      24.754   3.918  19.749  0.00  0.00    +0.004 A 
ATOM     35  C   UNL     1      23.606   2.149  20.927  0.00  0.00    +0.004 A 
ATOM     36  C   UNL     1      24.606   2.564  20.048  0.00  0.00    +0.000 A 
ENDBRANCH   4  27
ENDBRANCH  24   4
ENDBRANCH  23  24
ENDBRANCH  15   5
BRANCH  11   1
ATOM      1  O   UNL     1      13.796   6.926  21.744  0.00  0.00    -0.391 OA
ATOM     38  H   UNL     1      14.634   6.463  21.913  0.00  0.00    +0.210 HD
ENDBRANCH  11   1
BRANCH  14  19
ATOM     19  C   UNL     1      11.632   8.857  21.277  0.00  0.00    +0.077 C 
ATOM     21  C   UNL     1      10.852   8.059  22.315  0.00  0.00    +0.017 C 
BRANCH  19  22
ATOM      2  O   UNL     1      11.626   6.876  19.884  0.00  0.00    -0.276 OA
ATOM      6  N   UNL     1      11.982   8.936  18.880  0.00  0.00    -0.309 N 
ATOM     22  C   UNL     1      11.740   8.097  19.958  0.00  0.00    +0.217 C 
ATOM     39  H   UNL     1      12.010   9.941  19.016  0.00  0.00    +0.149 HD
BRANCH   6  25
ATOM     25  C   UNL     1      12.124   8.449  17.528  0.00  0.00    +0.159 C 
BRANCH  25  26
ATOM      7  N   UNL     1      13.688   8.614  15.675  0.00  0.00    -0.258 NA
ATOM     26  C   UNL     1      13.155   9.224  16.758  0.00  0.00    +0.058 A 
ATOM     28  C   UNL     1      13.503  10.496  17.181  0.00  0.00    +0.025 A 
ATOM     31  C   UNL     1      14.460  11.188  16.446  0.00  0.00    +0.003 A 
ATOM     32  C   UNL     1      14.615   9.317  14.985  0.00  0.00    +0.111 A 
ATOM     33  C   UNL     1      15.031  10.593  15.325  0.00  0.00    +0.020 A 
ENDBRANCH  25  26
ENDBRANCH   6  25
ENDBRANCH  19  22
ENDBRANCH  14  19
TORSDOF 9
ENDMDL
MODEL 2
REMARK VINA RESULT:      -7.5     28.227     30.707
REMARK  Name = 45361536
REMARK  12 active torsions:
REMARK  status: ('A' for Active; 'I' for Inactive)
REMARK    1  A    between atoms: O_1  and  C_11
REMARK    2  A    between atoms: O_4  and  C_24
REMARK    3  A    between atoms: O_4  and  C_27
REMARK    4  A    between atoms: N_5  and  C_15
REMARK    5  A    between atoms: N_6  and  C_25
REMARK    6  A    between atoms: C_8  and  C_18
REMARK    7  A    between atoms: C_10  and  C_20
REMARK    8  A    between atoms: C_14  and  C_19
REMARK    9  A    between atoms: C_19  and  C_21
REMARK   10  A    between atoms: C_19  and  C_22
REMARK   11  A    between atoms: C_23  and  C_24
REMARK   12  A    between atoms: C_25  and  C_26
REMARK                            x       y       z     vdW  Elec       q    Type
REMARK                         _______ _______ _______ _____ _____    ______ ____
ROOT
ATOM      8  C   UNL     1      -4.777 -10.483   9.430  0.00  0.00    -0.027 C 
ATOM      9  C   UNL     1      -5.761  -9.694  10.358  0.00  0.00    +0.028 C 
ATOM     10  C   UNL     1      -5.750 -10.283  11.814  0.00  0.00    +0.012 C 
ATOM     11  C   UNL     1      -7.165  -9.556   9.702  0.00  0.00    +0.122 C 
ATOM     12  C   UNL     1      -4.727  -9.809   8.039  0.00  0.00    +0.007 C 
ATOM     13  C   UNL     1      -3.356 -10.422  10.035  0.00  0.00    +0.009 C 
ATOM     14  C   UNL     1      -7.099  -8.978   8.269  0.00  0.00    +0.029 C 
ATOM     15  C   UNL     1      -4.303 -10.286  12.383  0.00  0.00    +0.076 C 
ATOM     16  C   UNL     1      -6.095  -9.708   7.378  0.00  0.00    +0.007 C 
ATOM     17  C   UNL     1      -3.288 -10.956  11.459  0.00  0.00    +0.023 C 
ATOM     18  C   UNL     1      -5.191 -11.966   9.250  0.00  0.00    +0.011 C 
ATOM     20  C   UNL     1      -6.676  -9.535  12.787  0.00  0.00    +0.010 C 
ENDROOT
BRANCH  15   5
ATOM      3  O   UNL     1      -2.136 -10.151  14.294  0.00  0.00    -0.272 OA
ATOM      5  N   UNL     1      -4.239 -10.929  13.679  0.00  0.00    -0.309 N 
ATOM     23  C   UNL     1      -3.151 -10.803  14.525  0.00  0.00    +0.251 C 
ATOM     37  H   UNL     1      -5.002 -11.548  13.943  0.00  0.00    +0.149 HD
BRANCH  23  24
ATOM     24  C   UNL     1      -3.351 -11.579  15.810  0.00  0.00    +0.324 C 
BRANCH  24   4
ATOM      4  O   UNL     1      -3.482 -10.700  16.907  0.00  0.00    -0.483 OA
BRANCH   4  27
ATOM     27  C   UNL     1      -4.661 -10.748  17.613  0.00  0.00    +0.121 A 
ATOM     29  C   UNL     1      -5.793 -10.095  17.125  0.00  0.00    +0.045 A 
ATOM     30  C   UNL     1      -4.726 -11.450  18.816  0.00  0.00    +0.045 A 
ATOM     34  C   UNL     1      -6.989 -10.143  17.840  0.00  0.00    +0.004 A 
ATOM     35  C   UNL     1      -5.923 -11.499  19.531  0.00  0.00    +0.004 A 
ATOM     36  C   UNL     1      -7.054 -10.846  19.043  0.00  0.00    +0.000 A 
ENDBRANCH   4  27
ENDBRANCH  24   4
ENDBRANCH  23  24
ENDBRANCH  15   5
BRANCH  11   1
ATOM      1  O   UNL     1      -7.964  -8.654  10.470  0.00  0.00    -0.391 OA
ATOM     38  H   UNL     1      -8.773  -9.121  10.737  0.00  0.00    +0.210 HD
ENDBRANCH  11   1
BRANCH  14  19
ATOM     19  C   UNL     1      -8.476  -8.972   7.594  0.00  0.00    +0.077 C 
ATOM     21  C   UNL     1      -8.462  -9.876   6.367  0.00  0.00    +0.017 C 
BRANCH  19  22
ATOM      2  O   UNL     1      -8.775  -7.101   6.086  0.00  0.00    -0.276 OA
ATOM      6  N   UNL     1      -9.332  -6.824   8.320  0.00  0.00    -0.309 N 
ATOM     22  C   UNL     1      -8.869  -7.544   7.228  0.00  0.00    +0.217 C 
ATOM     39  H   UNL     1      -9.430  -7.278   9.222  0.00  0.00    +0.149 HD
BRANCH   6  25
ATOM     25  C   UNL     1      -9.763  -5.449   8.223  0.00  0.00    +0.159 C 
BRANCH  25  26
ATOM      7  N   UNL     1     -11.366  -6.132   9.916  0.00  0.00    -0.258 NA
ATOM     26  C   UNL     1     -10.767  -5.099   9.284  0.00  0.00    +0.058 A 
ATOM     28  C   UNL     1     -11.025  -3.766   9.560  0.00  0.00    +0.025 A 
ATOM     31  C   UNL     1     -11.959  -3.475  10.549  0.00  0.00    +0.003 A 
ATOM     32  C   UNL     1     -12.267  -5.812  10.871  0.00  0.00    +0.111 A 
ATOM     33  C   UNL     1     -12.596  -4.513  11.222  0.00  0.00    +0.020 A 
ENDBRANCH  25  26
ENDBRANCH   6  25
ENDBRANCH  19  22
ENDBRANCH  14  19
TORSDOF 9
ENDMDL
MODEL 3
REMARK VINA RESULT:      -7.3     27.286     31.332
REMARK  Name = 45361536
REMARK  12 active torsions:
REMARK  status: ('A' for Active; 'I' for Inactive)
REMARK    1  A    between atoms: O_1  and  C_11
REMARK    2  A    between atoms: O_4  and  C_24
REMARK    3  A    between atoms: O_4  and  C_27
REMARK    4  A    between atoms: N_5  and  C_15
REMARK    5  A    between atoms: N_6  and  C_25
REMARK    6  A    between atoms: C_8  and  C_18
REMARK    7  A    between atoms: C_10  and  C_20
REMARK    8  A    between atoms: C_14  and  C_19
REMARK    9  A    between atoms: C_19  and  C_21
REMARK   10  A    between atoms: C_19  and  C_22
REMARK   11  A    between atoms: C_23  and  C_24
REMARK   12  A    between atoms: C_25  and  C_26
REMARK                            x       y       z     vdW  Elec       q    Type
REMARK                         _______ _______ _______ _____ _____    ______ ____
ROOT
ATOM      8  C   UNL     1      -3.316 -10.978  11.326  0.00  0.00    -0.027 C 
ATOM      9  C   UNL     1      -4.615 -10.585  12.108  0.00  0.00    +0.028 C 
ATOM     10  C   UNL     1      -5.484  -9.576  11.276  0.00  0.00    +0.012 C 
ATOM     11  C   UNL     1      -4.286 -10.144  13.562  0.00  0.00    +0.122 C 
ATOM     12  C   UNL     1      -2.542 -12.056  12.121  0.00  0.00    +0.007 C 
ATOM     13  C   UNL     1      -3.713 -11.591   9.964  0.00  0.00    +0.009 C 
ATOM     14  C   UNL     1      -3.422 -11.181  14.318  0.00  0.00    +0.029 C 
ATOM     15  C   UNL     1      -5.814 -10.172   9.879  0.00  0.00    +0.076 C 
ATOM     16  C   UNL     1      -2.184 -11.611  13.532  0.00  0.00    +0.007 C 
ATOM     17  C   UNL     1      -4.581 -10.667   9.122  0.00  0.00    +0.023 C 
ATOM     18  C   UNL     1      -2.379  -9.767  11.087  0.00  0.00    +0.011 C 
ATOM     20  C   UNL     1      -6.792  -9.169  11.974  0.00  0.00    +0.010 C 
ENDROOT
BRANCH  15   5
ATOM      3  O   UNL     1      -7.762 -10.761   7.823  0.00  0.00    -0.272 OA
ATOM      5  N   UNL     1      -6.516  -9.222   9.043  0.00  0.00    -0.309 N 
ATOM     23  C   UNL     1      -7.435  -9.605   8.080  0.00  0.00    +0.251 C 
ATOM     37  H   UNL     1      -6.272  -8.239   9.129  0.00  0.00    +0.149 HD
BRANCH  23  24
ATOM     24  C   UNL     1      -8.015  -8.409   7.356  0.00  0.00    +0.324 C 
BRANCH  24   4
ATOM      4  O   UNL     1      -7.824  -7.230   8.109  0.00  0.00    -0.483 OA
BRANCH   4  27
ATOM     27  C   UNL     1      -8.950  -6.532   8.477  0.00  0.00    +0.121 A 
ATOM     29  C   UNL     1     -10.101  -7.218   8.862  0.00  0.00    +0.045 A 
ATOM     30  C   UNL     1      -8.941  -5.137   8.464  0.00  0.00    +0.045 A 
ATOM     34  C   UNL     1     -11.244  -6.510   9.235  0.00  0.00    +0.004 A 
ATOM     35  C   UNL     1     -10.083  -4.429   8.838  0.00  0.00    +0.004 A 
ATOM     36  C   UNL     1     -11.235  -5.116   9.223  0.00  0.00    +0.000 A 
ENDBRANCH   4  27
ENDBRANCH  24   4
ENDBRANCH  23  24
ENDBRANCH  15   5
BRANCH  11   1
ATOM      1  O   UNL     1      -5.498 -10.003  14.305  0.00  0.00    -0.391 OA
ATOM     38  H   UNL     1      -5.626  -9.060  14.498  0.00  0.00    +0.210 HD
ENDBRANCH  11   1
BRANCH  14  19
ATOM     19  C   UNL     1      -3.000 -10.670  15.701  0.00  0.00    +0.077 C 
ATOM     21  C   UNL     1      -1.490 -10.798  15.870  0.00  0.00    +0.017 C 
BRANCH  19  22
ATOM      2  O   UNL     1      -3.402 -11.422  17.968  0.00  0.00    -0.276 OA
ATOM      6  N   UNL     1      -4.839 -12.133  16.292  0.00  0.00    -0.309 N 
ATOM     22  C   UNL     1      -3.747 -11.435  16.789  0.00  0.00    +0.217 C 
ATOM     39  H   UNL     1      -5.091 -12.050  15.313  0.00  0.00    +0.149 HD
BRANCH   6  25
ATOM     25  C   UNL     1      -5.702 -12.933  17.130  0.00  0.00    +0.159 C 
BRANCH  25  26
ATOM      7  N   UNL     1      -7.288 -11.107  16.902  0.00  0.00    -0.258 NA
ATOM     26  C   UNL     1      -6.861 -12.140  17.662  0.00  0.00    +0.058 A 
ATOM     28  C   UNL     1      -7.426 -12.495  18.876  0.00  0.00    +0.025 A 
ATOM     31  C   UNL     1      -8.498 -11.742  19.341  0.00  0.00    +0.003 A 
ATOM     32  C   UNL     1      -8.333 -10.397  17.385  0.00  0.00    +0.111 A 
ATOM     33  C   UNL     1      -8.966 -10.671  18.586  0.00  0.00    +0.020 A 
ENDBRANCH  25  26
ENDBRANCH   6  25
ENDBRANCH  19  22
ENDBRANCH  14  19
TORSDOF 9
ENDMDL
MODEL 4
REMARK VINA RESULT:      -7.3     27.917     31.319
REMARK  Name = 45361536
REMARK  12 active torsions:
REMARK  status: ('A' for Active; 'I' for Inactive)
REMARK    1  A    between atoms: O_1  and  C_11
REMARK    2  A    between atoms: O_4  and  C_24
REMARK    3  A    between atoms: O_4  and  C_27
REMARK    4  A    between atoms: N_5  and  C_15
REMARK    5  A    between atoms: N_6  and  C_25
REMARK    6  A    between atoms: C_8  and  C_18
REMARK    7  A    between atoms: C_10  and  C_20
REMARK    8  A    between atoms: C_14  and  C_19
REMARK    9  A    between atoms: C_19  and  C_21
REMARK   10  A    between atoms: C_19  and  C_22
REMARK   11  A    between atoms: C_23  and  C_24
REMARK   12  A    between atoms: C_25  and  C_26
REMARK                            x       y       z     vdW  Elec       q    Type
REMARK                         _______ _______ _______ _____ _____    ______ ____
ROOT
ATOM      8  C   UNL     1      -4.719 -11.067  16.836  0.00  0.00    -0.027 C 
ATOM      9  C   UNL     1      -5.509 -10.462  15.627  0.00  0.00    +0.028 C 
ATOM     10  C   UNL     1      -7.058 -10.606  15.842  0.00  0.00    +0.012 C 
ATOM     11  C   UNL     1      -4.969 -11.004  14.273  0.00  0.00    +0.122 C 
ATOM     12  C   UNL     1      -3.207 -10.808  16.646  0.00  0.00    +0.007 C 
ATOM     13  C   UNL     1      -5.160 -10.353  18.134  0.00  0.00    +0.009 C 
ATOM     14  C   UNL     1      -3.437 -10.837  14.133  0.00  0.00    +0.029 C 
ATOM     15  C   UNL     1      -7.478  -9.949  17.188  0.00  0.00    +0.076 C 
ATOM     16  C   UNL     1      -2.666 -11.373  15.339  0.00  0.00    +0.007 C 
ATOM     17  C   UNL     1      -6.659 -10.435  18.383  0.00  0.00    +0.023 C 
ATOM     18  C   UNL     1      -4.948 -12.592  16.990  0.00  0.00    +0.011 C 
ATOM     20  C   UNL     1      -7.896 -10.005  14.702  0.00  0.00    +0.010 C 
ENDROOT
BRANCH  15   5
ATOM      3  O   UNL     1      -9.538  -7.934  17.438  0.00  0.00    -0.272 OA
ATOM      5  N   UNL     1      -8.881 -10.164  17.473  0.00  0.00    -0.309 N 
ATOM     23  C   UNL     1      -9.793  -9.128  17.574  0.00  0.00    +0.251 C 
ATOM     37  H   UNL     1      -9.188 -11.114  17.669  0.00  0.00    +0.149 HD
BRANCH  23  24
ATOM     24  C   UNL     1     -11.185  -9.639  17.880  0.00  0.00    +0.324 C 
BRANCH  24   4
ATOM      4  O   UNL     1     -11.532  -9.368  19.221  0.00  0.00    -0.483 OA
BRANCH   4  27
ATOM     27  C   UNL     1     -11.977 -10.425  19.979  0.00  0.00    +0.121 A 
ATOM     29  C   UNL     1     -11.244 -11.612  20.019  0.00  0.00    +0.045 A 
ATOM     30  C   UNL     1     -13.160 -10.311  20.709  0.00  0.00    +0.045 A 
ATOM     34  C   UNL     1     -11.695 -12.684  20.787  0.00  0.00    +0.004 A 
ATOM     35  C   UNL     1     -13.610 -11.384  21.479  0.00  0.00    +0.004 A 
ATOM     36  C   UNL     1     -12.878 -12.571  21.518  0.00  0.00    +0.000 A 
ENDBRANCH   4  27
ENDBRANCH  24   4
ENDBRANCH  23  24
ENDBRANCH  15   5
BRANCH  11   1
ATOM      1  O   UNL     1      -5.559 -10.275  13.196  0.00  0.00    -0.391 OA
ATOM     38  H   UNL     1      -5.891 -10.914  12.545  0.00  0.00    +0.210 HD
ENDBRANCH  11   1
BRANCH  14  19
ATOM     19  C   UNL     1      -2.908 -11.494  12.852  0.00  0.00    +0.077 C 
ATOM     21  C   UNL     1      -1.701 -12.369  13.172  0.00  0.00    +0.017 C 
BRANCH  19  22
ATOM      2  O   UNL     1      -1.465  -9.868  11.784  0.00  0.00    -0.276 OA
ATOM      6  N   UNL     1      -3.613 -10.156  10.958  0.00  0.00    -0.309 N 
ATOM     22  C   UNL     1      -2.561 -10.422  11.823  0.00  0.00    +0.217 C 
ATOM     39  H   UNL     1      -4.470 -10.695  11.022  0.00  0.00    +0.149 HD
BRANCH   6  25
ATOM     25  C   UNL     1      -3.525  -9.178   9.899  0.00  0.00    +0.159 C 
BRANCH  25  26
ATOM      7  N   UNL     1      -5.758  -8.272   9.593  0.00  0.00    -0.258 NA
ATOM     26  C   UNL     1      -4.798  -9.091   9.108  0.00  0.00    +0.058 A 
ATOM     28  C   UNL     1      -4.927  -9.834   7.946  0.00  0.00    +0.025 A 
ATOM     31  C   UNL     1      -6.119  -9.731   7.236  0.00  0.00    +0.003 A 
ATOM     32  C   UNL     1      -6.902  -8.196   8.876  0.00  0.00    +0.111 A 
ATOM     33  C   UNL     1      -7.130  -8.897   7.704  0.00  0.00    +0.020 A 
ENDBRANCH  25  26
ENDBRANCH   6  25
ENDBRANCH  19  22
ENDBRANCH  14  19
TORSDOF 9
ENDMDL
MODEL 5
REMARK VINA RESULT:      -7.3     27.670     32.420
REMARK  Name = 45361536
REMARK  12 active torsions:
REMARK  status: ('A' for Active; 'I' for Inactive)
REMARK    1  A    between atoms: O_1  and  C_11
REMARK    2  A    between atoms: O_4  and  C_24
REMARK    3  A    between atoms: O_4  and  C_27
REMARK    4  A    between atoms: N_5  and  C_15
REMARK    5  A    between atoms: N_6  and  C_25
REMARK    6  A    between atoms: C_8  and  C_18
REMARK    7  A    between atoms: C_10  and  C_20
REMARK    8  A    between atoms: C_14  and  C_19
REMARK    9  A    between atoms: C_19  and  C_21
REMARK   10  A    between atoms: C_19  and  C_22
REMARK   11  A    between atoms: C_23  and  C_24
REMARK   12  A    between atoms: C_25  and  C_26
REMARK                            x       y       z     vdW  Elec       q    Type
REMARK                         _______ _______ _______ _____ _____    ______ ____
ROOT
ATOM      8  C   UNL     1     -16.506   6.279  22.435  0.00  0.00    -0.027 C 
ATOM      9  C   UNL     1     -15.041   5.888  22.824  0.00  0.00    +0.028 C 
ATOM     10  C   UNL     1     -14.086   5.993  21.582  0.00  0.00    +0.012 C 
ATOM     11  C   UNL     1     -15.002   4.531  23.584  0.00  0.00    +0.122 C 
ATOM     12  C   UNL     1     -17.394   6.274  23.701  0.00  0.00    +0.007 C 
ATOM     13  C   UNL     1     -16.510   7.714  21.863  0.00  0.00    +0.009 C 
ATOM     14  C   UNL     1     -15.971   4.496  24.789  0.00  0.00    +0.029 C 
ATOM     15  C   UNL     1     -14.155   7.421  20.968  0.00  0.00    +0.076 C 
ATOM     16  C   UNL     1     -17.390   4.935  24.426  0.00  0.00    +0.007 C 
ATOM     17  C   UNL     1     -15.579   7.886  20.670  0.00  0.00    +0.023 C 
ATOM     18  C   UNL     1     -17.121   5.312  21.392  0.00  0.00    +0.011 C 
ATOM     20  C   UNL     1     -12.621   5.649  21.900  0.00  0.00    +0.010 C 
ENDROOT
BRANCH  15   5
ATOM      3  O   UNL     1     -11.796   9.038  20.534  0.00  0.00    -0.272 OA
ATOM      5  N   UNL     1     -13.375   7.519  19.753  0.00  0.00    -0.309 N 
ATOM     23  C   UNL     1     -12.256   8.327  19.643  0.00  0.00    +0.251 C 
ATOM     37  H   UNL     1     -13.706   7.020  18.932  0.00  0.00    +0.149 HD
BRANCH  23  24
ATOM     24  C   UNL     1     -11.636   8.238  18.265  0.00  0.00    +0.324 C 
BRANCH  24   4
ATOM      4  O   UNL     1     -12.104   9.283  17.440  0.00  0.00    -0.483 OA
BRANCH   4  27
ATOM     27  C   UNL     1     -11.419  10.474  17.486  0.00  0.00    +0.121 A 
ATOM     29  C   UNL     1     -10.150  10.570  16.916  0.00  0.00    +0.045 A 
ATOM     30  C   UNL     1     -11.992  11.585  18.103  0.00  0.00    +0.045 A 
ATOM     34  C   UNL     1      -9.454  11.778  16.963  0.00  0.00    +0.004 A 
ATOM     35  C   UNL     1     -11.297  12.794  18.149  0.00  0.00    +0.004 A 
ATOM     36  C   UNL     1     -10.027  12.890  17.579  0.00  0.00    +0.000 A 
ENDBRANCH   4  27
ENDBRANCH  24   4
ENDBRANCH  23  24
ENDBRANCH  15   5
BRANCH  11   1
ATOM      1  O   UNL     1     -13.691   4.315  24.108  0.00  0.00    -0.391 OA
ATOM     38  H   UNL     1     -13.764   3.707  24.863  0.00  0.00    +0.210 HD
ENDBRANCH  11   1
BRANCH  14  19
ATOM     19  C   UNL     1     -16.015   3.110  25.444  0.00  0.00    +0.077 C 
ATOM     21  C   UNL     1     -16.946   2.189  24.662  0.00  0.00    +0.017 C 
BRANCH  19  22
ATOM      2  O   UNL     1     -17.624   3.137  27.253  0.00  0.00    -0.276 OA
ATOM      6  N   UNL     1     -15.386   3.474  27.756  0.00  0.00    -0.309 N 
ATOM     22  C   UNL     1     -16.452   3.236  26.900  0.00  0.00    +0.217 C 
ATOM     39  H   UNL     1     -14.438   3.490  27.393  0.00  0.00    +0.149 HD
BRANCH   6  25
ATOM     25  C   UNL     1     -15.549   3.632  29.182  0.00  0.00    +0.159 C 
BRANCH  25  26
ATOM      7  N   UNL     1     -15.284   1.217  29.200  0.00  0.00    -0.258 NA
ATOM     26  C   UNL     1     -15.264   2.358  29.924  0.00  0.00    +0.058 A 
ATOM     28  C   UNL     1     -14.999   2.409  31.283  0.00  0.00    +0.025 A 
ATOM     31  C   UNL     1     -14.738   1.212  31.941  0.00  0.00    +0.003 A 
ATOM     32  C   UNL     1     -15.026   0.073  29.872  0.00  0.00    +0.111 A 
ATOM     33  C   UNL     1     -14.750   0.017  31.229  0.00  0.00    +0.020 A 
ENDBRANCH  25  26
ENDBRANCH   6  25
ENDBRANCH  19  22
ENDBRANCH  14  19
TORSDOF 9
ENDMDL
MODEL 6
REMARK VINA RESULT:      -7.3     15.976     21.102
REMARK  Name = 45361536
REMARK  12 active torsions:
REMARK  status: ('A' for Active; 'I' for Inactive)
REMARK    1  A    between atoms: O_1  and  C_11
REMARK    2  A    between atoms: O_4  and  C_24
REMARK    3  A    between atoms: O_4  and  C_27
REMARK    4  A    between atoms: N_5  and  C_15
REMARK    5  A    between atoms: N_6  and  C_25
REMARK    6  A    between atoms: C_8  and  C_18
REMARK    7  A    between atoms: C_10  and  C_20
REMARK    8  A    between atoms: C_14  and  C_19
REMARK    9  A    between atoms: C_19  and  C_21
REMARK   10  A    between atoms: C_19  and  C_22
REMARK   11  A    between atoms: C_23  and  C_24
REMARK   12  A    between atoms: C_25  and  C_26
REMARK                            x       y       z     vdW  Elec       q    Type
REMARK                         _______ _______ _______ _____ _____    ______ ____
ROOT
ATOM      8  C   UNL     1      14.021   4.933   0.651  0.00  0.00    -0.027 C 
ATOM      9  C   UNL     1      12.504   5.251   0.869  0.00  0.00    +0.028 C 
ATOM     10  C   UNL     1      12.193   5.469   2.393  0.00  0.00    +0.012 C 
ATOM     11  C   UNL     1      11.600   4.213   0.144  0.00  0.00    +0.122 C 
ATOM     12  C   UNL     1      14.315   4.836  -0.864  0.00  0.00    +0.007 C 
ATOM     13  C   UNL     1      14.867   6.093   1.221  0.00  0.00    +0.009 C 
ATOM     14  C   UNL     1      11.968   4.044  -1.349  0.00  0.00    +0.029 C 
ATOM     15  C   UNL     1      13.103   6.588   2.975  0.00  0.00    +0.076 C 
ATOM     16  C   UNL     1      13.459   3.792  -1.571  0.00  0.00    +0.007 C 
ATOM     17  C   UNL     1      14.588   6.371   2.692  0.00  0.00    +0.023 C 
ATOM     18  C   UNL     1      14.453   3.607   1.328  0.00  0.00    +0.011 C 
ATOM     20  C   UNL     1      10.721   5.815   2.677  0.00  0.00    +0.010 C 
ENDROOT
BRANCH  15   5
ATOM      3  O   UNL     1      13.027   9.058   4.478  0.00  0.00    -0.272 OA
ATOM      5  N   UNL     1      12.923   6.736   4.403  0.00  0.00    -0.309 N 
ATOM     23  C   UNL     1      12.902   7.969   5.033  0.00  0.00    +0.251 C 
ATOM     37  H   UNL     1      12.874   5.892   4.968  0.00  0.00    +0.149 HD
BRANCH  23  24
ATOM     24  C   UNL     1      12.700   7.828   6.527  0.00  0.00    +0.324 C 
BRANCH  24   4
ATOM      4  O   UNL     1      11.424   8.301   6.903  0.00  0.00    -0.483 OA
BRANCH   4  27
ATOM     27  C   UNL     1      10.334   7.625   6.410  0.00  0.00    +0.121 A 
ATOM     29  C   UNL     1       9.391   8.296   5.631  0.00  0.00    +0.045 A 
ATOM     30  C   UNL     1      10.170   6.268   6.688  0.00  0.00    +0.045 A 
ATOM     34  C   UNL     1       8.285   7.610   5.130  0.00  0.00    +0.004 A 
ATOM     35  C   UNL     1       9.063   5.582   6.187  0.00  0.00    +0.004 A 
ATOM     36  C   UNL     1       8.121   6.253   5.408  0.00  0.00    +0.000 A 
ENDBRANCH   4  27
ENDBRANCH  24   4
ENDBRANCH  23  24
ENDBRANCH  15   5
BRANCH  11   1
ATOM      1  O   UNL     1      10.242   4.654   0.182  0.00  0.00    -0.391 OA
ATOM     38  H   UNL     1       9.732   4.013   0.706  0.00  0.00    +0.210 HD
ENDBRANCH  11   1
BRANCH  14  19
ATOM     19  C   UNL     1      11.155   2.926  -2.012  0.00  0.00    +0.077 C 
ATOM     21  C   UNL     1      12.081   1.802  -2.466  0.00  0.00    +0.017 C 
BRANCH  19  22
ATOM      2  O   UNL     1      10.558   3.165  -4.347  0.00  0.00    -0.276 OA
ATOM      6  N   UNL     1       9.384   4.395  -2.771  0.00  0.00    -0.309 N 
ATOM     22  C   UNL     1      10.352   3.490  -3.181  0.00  0.00    +0.217 C 
ATOM     39  H   UNL     1       9.240   4.571  -1.782  0.00  0.00    +0.149 HD
BRANCH   6  25
ATOM     25  C   UNL     1       8.498   5.064  -3.696  0.00  0.00    +0.159 C 
BRANCH  25  26
ATOM      7  N   UNL     1       8.711   7.069  -2.340  0.00  0.00    -0.258 NA
ATOM     26  C   UNL     1       7.896   6.304  -3.100  0.00  0.00    +0.058 A 
ATOM     28  C   UNL     1       6.567   6.601  -3.352  0.00  0.00    +0.025 A 
ATOM     31  C   UNL     1       6.039   7.757  -2.787  0.00  0.00    +0.003 A 
ATOM     32  C   UNL     1       8.165   8.184  -1.807  0.00  0.00    +0.111 A 
ATOM     33  C   UNL     1       6.848   8.569  -1.998  0.00  0.00    +0.020 A 
ENDBRANCH  25  26
ENDBRANCH   6  25
ENDBRANCH  19  22
ENDBRANCH  14  19
TORSDOF 9
ENDMDL
MODEL 7
REMARK VINA RESULT:      -7.2     23.284     28.710
REMARK  Name = 45361536
REMARK  12 active torsions:
REMARK  status: ('A' for Active; 'I' for Inactive)
REMARK    1  A    between atoms: O_1  and  C_11
REMARK    2  A    between atoms: O_4  and  C_24
REMARK    3  A    between atoms: O_4  and  C_27
REMARK    4  A    between atoms: N_5  and  C_15
REMARK    5  A    between atoms: N_6  and  C_25
REMARK    6  A    between atoms: C_8  and  C_18
REMARK    7  A    between atoms: C_10  and  C_20
REMARK    8  A    between atoms: C_14  and  C_19
REMARK    9  A    between atoms: C_19  and  C_21
REMARK   10  A    between atoms: C_19  and  C_22
REMARK   11  A    between atoms: C_23  and  C_24
REMARK   12  A    between atoms: C_25  and  C_26
REMARK                            x       y       z     vdW  Elec       q    Type
REMARK                         _______ _______ _______ _____ _____    ______ ____
ROOT
ATOM      8  C   UNL     1      -1.111   6.759  39.414  0.00  0.00    -0.027 C 
ATOM      9  C   UNL     1      -2.542   7.371  39.585  0.00  0.00    +0.028 C 
ATOM     10  C   UNL     1      -2.587   8.846  39.048  0.00  0.00    +0.012 C 
ATOM     11  C   UNL     1      -3.072   7.170  41.034  0.00  0.00    +0.122 C 
ATOM     12  C   UNL     1      -1.130   5.274  39.847  0.00  0.00    +0.007 C 
ATOM     13  C   UNL     1      -0.716   6.809  37.921  0.00  0.00    +0.009 C 
ATOM     14  C   UNL     1      -2.991   5.698  41.499  0.00  0.00    +0.029 C 
ATOM     15  C   UNL     1      -2.115   8.895  37.567  0.00  0.00    +0.076 C 
ATOM     16  C   UNL     1      -1.611   5.078  41.279  0.00  0.00    +0.007 C 
ATOM     17  C   UNL     1      -0.767   8.214  37.336  0.00  0.00    +0.023 C 
ATOM     18  C   UNL     1      -0.042   7.507  40.250  0.00  0.00    +0.011 C 
ATOM     20  C   UNL     1      -3.974   9.500  39.159  0.00  0.00    +0.010 C 
ENDROOT
BRANCH  15   5
ATOM      3  O   UNL     1      -3.961  10.216  35.774  0.00  0.00    -0.272 OA
ATOM      5  N   UNL     1      -2.034  10.254  37.075  0.00  0.00    -0.309 N 
ATOM     23  C   UNL     1      -2.972  10.797  36.215  0.00  0.00    +0.251 C 
ATOM     37  H   UNL     1      -1.217  10.804  37.327  0.00  0.00    +0.149 HD
BRANCH  23  24
ATOM     24  C   UNL     1      -2.641  12.232  35.863  0.00  0.00    +0.324 C 
BRANCH  24   4
ATOM      4  O   UNL     1      -1.253  12.388  35.658  0.00  0.00    -0.483 OA
BRANCH   4  27
ATOM     27  C   UNL     1      -0.854  12.978  34.483  0.00  0.00    +0.121 A 
ATOM     29  C   UNL     1      -1.722  13.833  33.803  0.00  0.00    +0.045 A 
ATOM     30  C   UNL     1       0.417  12.723  33.970  0.00  0.00    +0.045 A 
ATOM     34  C   UNL     1      -1.318  14.432  32.610  0.00  0.00    +0.004 A 
ATOM     35  C   UNL     1       0.821  13.323  32.777  0.00  0.00    +0.004 A 
ATOM     36  C   UNL     1      -0.046  14.177  32.097  0.00  0.00    +0.000 A 
ENDBRANCH   4  27
ENDBRANCH  24   4
ENDBRANCH  23  24
ENDBRANCH  15   5
BRANCH  11   1
ATOM      1  O   UNL     1      -4.449   7.543  41.094  0.00  0.00    -0.391 OA
ATOM     38  H   UNL     1      -4.517   8.367  41.604  0.00  0.00    +0.210 HD
ENDBRANCH  11   1
BRANCH  14  19
ATOM     19  C   UNL     1      -3.394   5.543  42.971  0.00  0.00    +0.077 C 
ATOM     21  C   UNL     1      -2.352   4.715  43.715  0.00  0.00    +0.017 C 
BRANCH  19  22
ATOM      2  O   UNL     1      -4.961   3.696  42.999  0.00  0.00    -0.276 OA
ATOM      6  N   UNL     1      -5.783   5.852  43.233  0.00  0.00    -0.309 N 
ATOM     22  C   UNL     1      -4.779   4.909  43.067  0.00  0.00    +0.217 C 
ATOM     39  H   UNL     1      -5.546   6.833  43.334  0.00  0.00    +0.149 HD
BRANCH   6  25
ATOM     25  C   UNL     1      -7.178   5.495  43.348  0.00  0.00    +0.159 C 
BRANCH  25  26
ATOM      7  N   UNL     1      -7.462   7.513  42.025  0.00  0.00    -0.258 NA
ATOM     26  C   UNL     1      -8.065   6.450  42.601  0.00  0.00    +0.058 A 
ATOM     28  C   UNL     1      -9.426   6.202  42.538  0.00  0.00    +0.025 A 
ATOM     31  C   UNL     1     -10.220   7.104  41.838  0.00  0.00    +0.003 A 
ATOM     32  C   UNL     1      -8.264   8.369  41.353  0.00  0.00    +0.111 A 
ATOM     33  C   UNL     1      -9.635   8.211  41.231  0.00  0.00    +0.020 A 
ENDBRANCH  25  26
ENDBRANCH   6  25
ENDBRANCH  19  22
ENDBRANCH  14  19
TORSDOF 9
ENDMDL
MODEL 8
REMARK VINA RESULT:      -7.2     27.669     31.815
REMARK  Name = 45361536
REMARK  12 active torsions:
REMARK  status: ('A' for Active; 'I' for Inactive)
REMARK    1  A    between atoms: O_1  and  C_11
REMARK    2  A    between atoms: O_4  and  C_24
REMARK    3  A    between atoms: O_4  and  C_27
REMARK    4  A    between atoms: N_5  and  C_15
REMARK    5  A    between atoms: N_6  and  C_25
REMARK    6  A    between atoms: C_8  and  C_18
REMARK    7  A    between atoms: C_10  and  C_20
REMARK    8  A    between atoms: C_14  and  C_19
REMARK    9  A    between atoms: C_19  and  C_21
REMARK   10  A    between atoms: C_19  and  C_22
REMARK   11  A    between atoms: C_23  and  C_24
REMARK   12  A    between atoms: C_25  and  C_26
REMARK                            x       y       z     vdW  Elec       q    Type
REMARK                         _______ _______ _______ _____ _____    ______ ____
ROOT
ATOM      8  C   UNL     1      -5.306 -10.399   9.476  0.00  0.00    -0.027 C 
ATOM      9  C   UNL     1      -5.996 -10.294  10.878  0.00  0.00    +0.028 C 
ATOM     10  C   UNL     1      -7.252  -9.354  10.814  0.00  0.00    +0.012 C 
ATOM     11  C   UNL     1      -4.963  -9.955  11.990  0.00  0.00    +0.122 C 
ATOM     12  C   UNL     1      -4.144 -11.417   9.548  0.00  0.00    +0.007 C 
ATOM     13  C   UNL     1      -6.332 -10.926   8.448  0.00  0.00    +0.009 C 
ATOM     14  C   UNL     1      -3.750 -10.916  11.990  0.00  0.00    +0.029 C 
ATOM     15  C   UNL     1      -8.243  -9.852   9.723  0.00  0.00    +0.076 C 
ATOM     16  C   UNL     1      -3.111 -11.066  10.610  0.00  0.00    +0.007 C 
ATOM     17  C   UNL     1      -7.587 -10.069   8.360  0.00  0.00    +0.023 C 
ATOM     18  C   UNL     1      -4.747  -9.039   8.987  0.00  0.00    +0.011 C 
ATOM     20  C   UNL     1      -7.996  -9.229  12.154  0.00  0.00    +0.010 C 
ENDROOT
BRANCH  15   5
ATOM      3  O   UNL     1     -11.002 -10.549   9.206  0.00  0.00    -0.272 OA
ATOM      5  N   UNL     1      -9.357  -8.943   9.557  0.00  0.00    -0.309 N 
ATOM     23  C   UNL     1     -10.648  -9.377   9.311  0.00  0.00    +0.251 C 
ATOM     37  H   UNL     1      -9.164  -7.945   9.561  0.00  0.00    +0.149 HD
BRANCH  23  24
ATOM     24  C   UNL     1     -11.612  -8.217   9.181  0.00  0.00    +0.324 C 
BRANCH  24   4
ATOM      4  O   UNL     1     -11.530  -7.372  10.309  0.00  0.00    -0.483 OA
BRANCH   4  27
ATOM     27  C   UNL     1     -11.427  -6.021  10.076  0.00  0.00    +0.121 A 
ATOM     29  C   UNL     1     -10.582  -5.550   9.071  0.00  0.00    +0.045 A 
ATOM     30  C   UNL     1     -12.168  -5.123  10.843  0.00  0.00    +0.045 A 
ATOM     34  C   UNL     1     -10.477  -4.179   8.835  0.00  0.00    +0.004 A 
ATOM     35  C   UNL     1     -12.064  -3.752  10.606  0.00  0.00    +0.004 A 
ATOM     36  C   UNL     1     -11.218  -3.280   9.601  0.00  0.00    +0.000 A 
ENDBRANCH   4  27
ENDBRANCH  24   4
ENDBRANCH  23  24
ENDBRANCH  15   5
BRANCH  11   1
ATOM      1  O   UNL     1      -5.582 -10.081  13.271  0.00  0.00    -0.391 OA
ATOM     38  H   UNL     1      -5.549 -11.017  13.532  0.00  0.00    +0.210 HD
ENDBRANCH  11   1
BRANCH  14  19
ATOM     19  C   UNL     1      -2.684 -10.486  13.005  0.00  0.00    +0.077 C 
ATOM     21  C   UNL     1      -1.291 -10.748  12.445  0.00  0.00    +0.017 C 
BRANCH  19  22
ATOM      2  O   UNL     1      -2.811 -12.441  14.430  0.00  0.00    -0.276 OA
ATOM      6  N   UNL     1      -3.203 -10.358  15.369  0.00  0.00    -0.309 N 
ATOM     22  C   UNL     1      -2.899 -11.220  14.326  0.00  0.00    +0.217 C 
ATOM     39  H   UNL     1      -3.205  -9.355  15.214  0.00  0.00    +0.149 HD
BRANCH   6  25
ATOM     25  C   UNL     1      -3.450 -10.817  16.716  0.00  0.00    +0.159 C 
BRANCH  25  26
ATOM      7  N   UNL     1      -5.634  -9.840  16.293  0.00  0.00    -0.258 NA
ATOM     26  C   UNL     1      -4.837 -10.478  17.179  0.00  0.00    +0.058 A 
ATOM     28  C   UNL     1      -5.229 -10.827  18.462  0.00  0.00    +0.025 A 
ATOM     31  C   UNL     1      -6.520 -10.500  18.860  0.00  0.00    +0.003 A 
ATOM     32  C   UNL     1      -6.882  -9.538  16.714  0.00  0.00    +0.111 A 
ATOM     33  C   UNL     1      -7.369  -9.843  17.975  0.00  0.00    +0.020 A 
ENDBRANCH  25  26
ENDBRANCH   6  25
ENDBRANCH  19  22
ENDBRANCH  14  19
TORSDOF 9
ENDMDL
MODEL 9
REMARK VINA RESULT:      -7.2     13.885     15.286
REMARK  Name = 45361536
REMARK  12 active torsions:
REMARK  status: ('A' for Active; 'I' for Inactive)
REMARK    1  A    between atoms: O_1  and  C_11
REMARK    2  A    between atoms: O_4  and  C_24
REMARK    3  A    between atoms: O_4  and  C_27
REMARK    4  A    between atoms: N_5  and  C_15
REMARK    5  A    between atoms: N_6  and  C_25
REMARK    6  A    between atoms: C_8  and  C_18
REMARK    7  A    between atoms: C_10  and  C_20
REMARK    8  A    between atoms: C_14  and  C_19
REMARK    9  A    between atoms: C_19  and  C_21
REMARK   10  A    between atoms: C_19  and  C_22
REMARK   11  A    between atoms: C_23  and  C_24
REMARK   12  A    between atoms: C_25  and  C_26
REMARK                            x       y       z     vdW  Elec       q    Type
REMARK                         _______ _______ _______ _____ _____    ______ ____
ROOT
ATOM      8  C   UNL     1      11.383   9.563   6.823  0.00  0.00    -0.027 C 
ATOM      9  C   UNL     1      12.283   8.319   7.130  0.00  0.00    +0.028 C 
ATOM     10  C   UNL     1      13.616   8.377   6.302  0.00  0.00    +0.012 C 
ATOM     11  C   UNL     1      11.477   6.995   7.007  0.00  0.00    +0.122 C 
ATOM     12  C   UNL     1      10.134   9.533   7.735  0.00  0.00    +0.007 C 
ATOM     13  C   UNL     1      12.173  10.850   7.148  0.00  0.00    +0.009 C 
ATOM     14  C   UNL     1      10.174   7.012   7.842  0.00  0.00    +0.029 C 
ATOM     15  C   UNL     1      14.366   9.711   6.579  0.00  0.00    +0.076 C 
ATOM     16  C   UNL     1       9.320   8.254   7.589  0.00  0.00    +0.007 C 
ATOM     17  C   UNL     1      13.491  10.950   6.393  0.00  0.00    +0.023 C 
ATOM     18  C   UNL     1      10.918   9.608   5.345  0.00  0.00    +0.011 C 
ATOM     20  C   UNL     1      14.564   7.197   6.577  0.00  0.00    +0.010 C 
ENDROOT
BRANCH  15   5
ATOM      3  O   UNL     1      16.778  11.187   7.189  0.00  0.00    -0.272 OA
ATOM      5  N   UNL     1      15.541   9.848   5.745  0.00  0.00    -0.309 N 
ATOM     23  C   UNL     1      16.651  10.581   6.128  0.00  0.00    +0.251 C 
ATOM     37  H   UNL     1      15.517   9.438   4.815  0.00  0.00    +0.149 HD
BRANCH  23  24
ATOM     24  C   UNL     1      17.730  10.556   5.067  0.00  0.00    +0.324 C 
BRANCH  24   4
ATOM      4  O   UNL     1      17.899   9.249   4.560  0.00  0.00    -0.483 OA
BRANCH   4  27
ATOM     27  C   UNL     1      19.037   8.573   4.934  0.00  0.00    +0.121 A 
ATOM     29  C   UNL     1      19.561   8.747   6.215  0.00  0.00    +0.045 A 
ATOM     30  C   UNL     1      19.666   7.714   4.033  0.00  0.00    +0.045 A 
ATOM     34  C   UNL     1      20.715   8.062   6.594  0.00  0.00    +0.004 A 
ATOM     35  C   UNL     1      20.819   7.028   4.414  0.00  0.00    +0.004 A 
ATOM     36  C   UNL     1      21.344   7.202   5.695  0.00  0.00    +0.000 A 
ENDBRANCH   4  27
ENDBRANCH  24   4
ENDBRANCH  23  24
ENDBRANCH  15   5
BRANCH  11   1
ATOM      1  O   UNL     1      12.263   5.909   7.501  0.00  0.00    -0.391 OA
ATOM     38  H   UNL     1      13.199   6.116   7.338  0.00  0.00    +0.210 HD
ENDBRANCH  11   1
BRANCH  14  19
ATOM     19  C   UNL     1       9.331   5.753   7.605  0.00  0.00    +0.077 C 
ATOM     21  C   UNL     1       9.983   4.550   8.278  0.00  0.00    +0.017 C 
BRANCH  19  22
ATOM      2  O   UNL     1       8.232   6.021   5.464  0.00  0.00    -0.276 OA
ATOM      6  N   UNL     1      10.131   4.694   5.577  0.00  0.00    -0.309 N 
ATOM     22  C   UNL     1       9.151   5.521   6.108  0.00  0.00    +0.217 C 
ATOM     39  H   UNL     1      10.889   4.364   6.165  0.00  0.00    +0.149 HD
BRANCH   6  25
ATOM     25  C   UNL     1      10.171   4.328   4.180  0.00  0.00    +0.159 C 
BRANCH  25  26
ATOM      7  N   UNL     1      11.891   4.313   2.464  0.00  0.00    -0.258 NA
ATOM     26  C   UNL     1      11.293   5.014   3.453  0.00  0.00    +0.058 A 
ATOM     28  C   UNL     1      11.653   6.300   3.819  0.00  0.00    +0.025 A 
ATOM     31  C   UNL     1      12.694   6.907   3.125  0.00  0.00    +0.003 A 
ATOM     32  C   UNL     1      12.899   4.935   1.811  0.00  0.00    +0.111 A 
ATOM     33  C   UNL     1      13.334   6.217   2.100  0.00  0.00    +0.020 A 
ENDBRANCH  25  26
ENDBRANCH   6  25
ENDBRANCH  19  22
ENDBRANCH  14  19
TORSDOF 9
ENDMDL
MODEL 10
REMARK VINA RESULT:      -7.2     28.270     31.513
REMARK  Name = 45361536
REMARK  12 active torsions:
REMARK  status: ('A' for Active; 'I' for Inactive)
REMARK    1  A    between atoms: O_1  and  C_11
REMARK    2  A    between atoms: O_4  and  C_24
REMARK    3  A    between atoms: O_4  and  C_27
REMARK    4  A    between atoms: N_5  and  C_15
REMARK    5  A    between atoms: N_6  and  C_25
REMARK    6  A    between atoms: C_8  and  C_18
REMARK    7  A    between atoms: C_10  and  C_20
REMARK    8  A    between atoms: C_14  and  C_19
REMARK    9  A    between atoms: C_19  and  C_21
REMARK   10  A    between atoms: C_19  and  C_22
REMARK   11  A    between atoms: C_23  and  C_24
REMARK   12  A    between atoms: C_25  and  C_26
REMARK                            x       y       z     vdW  Elec       q    Type
REMARK                         _______ _______ _______ _____ _____    ______ ____
ROOT
ATOM      8  C   UNL     1      -4.647 -11.327  17.151  0.00  0.00    -0.027 C 
ATOM      9  C   UNL     1      -5.715 -10.574  16.288  0.00  0.00    +0.028 C 
ATOM     10  C   UNL     1      -7.139 -10.686  16.940  0.00  0.00    +0.012 C 
ATOM     11  C   UNL     1      -5.629 -10.993  14.793  0.00  0.00    +0.122 C 
ATOM     12  C   UNL     1      -3.242 -11.102  16.544  0.00  0.00    +0.007 C 
ATOM     13  C   UNL     1      -4.643 -10.736  18.578  0.00  0.00    +0.009 C 
ATOM     14  C   UNL     1      -4.198 -10.865  14.220  0.00  0.00    +0.029 C 
ATOM     15  C   UNL     1      -7.106 -10.157  18.402  0.00  0.00    +0.076 C 
ATOM     16  C   UNL     1      -3.144 -11.548  15.091  0.00  0.00    +0.007 C 
ATOM     17  C   UNL     1      -6.006 -10.792  19.253  0.00  0.00    +0.023 C 
ATOM     18  C   UNL     1      -4.916 -12.851  17.231  0.00  0.00    +0.011 C 
ATOM     20  C   UNL     1      -8.234  -9.943  16.158  0.00  0.00    +0.010 C 
ENDROOT
BRANCH  15   5
ATOM      3  O   UNL     1      -8.275 -12.671  19.229  0.00  0.00    -0.272 OA
ATOM      5  N   UNL     1      -8.375 -10.353  19.071  0.00  0.00    -0.309 N 
ATOM     23  C   UNL     1      -8.850 -11.603  19.427  0.00  0.00    +0.251 C 
ATOM     37  H   UNL     1      -8.963  -9.538  19.226  0.00  0.00    +0.149 HD
BRANCH  23  24
ATOM     24  C   UNL     1     -10.198 -11.514  20.111  0.00  0.00    +0.324 C 
BRANCH  24   4
ATOM      4  O   UNL     1     -10.641 -10.174  20.166  0.00  0.00    -0.483 OA
BRANCH   4  27
ATOM     27  C   UNL     1     -11.949  -9.931  19.822  0.00  0.00    +0.121 A 
ATOM     29  C   UNL     1     -12.925  -9.834  20.814  0.00  0.00    +0.045 A 
ATOM     30  C   UNL     1     -12.301  -9.782  18.480  0.00  0.00    +0.045 A 
ATOM     34  C   UNL     1     -14.252  -9.587  20.465  0.00  0.00    +0.004 A 
ATOM     35  C   UNL     1     -13.629  -9.535  18.132  0.00  0.00    +0.004 A 
ATOM     36  C   UNL     1     -14.604  -9.438  19.124  0.00  0.00    +0.000 A 
ENDBRANCH   4  27
ENDBRANCH  24   4
ENDBRANCH  23  24
ENDBRANCH  15   5
BRANCH  11   1
ATOM      1  O   UNL     1      -6.461 -10.136  14.009  0.00  0.00    -0.391 OA
ATOM     38  H   UNL     1      -6.136  -9.226  14.110  0.00  0.00    +0.210 HD
ENDBRANCH  11   1
BRANCH  14  19
ATOM     19  C   UNL     1      -4.108 -11.404  12.787  0.00  0.00    +0.077 C 
ATOM     21  C   UNL     1      -3.066 -12.514  12.709  0.00  0.00    +0.017 C 
BRANCH  19  22
ATOM      2  O   UNL     1      -2.634  -9.987  11.491  0.00  0.00    -0.276 OA
ATOM      6  N   UNL     1      -4.918  -9.604  11.381  0.00  0.00    -0.309 N 
ATOM     22  C   UNL     1      -3.783 -10.267  11.823  0.00  0.00    +0.217 C 
ATOM     39  H   UNL     1      -5.837  -9.931  11.660  0.00  0.00    +0.149 HD
BRANCH   6  25
ATOM     25  C   UNL     1      -4.865  -8.491  10.462  0.00  0.00    +0.159 C 
BRANCH  25  26
ATOM      7  N   UNL     1      -4.960  -9.602   8.303  0.00  0.00    -0.258 NA
ATOM     26  C   UNL     1      -5.589  -8.787   9.179  0.00  0.00    +0.058 A 
ATOM     28  C   UNL     1      -6.836  -8.226   8.959  0.00  0.00    +0.025 A 
ATOM     31  C   UNL     1      -7.480  -8.520   7.762  0.00  0.00    +0.003 A 
ATOM     32  C   UNL     1      -5.616  -9.866   7.151  0.00  0.00    +0.111 A 
ATOM     33  C   UNL     1      -6.864  -9.355   6.836  0.00  0.00    +0.020 A 
ENDBRANCH  25  26
ENDBRANCH   6  25
ENDBRANCH  19  22
ENDBRANCH  14  19
TORSDOF 9
ENDMDL
