MODEL 1
REMARK VINA RESULT:      -6.5      0.000      0.000
REMARK  Name = 28961236
REMARK  10 active torsions:
REMARK  status: ('A' for Active; 'I' for Inactive)
REMARK    1  A    between atoms: O_4  and  C_10
REMARK    2  A    between atoms: O_5  and  C_17
REMARK    3  A    between atoms: N_6  and  C_8
REMARK    4  A    between atoms: N_7  and  C_14
REMARK    5  A    between atoms: N_7  and  C_18
REMARK    6  A    between atoms: N_7  and  C_19
REMARK    7  A    between atoms: C_9  and  C_14
REMARK    8  A    between atoms: C_11  and  C_17
REMARK    9  A    between atoms: C_18  and  C_20
REMARK   10  A    between atoms: C_19  and  C_21
REMARK                            x       y       z     vdW  Elec       q    Type
REMARK                         _______ _______ _______ _____ _____    ______ ____
ROOT
ATOM      7  N   UNL     1      12.748   8.407  20.842  0.00  0.00    -0.291 NA
ENDROOT
BRANCH   7  14
ATOM     14  C   UNL     1      12.588   9.123  22.099  0.00  0.00    +0.118 C 
BRANCH  14   9
ATOM      3  O   UNL     1      11.574  11.181  22.773  0.00  0.00    -0.366 OA
ATOM      8  C   UNL     1      13.859  11.394  22.138  0.00  0.00    +0.118 C 
ATOM      9  C   UNL     1      12.556  10.629  21.868  0.00  0.00    +0.152 C 
ATOM     10  C   UNL     1      13.697  11.846  23.582  0.00  0.00    +0.165 C 
ATOM     11  C   UNL     1      12.207  12.167  23.611  0.00  0.00    +0.174 C 
BRANCH   8   6
ATOM      6  N   UNL     1      15.095  10.684  21.846  0.00  0.00    -0.295 NA
ATOM     12  C   UNL     1      15.428  10.707  20.422  0.00  0.00    +0.085 C 
ATOM     13  C   UNL     1      16.251  11.275  22.517  0.00  0.00    +0.085 C 
ATOM     15  C   UNL     1      16.888  10.278  20.406  0.00  0.00    +0.017 C 
ATOM     16  C   UNL     1      17.428  10.648  21.784  0.00  0.00    +0.017 C 
ENDBRANCH   8   6
BRANCH  10   4
ATOM      4  O   UNL     1      13.995  10.796  24.493  0.00  0.00    -0.388 OA
ATOM     32  H   UNL     1      13.212  10.661  25.053  0.00  0.00    +0.210 HD
ENDBRANCH  10   4
BRANCH  11  17
ATOM     17  C   UNL     1      11.561  12.146  24.984  0.00  0.00    +0.190 C 
BRANCH  17   5
ATOM      5  O   UNL     1      11.300  10.800  25.347  0.00  0.00    -0.392 OA
ATOM     33  H   UNL     1      11.208  10.294  24.522  0.00  0.00    +0.210 HD
ENDBRANCH  17   5
ENDBRANCH  11  17
ENDBRANCH  14   9
ENDBRANCH   7  14
BRANCH   7  18
ATOM     18  C   UNL     1      13.205   7.036  21.080  0.00  0.00    +0.120 C 
BRANCH  18  20
ATOM      1  F   UNL     1      18.608   6.347  19.634  0.00  0.00    -0.205 F 
ATOM     20  C   UNL     1      14.648   6.851  20.694  0.00  0.00    -0.033 A 
ATOM     22  C   UNL     1      15.642   6.885  21.672  0.00  0.00    +0.008 A 
ATOM     24  C   UNL     1      14.993   6.648  19.357  0.00  0.00    +0.008 A 
ATOM     26  C   UNL     1      16.979   6.715  21.314  0.00  0.00    +0.038 A 
ATOM     28  C   UNL     1      16.330   6.477  18.999  0.00  0.00    +0.038 A 
ATOM     30  C   UNL     1      17.324   6.511  19.979  0.00  0.00    +0.123 A 
ENDBRANCH  18  20
ENDBRANCH   7  18
BRANCH   7  19
ATOM     19  C   UNL     1      11.492   8.397  20.087  0.00  0.00    +0.120 C 
BRANCH  19  21
ATOM      2  F   UNL     1      12.266   9.905  14.714  0.00  0.00    -0.205 F 
ATOM     21  C   UNL     1      11.698   8.799  18.651  0.00  0.00    -0.033 A 
ATOM     23  C   UNL     1      12.868   9.461  18.274  0.00  0.00    +0.008 A 
ATOM     25  C   UNL     1      10.722   8.512  17.698  0.00  0.00    +0.008 A 
ATOM     27  C   UNL     1      13.059   9.835  16.943  0.00  0.00    +0.038 A 
ATOM     29  C   UNL     1      10.914   8.886  16.368  0.00  0.00    +0.038 A 
ATOM     31  C   UNL     1      12.082   9.547  15.991  0.00  0.00    +0.123 A 
ENDBRANCH  19  21
ENDBRANCH   7  19
TORSDOF 10
ENDMDL
MODEL 2
REMARK VINA RESULT:      -6.3      1.922      5.563
REMARK  Name = 28961236
REMARK  10 active torsions:
REMARK  status: ('A' for Active; 'I' for Inactive)
REMARK    1  A    between atoms: O_4  and  C_10
REMARK    2  A    between atoms: O_5  and  C_17
REMARK    3  A    between atoms: N_6  and  C_8
REMARK    4  A    between atoms: N_7  and  C_14
REMARK    5  A    between atoms: N_7  and  C_18
REMARK    6  A    between atoms: N_7  and  C_19
REMARK    7  A    between atoms: C_9  and  C_14
REMARK    8  A    between atoms: C_11  and  C_17
REMARK    9  A    between atoms: C_18  and  C_20
REMARK   10  A    between atoms: C_19  and  C_21
REMARK                            x       y       z     vdW  Elec       q    Type
REMARK                         _______ _______ _______ _____ _____    ______ ____
ROOT
ATOM      7  N   UNL     1      14.525   9.998  20.682  0.00  0.00    -0.291 NA
ENDROOT
BRANCH   7  14
ATOM     14  C   UNL     1      13.796  11.042  21.386  0.00  0.00    +0.118 C 
BRANCH  14   9
ATOM      3  O   UNL     1      12.077   9.877  20.201  0.00  0.00    -0.366 OA
ATOM      8  C   UNL     1      11.276  11.181  22.026  0.00  0.00    +0.118 C 
ATOM      9  C   UNL     1      12.344  11.098  20.927  0.00  0.00    +0.152 C 
ATOM     10  C   UNL     1      10.905   9.723  22.252  0.00  0.00    +0.165 C 
ATOM     11  C   UNL     1      10.976   9.189  20.826  0.00  0.00    +0.174 C 
BRANCH   8   6
ATOM      6  N   UNL     1      11.643  11.921  23.224  0.00  0.00    -0.295 NA
ATOM     12  C   UNL     1      11.609  13.368  23.018  0.00  0.00    +0.085 C 
ATOM     13  C   UNL     1      10.725  11.674  24.335  0.00  0.00    +0.085 C 
ATOM     15  C   UNL     1      11.629  13.917  24.437  0.00  0.00    +0.017 C 
ATOM     16  C   UNL     1      11.053  12.801  25.303  0.00  0.00    +0.017 C 
ENDBRANCH   8   6
BRANCH  10   4
ATOM      4  O   UNL     1      11.859   9.064  23.075  0.00  0.00    -0.388 OA
ATOM     32  H   UNL     1      12.673   8.957  22.555  0.00  0.00    +0.210 HD
ENDBRANCH  10   4
BRANCH  11  17
ATOM     17  C   UNL     1      11.184   7.691  20.699  0.00  0.00    +0.190 C 
BRANCH  17   5
ATOM      5  O   UNL     1      10.162   7.023  21.421  0.00  0.00    -0.392 OA
ATOM     33  H   UNL     1       9.343   7.531  21.293  0.00  0.00    +0.210 HD
ENDBRANCH  17   5
ENDBRANCH  11  17
ENDBRANCH  14   9
ENDBRANCH   7  14
BRANCH   7  18
ATOM     18  C   UNL     1      15.546  10.579  19.806  0.00  0.00    +0.120 C 
BRANCH  18  20
ATOM      1  F   UNL     1      13.640  11.301  14.552  0.00  0.00    -0.205 F 
ATOM     20  C   UNL     1      15.037  10.773  18.403  0.00  0.00    -0.033 A 
ATOM     22  C   UNL     1      14.436   9.711  17.727  0.00  0.00    +0.008 A 
ATOM     24  C   UNL     1      15.166  12.013  17.777  0.00  0.00    +0.008 A 
ATOM     26  C   UNL     1      13.964   9.889  16.427  0.00  0.00    +0.038 A 
ATOM     28  C   UNL     1      14.694  12.192  16.477  0.00  0.00    +0.038 A 
ATOM     30  C   UNL     1      14.093  11.129  15.801  0.00  0.00    +0.123 A 
ENDBRANCH  18  20
ENDBRANCH   7  18
BRANCH   7  19
ATOM     19  C   UNL     1      15.143   9.067  21.629  0.00  0.00    +0.120 C 
BRANCH  19  21
ATOM      2  F   UNL     1      18.261   5.172  19.011  0.00  0.00    -0.205 F 
ATOM     21  C   UNL     1      15.976   8.026  20.929  0.00  0.00    -0.033 A 
ATOM     23  C   UNL     1      17.334   7.904  21.227  0.00  0.00    +0.008 A 
ATOM     25  C   UNL     1      15.391   7.183  19.985  0.00  0.00    +0.008 A 
ATOM     27  C   UNL     1      18.106   6.940  20.578  0.00  0.00    +0.038 A 
ATOM     29  C   UNL     1      16.163   6.219  19.337  0.00  0.00    +0.038 A 
ATOM     31  C   UNL     1      17.520   6.098  19.632  0.00  0.00    +0.123 A 
ENDBRANCH  19  21
ENDBRANCH   7  19
TORSDOF 10
ENDMDL
MODEL 3
REMARK VINA RESULT:      -6.3      3.433      6.372
REMARK  Name = 28961236
REMARK  10 active torsions:
REMARK  status: ('A' for Active; 'I' for Inactive)
REMARK    1  A    between atoms: O_4  and  C_10
REMARK    2  A    between atoms: O_5  and  C_17
REMARK    3  A    between atoms: N_6  and  C_8
REMARK    4  A    between atoms: N_7  and  C_14
REMARK    5  A    between atoms: N_7  and  C_18
REMARK    6  A    between atoms: N_7  and  C_19
REMARK    7  A    between atoms: C_9  and  C_14
REMARK    8  A    between atoms: C_11  and  C_17
REMARK    9  A    between atoms: C_18  and  C_20
REMARK   10  A    between atoms: C_19  and  C_21
REMARK                            x       y       z     vdW  Elec       q    Type
REMARK                         _______ _______ _______ _____ _____    ______ ____
ROOT
ATOM      7  N   UNL     1      12.806   8.682  18.557  0.00  0.00    -0.291 NA
ENDROOT
BRANCH   7  14
ATOM     14  C   UNL     1      12.830   9.479  17.339  0.00  0.00    +0.118 C 
BRANCH  14   9
ATOM      3  O   UNL     1      14.185   9.924  15.421  0.00  0.00    -0.366 OA
ATOM      8  C   UNL     1      15.047  10.839  17.443  0.00  0.00    +0.118 C 
ATOM      9  C   UNL     1      14.257   9.669  16.841  0.00  0.00    +0.152 C 
ATOM     10  C   UNL     1      14.797  11.965  16.451  0.00  0.00    +0.165 C 
ATOM     11  C   UNL     1      14.808  11.192  15.138  0.00  0.00    +0.174 C 
BRANCH   8   6
ATOM      6  N   UNL     1      14.760  11.162  18.833  0.00  0.00    -0.295 NA
ATOM     12  C   UNL     1      15.621  10.434  19.764  0.00  0.00    +0.085 C 
ATOM     13  C   UNL     1      14.981  12.574  19.136  0.00  0.00    +0.085 C 
ATOM     15  C   UNL     1      15.430  11.191  21.070  0.00  0.00    +0.017 C 
ATOM     16  C   UNL     1      15.005  12.597  20.657  0.00  0.00    +0.017 C 
ENDBRANCH   8   6
BRANCH  10   4
ATOM      4  O   UNL     1      13.527  12.571  16.658  0.00  0.00    -0.388 OA
ATOM     32  H   UNL     1      12.853  11.976  16.289  0.00  0.00    +0.210 HD
ENDBRANCH  10   4
BRANCH  11  17
ATOM     17  C   UNL     1      14.086  11.858  13.981  0.00  0.00    +0.190 C 
BRANCH  17   5
ATOM      5  O   UNL     1      12.713  11.506  14.035  0.00  0.00    -0.392 OA
ATOM     33  H   UNL     1      12.224  12.184  13.539  0.00  0.00    +0.210 HD
ENDBRANCH  17   5
ENDBRANCH  11  17
ENDBRANCH  14   9
ENDBRANCH   7  14
BRANCH   7  18
ATOM     18  C   UNL     1      11.439   8.559  19.070  0.00  0.00    +0.120 C 
BRANCH  18  20
ATOM      1  F   UNL     1      11.009  10.451  24.361  0.00  0.00    -0.205 F 
ATOM     20  C   UNL     1      11.323   9.065  20.483  0.00  0.00    -0.033 A 
ATOM     22  C   UNL     1      11.778  10.343  20.806  0.00  0.00    +0.008 A 
ATOM     24  C   UNL     1      10.763   8.254  21.471  0.00  0.00    +0.008 A 
ATOM     26  C   UNL     1      11.672  10.811  22.115  0.00  0.00    +0.038 A 
ATOM     28  C   UNL     1      10.656   8.723  22.781  0.00  0.00    +0.038 A 
ATOM     30  C   UNL     1      11.111  10.002  23.103  0.00  0.00    +0.123 A 
ENDBRANCH  18  20
ENDBRANCH   7  18
BRANCH   7  19
ATOM     19  C   UNL     1      13.377   7.353  18.319  0.00  0.00    +0.120 C 
BRANCH  19  21
ATOM      2  F   UNL     1      17.718   6.291  21.750  0.00  0.00    -0.205 F 
ATOM     21  C   UNL     1      14.537   7.070  19.237  0.00  0.00    -0.033 A 
ATOM     23  C   UNL     1      15.775   6.712  18.703  0.00  0.00    +0.008 A 
ATOM     25  C   UNL     1      14.374   7.165  20.618  0.00  0.00    +0.008 A 
ATOM     27  C   UNL     1      16.851   6.449  19.553  0.00  0.00    +0.038 A 
ATOM     29  C   UNL     1      15.448   6.901  21.467  0.00  0.00    +0.038 A 
ATOM     31  C   UNL     1      16.687   6.543  20.935  0.00  0.00    +0.123 A 
ENDBRANCH  19  21
ENDBRANCH   7  19
TORSDOF 10
ENDMDL
MODEL 4
REMARK VINA RESULT:      -6.0     27.167     29.377
REMARK  Name = 28961236
REMARK  10 active torsions:
REMARK  status: ('A' for Active; 'I' for Inactive)
REMARK    1  A    between atoms: O_4  and  C_10
REMARK    2  A    between atoms: O_5  and  C_17
REMARK    3  A    between atoms: N_6  and  C_8
REMARK    4  A    between atoms: N_7  and  C_14
REMARK    5  A    between atoms: N_7  and  C_18
REMARK    6  A    between atoms: N_7  and  C_19
REMARK    7  A    between atoms: C_9  and  C_14
REMARK    8  A    between atoms: C_11  and  C_17
REMARK    9  A    between atoms: C_18  and  C_20
REMARK   10  A    between atoms: C_19  and  C_21
REMARK                            x       y       z     vdW  Elec       q    Type
REMARK                         _______ _______ _______ _____ _____    ______ ____
ROOT
ATOM      7  N   UNL     1      -2.815 -11.370  14.295  0.00  0.00    -0.291 NA
ENDROOT
BRANCH   7  14
ATOM     14  C   UNL     1      -2.405 -12.757  14.459  0.00  0.00    +0.118 C 
BRANCH  14   9
ATOM      3  O   UNL     1      -1.968 -14.186  12.593  0.00  0.00    -0.366 OA
ATOM      8  C   UNL     1      -3.850 -14.847  13.893  0.00  0.00    +0.118 C 
ATOM      9  C   UNL     1      -3.040 -13.642  13.394  0.00  0.00    +0.152 C 
ATOM     10  C   UNL     1      -2.827 -15.972  13.888  0.00  0.00    +0.165 C 
ATOM     11  C   UNL     1      -2.033 -15.625  12.634  0.00  0.00    +0.174 C 
BRANCH   8   6
ATOM      6  N   UNL     1      -4.565 -14.665  15.148  0.00  0.00    -0.295 NA
ATOM     12  C   UNL     1      -5.610 -13.646  15.052  0.00  0.00    +0.085 C 
ATOM     13  C   UNL     1      -5.258 -15.879  15.576  0.00  0.00    +0.085 C 
ATOM     15  C   UNL     1      -6.451 -13.900  16.294  0.00  0.00    +0.017 C 
ATOM     16  C   UNL     1      -6.216 -15.367  16.641  0.00  0.00    +0.017 C 
ENDBRANCH   8   6
BRANCH  10   4
ATOM      4  O   UNL     1      -1.988 -15.920  15.035  0.00  0.00    -0.388 OA
ATOM     32  H   UNL     1      -1.104 -16.222  14.768  0.00  0.00    +0.210 HD
ENDBRANCH  10   4
BRANCH  11  17
ATOM     17  C   UNL     1      -0.626 -16.192  12.573  0.00  0.00    +0.190 C 
BRANCH  17   5
ATOM      5  O   UNL     1       0.286 -15.202  13.021  0.00  0.00    -0.392 OA
ATOM     33  H   UNL     1       0.363 -15.299  13.985  0.00  0.00    +0.210 HD
ENDBRANCH  17   5
ENDBRANCH  11  17
ENDBRANCH  14   9
ENDBRANCH   7  14
BRANCH   7  18
ATOM     18  C   UNL     1      -2.616 -10.620  15.538  0.00  0.00    +0.120 C 
BRANCH  18  20
ATOM      1  F   UNL     1      -7.251 -10.598  18.742  0.00  0.00    -0.205 F 
ATOM     20  C   UNL     1      -3.854 -10.615  16.394  0.00  0.00    -0.033 A 
ATOM     22  C   UNL     1      -5.014  -9.990  15.938  0.00  0.00    +0.008 A 
ATOM     24  C   UNL     1      -3.841 -11.233  17.645  0.00  0.00    +0.008 A 
ATOM     26  C   UNL     1      -6.162  -9.985  16.730  0.00  0.00    +0.038 A 
ATOM     28  C   UNL     1      -4.989 -11.228  18.437  0.00  0.00    +0.038 A 
ATOM     30  C   UNL     1      -6.149 -10.603  17.980  0.00  0.00    +0.123 A 
ENDBRANCH  18  20
ENDBRANCH   7  18
BRANCH   7  19
ATOM     19  C   UNL     1      -2.077 -10.736  13.199  0.00  0.00    +0.120 C 
BRANCH  19  21
ATOM      2  F   UNL     1      -5.534  -8.769   9.209  0.00  0.00    -0.205 F 
ATOM     21  C   UNL     1      -3.000 -10.210  12.133  0.00  0.00    -0.033 A 
ATOM     23  C   UNL     1      -4.382 -10.261  12.321  0.00  0.00    +0.008 A 
ATOM     25  C   UNL     1      -2.476  -9.673  10.958  0.00  0.00    +0.008 A 
ATOM     27  C   UNL     1      -5.238  -9.774  11.333  0.00  0.00    +0.038 A 
ATOM     29  C   UNL     1      -3.332  -9.186   9.970  0.00  0.00    +0.038 A 
ATOM     31  C   UNL     1      -4.713  -9.237  10.157  0.00  0.00    +0.123 A 
ENDBRANCH  19  21
ENDBRANCH   7  19
TORSDOF 10
ENDMDL
MODEL 5
REMARK VINA RESULT:      -5.7     14.170     17.766
REMARK  Name = 28961236
REMARK  10 active torsions:
REMARK  status: ('A' for Active; 'I' for Inactive)
REMARK    1  A    between atoms: O_4  and  C_10
REMARK    2  A    between atoms: O_5  and  C_17
REMARK    3  A    between atoms: N_6  and  C_8
REMARK    4  A    between atoms: N_7  and  C_14
REMARK    5  A    between atoms: N_7  and  C_18
REMARK    6  A    between atoms: N_7  and  C_19
REMARK    7  A    between atoms: C_9  and  C_14
REMARK    8  A    between atoms: C_11  and  C_17
REMARK    9  A    between atoms: C_18  and  C_20
REMARK   10  A    between atoms: C_19  and  C_21
REMARK                            x       y       z     vdW  Elec       q    Type
REMARK                         _______ _______ _______ _____ _____    ______ ____
ROOT
ATOM      7  N   UNL     1      10.960   7.090   4.818  0.00  0.00    -0.291 NA
ENDROOT
BRANCH   7  14
ATOM     14  C   UNL     1      12.405   6.964   4.700  0.00  0.00    +0.118 C 
BRANCH  14   9
ATOM      3  O   UNL     1      13.763   8.757   3.889  0.00  0.00    -0.366 OA
ATOM      8  C   UNL     1      13.762   6.836   2.482  0.00  0.00    +0.118 C 
ATOM      9  C   UNL     1      12.915   7.672   3.451  0.00  0.00    +0.152 C 
ATOM     10  C   UNL     1      15.184   7.119   2.940  0.00  0.00    +0.165 C 
ATOM     11  C   UNL     1      15.073   8.593   3.312  0.00  0.00    +0.174 C 
BRANCH   8   6
ATOM      6  N   UNL     1      13.414   5.427   2.375  0.00  0.00    -0.295 NA
ATOM     12  C   UNL     1      12.158   5.215   1.656  0.00  0.00    +0.085 C 
ATOM     13  C   UNL     1      14.411   4.660   1.631  0.00  0.00    +0.085 C 
ATOM     15  C   UNL     1      12.197   3.730   1.327  0.00  0.00    +0.017 C 
ATOM     16  C   UNL     1      13.679   3.364   1.315  0.00  0.00    +0.017 C 
ENDBRANCH   8   6
BRANCH  10   4
ATOM      4  O   UNL     1      15.528   6.345   4.083  0.00  0.00    -0.388 OA
ATOM     32  H   UNL     1      16.473   6.129   4.019  0.00  0.00    +0.210 HD
ENDBRANCH  10   4
BRANCH  11  17
ATOM     17  C   UNL     1      16.117   9.101   4.288  0.00  0.00    +0.190 C 
BRANCH  17   5
ATOM      5  O   UNL     1      15.707   8.778   5.607  0.00  0.00    -0.392 OA
ATOM     33  H   UNL     1      14.832   8.359   5.540  0.00  0.00    +0.210 HD
ENDBRANCH  17   5
ENDBRANCH  11  17
ENDBRANCH  14   9
ENDBRANCH   7  14
BRANCH   7  18
ATOM     18  C   UNL     1      10.395   7.718   3.621  0.00  0.00    +0.120 C 
BRANCH  18  20
ATOM      1  F   UNL     1       6.098  11.141   4.875  0.00  0.00    -0.205 F 
ATOM     20  C   UNL     1       9.247   8.632   3.957  0.00  0.00    -0.033 A 
ATOM     22  C   UNL     1       8.042   8.521   3.264  0.00  0.00    +0.008 A 
ATOM     24  C   UNL     1       9.388   9.592   4.959  0.00  0.00    +0.008 A 
ATOM     26  C   UNL     1       6.978   9.368   3.574  0.00  0.00    +0.038 A 
ATOM     28  C   UNL     1       8.325  10.438   5.270  0.00  0.00    +0.038 A 
ATOM     30  C   UNL     1       7.119  10.327   4.577  0.00  0.00    +0.123 A 
ENDBRANCH  18  20
ENDBRANCH   7  18
BRANCH   7  19
ATOM     19  C   UNL     1      10.342   5.780   5.041  0.00  0.00    +0.120 C 
BRANCH  19  21
ATOM      2  F   UNL     1       8.762   5.101  10.407  0.00  0.00    -0.205 F 
ATOM     21  C   UNL     1       9.920   5.598   6.475  0.00  0.00    -0.033 A 
ATOM     23  C   UNL     1       9.391   6.675   7.188  0.00  0.00    +0.008 A 
ATOM     25  C   UNL     1      10.056   4.354   7.091  0.00  0.00    +0.008 A 
ATOM     27  C   UNL     1       8.999   6.507   8.517  0.00  0.00    +0.038 A 
ATOM     29  C   UNL     1       9.665   4.186   8.419  0.00  0.00    +0.038 A 
ATOM     31  C   UNL     1       9.138   5.262   9.132  0.00  0.00    +0.123 A 
ENDBRANCH  19  21
ENDBRANCH   7  19
TORSDOF 10
ENDMDL
MODEL 6
REMARK VINA RESULT:      -5.6     14.489     17.843
REMARK  Name = 28961236
REMARK  10 active torsions:
REMARK  status: ('A' for Active; 'I' for Inactive)
REMARK    1  A    between atoms: O_4  and  C_10
REMARK    2  A    between atoms: O_5  and  C_17
REMARK    3  A    between atoms: N_6  and  C_8
REMARK    4  A    between atoms: N_7  and  C_14
REMARK    5  A    between atoms: N_7  and  C_18
REMARK    6  A    between atoms: N_7  and  C_19
REMARK    7  A    between atoms: C_9  and  C_14
REMARK    8  A    between atoms: C_11  and  C_17
REMARK    9  A    between atoms: C_18  and  C_20
REMARK   10  A    between atoms: C_19  and  C_21
REMARK                            x       y       z     vdW  Elec       q    Type
REMARK                         _______ _______ _______ _____ _____    ______ ____
ROOT
ATOM      7  N   UNL     1      10.781   5.712   3.377  0.00  0.00    -0.291 NA
ENDROOT
BRANCH   7  14
ATOM     14  C   UNL     1      11.002   5.480   4.798  0.00  0.00    +0.118 C 
BRANCH  14   9
ATOM      3  O   UNL     1       9.368   5.615   6.538  0.00  0.00    -0.366 OA
ATOM      8  C   UNL     1      10.919   7.421   6.530  0.00  0.00    +0.118 C 
ATOM      9  C   UNL     1      10.158   6.427   5.642  0.00  0.00    +0.152 C 
ATOM     10  C   UNL     1      11.011   6.689   7.860  0.00  0.00    +0.165 C 
ATOM     11  C   UNL     1       9.652   5.999   7.897  0.00  0.00    +0.174 C 
BRANCH   8   6
ATOM      6  N   UNL     1      12.184   7.915   6.006  0.00  0.00    -0.295 NA
ATOM     12  C   UNL     1      12.001   8.978   5.018  0.00  0.00    +0.085 C 
ATOM     13  C   UNL     1      13.028   8.502   7.044  0.00  0.00    +0.085 C 
ATOM     15  C   UNL     1      13.390   9.590   4.913  0.00  0.00    +0.017 C 
ATOM     16  C   UNL     1      14.067   9.273   6.244  0.00  0.00    +0.017 C 
ENDBRANCH   8   6
BRANCH  10   4
ATOM      4  O   UNL     1      12.056   5.724   7.854  0.00  0.00    -0.388 OA
ATOM     32  H   UNL     1      11.673   4.877   7.569  0.00  0.00    +0.210 HD
ENDBRANCH  10   4
BRANCH  11  17
ATOM     17  C   UNL     1       9.564   4.777   8.792  0.00  0.00    +0.190 C 
BRANCH  17   5
ATOM      5  O   UNL     1      10.269   3.709   8.180  0.00  0.00    -0.392 OA
ATOM     33  H   UNL     1       9.941   3.635   7.267  0.00  0.00    +0.210 HD
ENDBRANCH  17   5
ENDBRANCH  11  17
ENDBRANCH  14   9
ENDBRANCH   7  14
BRANCH   7  18
ATOM     18  C   UNL     1      10.433   4.462   2.696  0.00  0.00    +0.120 C 
BRANCH  18  20
ATOM      1  F   UNL     1      13.870   3.407  -1.643  0.00  0.00    -0.205 F 
ATOM     20  C   UNL     1      11.351   4.181   1.537  0.00  0.00    -0.033 A 
ATOM     22  C   UNL     1      10.910   4.389   0.231  0.00  0.00    +0.008 A 
ATOM     24  C   UNL     1      12.644   3.710   1.769  0.00  0.00    +0.008 A 
ATOM     26  C   UNL     1      11.760   4.128  -0.843  0.00  0.00    +0.038 A 
ATOM     28  C   UNL     1      13.495   3.450   0.695  0.00  0.00    +0.038 A 
ATOM     30  C   UNL     1      13.052   3.658  -0.612  0.00  0.00    +0.123 A 
ENDBRANCH  18  20
ENDBRANCH   7  18
BRANCH   7  19
ATOM     19  C   UNL     1       9.729   6.710   3.172  0.00  0.00    +0.120 C 
BRANCH  19  21
ATOM      2  F   UNL     1      10.894  10.126  -1.154  0.00  0.00    -0.205 F 
ATOM     21  C   UNL     1      10.041   7.623   2.016  0.00  0.00    -0.033 A 
ATOM     23  C   UNL     1       9.005   8.266   1.337  0.00  0.00    +0.008 A 
ATOM     25  C   UNL     1      11.364   7.827   1.625  0.00  0.00    +0.008 A 
ATOM     27  C   UNL     1       9.294   9.111   0.265  0.00  0.00    +0.038 A 
ATOM     29  C   UNL     1      11.652   8.672   0.554  0.00  0.00    +0.038 A 
ATOM     31  C   UNL     1      10.617   9.314  -0.127  0.00  0.00    +0.123 A 
ENDBRANCH  19  21
ENDBRANCH   7  19
TORSDOF 10
ENDMDL
MODEL 7
REMARK VINA RESULT:      -5.6     13.549     16.061
REMARK  Name = 28961236
REMARK  10 active torsions:
REMARK  status: ('A' for Active; 'I' for Inactive)
REMARK    1  A    between atoms: O_4  and  C_10
REMARK    2  A    between atoms: O_5  and  C_17
REMARK    3  A    between atoms: N_6  and  C_8
REMARK    4  A    between atoms: N_7  and  C_14
REMARK    5  A    between atoms: N_7  and  C_18
REMARK    6  A    between atoms: N_7  and  C_19
REMARK    7  A    between atoms: C_9  and  C_14
REMARK    8  A    between atoms: C_11  and  C_17
REMARK    9  A    between atoms: C_18  and  C_20
REMARK   10  A    between atoms: C_19  and  C_21
REMARK                            x       y       z     vdW  Elec       q    Type
REMARK                         _______ _______ _______ _____ _____    ______ ____
ROOT
ATOM      7  N   UNL     1      10.670   7.048   4.871  0.00  0.00    -0.291 NA
ENDROOT
BRANCH   7  14
ATOM     14  C   UNL     1      11.441   8.239   5.196  0.00  0.00    +0.118 C 
BRANCH  14   9
ATOM      3  O   UNL     1      13.541   7.188   5.643  0.00  0.00    -0.366 OA
ATOM      8  C   UNL     1      13.150   9.150   6.934  0.00  0.00    +0.118 C 
ATOM      9  C   UNL     1      12.479   7.940   6.271  0.00  0.00    +0.152 C 
ATOM     10  C   UNL     1      14.408   9.342   6.101  0.00  0.00    +0.165 C 
ATOM     11  C   UNL     1      14.785   7.892   5.821  0.00  0.00    +0.174 C 
BRANCH   8   6
ATOM      6  N   UNL     1      12.324  10.338   7.093  0.00  0.00    -0.295 NA
ATOM     12  C   UNL     1      11.205  10.121   8.009  0.00  0.00    +0.085 C 
ATOM     13  C   UNL     1      13.066  11.463   7.660  0.00  0.00    +0.085 C 
ATOM     15  C   UNL     1      10.740  11.535   8.322  0.00  0.00    +0.017 C 
ATOM     16  C   UNL     1      11.962  12.418   8.088  0.00  0.00    +0.017 C 
ENDBRANCH   8   6
BRANCH  10   4
ATOM      4  O   UNL     1      14.129  10.025   4.885  0.00  0.00    -0.388 OA
ATOM     32  H   UNL     1      14.315  10.968   5.027  0.00  0.00    +0.210 HD
ENDBRANCH  10   4
BRANCH  11  17
ATOM     17  C   UNL     1      15.665   7.669   4.605  0.00  0.00    +0.190 C 
BRANCH  17   5
ATOM      5  O   UNL     1      15.545   6.316   4.195  0.00  0.00    -0.392 OA
ATOM     33  H   UNL     1      16.294   6.129   3.604  0.00  0.00    +0.210 HD
ENDBRANCH  17   5
ENDBRANCH  11  17
ENDBRANCH  14   9
ENDBRANCH   7  14
BRANCH   7  18
ATOM     18  C   UNL     1       9.372   7.069   5.549  0.00  0.00    +0.120 C 
BRANCH  18  20
ATOM      1  F   UNL     1       9.459   4.101  10.338  0.00  0.00    -0.205 F 
ATOM     20  C   UNL     1       9.396   6.277   6.829  0.00  0.00    -0.033 A 
ATOM     22  C   UNL     1       9.805   4.943   6.816  0.00  0.00    +0.008 A 
ATOM     24  C   UNL     1       9.007   6.874   8.028  0.00  0.00    +0.008 A 
ATOM     26  C   UNL     1       9.827   4.208   8.001  0.00  0.00    +0.038 A 
ATOM     28  C   UNL     1       9.029   6.140   9.214  0.00  0.00    +0.038 A 
ATOM     30  C   UNL     1       9.439   4.806   9.200  0.00  0.00    +0.123 A 
ENDBRANCH  18  20
ENDBRANCH   7  18
BRANCH   7  19
ATOM     19  C   UNL     1      10.481   6.932   3.422  0.00  0.00    +0.120 C 
BRANCH  19  21
ATOM      2  F   UNL     1      13.506   2.706   1.246  0.00  0.00    -0.205 F 
ATOM     21  C   UNL     1      11.289   5.802   2.841  0.00  0.00    -0.033 A 
ATOM     23  C   UNL     1      12.540   6.058   2.279  0.00  0.00    +0.008 A 
ATOM     25  C   UNL     1      10.788   4.501   2.864  0.00  0.00    +0.008 A 
ATOM     27  C   UNL     1      13.289   5.011   1.739  0.00  0.00    +0.038 A 
ATOM     29  C   UNL     1      11.536   3.455   2.325  0.00  0.00    +0.038 A 
ATOM     31  C   UNL     1      12.787   3.710   1.762  0.00  0.00    +0.123 A 
ENDBRANCH  19  21
ENDBRANCH   7  19
TORSDOF 10
ENDMDL
MODEL 8
REMARK VINA RESULT:      -5.5     26.412     28.938
REMARK  Name = 28961236
REMARK  10 active torsions:
REMARK  status: ('A' for Active; 'I' for Inactive)
REMARK    1  A    between atoms: O_4  and  C_10
REMARK    2  A    between atoms: O_5  and  C_17
REMARK    3  A    between atoms: N_6  and  C_8
REMARK    4  A    between atoms: N_7  and  C_14
REMARK    5  A    between atoms: N_7  and  C_18
REMARK    6  A    between atoms: N_7  and  C_19
REMARK    7  A    between atoms: C_9  and  C_14
REMARK    8  A    between atoms: C_11  and  C_17
REMARK    9  A    between atoms: C_18  and  C_20
REMARK   10  A    between atoms: C_19  and  C_21
REMARK                            x       y       z     vdW  Elec       q    Type
REMARK                         _______ _______ _______ _____ _____    ______ ____
ROOT
ATOM      7  N   UNL     1      -5.008 -12.676  13.589  0.00  0.00    -0.291 NA
ENDROOT
BRANCH   7  14
ATOM     14  C   UNL     1      -5.930 -12.264  14.638  0.00  0.00    +0.118 C 
BRANCH  14   9
ATOM      3  O   UNL     1      -3.878 -12.226  15.864  0.00  0.00    -0.366 OA
ATOM      8  C   UNL     1      -5.757 -11.454  17.105  0.00  0.00    +0.118 C 
ATOM      9  C   UNL     1      -5.300 -12.432  16.015  0.00  0.00    +0.152 C 
ATOM     10  C   UNL     1      -4.722 -10.343  17.023  0.00  0.00    +0.165 C 
ATOM     11  C   UNL     1      -3.463 -11.151  16.729  0.00  0.00    +0.174 C 
BRANCH   8   6
ATOM      6  N   UNL     1      -7.143 -11.016  17.037  0.00  0.00    -0.295 NA
ATOM     12  C   UNL     1      -8.083 -12.082  17.385  0.00  0.00    +0.085 C 
ATOM     13  C   UNL     1      -7.434  -9.933  17.974  0.00  0.00    +0.085 C 
ATOM     15  C   UNL     1      -9.381 -11.327  17.628  0.00  0.00    +0.017 C 
ATOM     16  C   UNL     1      -8.955  -9.913  18.011  0.00  0.00    +0.017 C 
ENDBRANCH   8   6
BRANCH  10   4
ATOM      4  O   UNL     1      -4.998  -9.450  15.952  0.00  0.00    -0.388 OA
ATOM     32  H   UNL     1      -4.232  -8.861  15.853  0.00  0.00    +0.210 HD
ENDBRANCH  10   4
BRANCH  11  17
ATOM     17  C   UNL     1      -2.333 -10.383  16.068  0.00  0.00    +0.190 C 
BRANCH  17   5
ATOM      5  O   UNL     1      -1.109 -11.046  16.339  0.00  0.00    -0.392 OA
ATOM     33  H   UNL     1      -0.711 -10.609  17.111  0.00  0.00    +0.210 HD
ENDBRANCH  17   5
ENDBRANCH  11  17
ENDBRANCH  14   9
ENDBRANCH   7  14
BRANCH   7  18
ATOM     18  C   UNL     1      -5.083 -14.123  13.371  0.00  0.00    +0.120 C 
BRANCH  18  20
ATOM      1  F   UNL     1      -0.038 -16.331  12.176  0.00  0.00    -0.205 F 
ATOM     20  C   UNL     1      -3.735 -14.712  13.052  0.00  0.00    -0.033 A 
ATOM     22  C   UNL     1      -3.455 -15.155  11.760  0.00  0.00    +0.008 A 
ATOM     24  C   UNL     1      -2.765 -14.817  14.049  0.00  0.00    +0.008 A 
ATOM     26  C   UNL     1      -2.207 -15.702  11.463  0.00  0.00    +0.038 A 
ATOM     28  C   UNL     1      -1.516 -15.363  13.753  0.00  0.00    +0.038 A 
ATOM     30  C   UNL     1      -1.237 -15.806  12.460  0.00  0.00    +0.123 A 
ENDBRANCH  18  20
ENDBRANCH   7  18
BRANCH   7  19
ATOM     19  C   UNL     1      -5.289 -11.961  12.341  0.00  0.00    +0.120 C 
BRANCH  19  21
ATOM      2  F   UNL     1      -0.921  -8.796  10.713  0.00  0.00    -0.205 F 
ATOM     21  C   UNL     1      -4.122 -11.116  11.906  0.00  0.00    -0.033 A 
ATOM     23  C   UNL     1      -2.914 -11.184  12.600  0.00  0.00    +0.008 A 
ATOM     25  C   UNL     1      -4.247 -10.264  10.808  0.00  0.00    +0.008 A 
ATOM     27  C   UNL     1      -1.832 -10.400  12.198  0.00  0.00    +0.038 A 
ATOM     29  C   UNL     1      -3.166  -9.481  10.405  0.00  0.00    +0.038 A 
ATOM     31  C   UNL     1      -1.959  -9.548  11.100  0.00  0.00    +0.123 A 
ENDBRANCH  19  21
ENDBRANCH   7  19
TORSDOF 10
ENDMDL
MODEL 9
REMARK VINA RESULT:      -5.4     26.303     28.763
REMARK  Name = 28961236
REMARK  10 active torsions:
REMARK  status: ('A' for Active; 'I' for Inactive)
REMARK    1  A    between atoms: O_4  and  C_10
REMARK    2  A    between atoms: O_5  and  C_17
REMARK    3  A    between atoms: N_6  and  C_8
REMARK    4  A    between atoms: N_7  and  C_14
REMARK    5  A    between atoms: N_7  and  C_18
REMARK    6  A    between atoms: N_7  and  C_19
REMARK    7  A    between atoms: C_9  and  C_14
REMARK    8  A    between atoms: C_11  and  C_17
REMARK    9  A    between atoms: C_18  and  C_20
REMARK   10  A    between atoms: C_19  and  C_21
REMARK                            x       y       z     vdW  Elec       q    Type
REMARK                         _______ _______ _______ _____ _____    ______ ____
ROOT
ATOM      7  N   UNL     1      -6.230 -11.033  14.020  0.00  0.00    -0.291 NA
ENDROOT
BRANCH   7  14
ATOM     14  C   UNL     1      -7.290 -11.116  15.014  0.00  0.00    +0.118 C 
BRANCH  14   9
ATOM      3  O   UNL     1      -8.689  -9.178  15.070  0.00  0.00    -0.366 OA
ATOM      8  C   UNL     1      -7.792  -9.782  17.192  0.00  0.00    +0.118 C 
ATOM      9  C   UNL     1      -7.519  -9.766  15.682  0.00  0.00    +0.152 C 
ATOM     10  C   UNL     1      -9.311  -9.814  17.264  0.00  0.00    +0.165 C 
ATOM     11  C   UNL     1      -9.668  -8.907  16.092  0.00  0.00    +0.174 C 
BRANCH   8   6
ATOM      6  N   UNL     1      -7.113 -10.817  17.957  0.00  0.00    -0.295 NA
ATOM     12  C   UNL     1      -5.716 -10.481  18.232  0.00  0.00    +0.085 C 
ATOM     13  C   UNL     1      -7.718 -11.027  19.271  0.00  0.00    +0.085 C 
ATOM     15  C   UNL     1      -5.339 -11.463  19.331  0.00  0.00    +0.017 C 
ATOM     16  C   UNL     1      -6.655 -11.825  20.012  0.00  0.00    +0.017 C 
ENDBRANCH   8   6
BRANCH  10   4
ATOM      4  O   UNL     1      -9.816 -11.125  17.046  0.00  0.00    -0.388 OA
ATOM     32  H   UNL     1      -9.867 -11.569  17.910  0.00  0.00    +0.210 HD
ENDBRANCH  10   4
BRANCH  11  17
ATOM     17  C   UNL     1     -11.059  -9.101  15.516  0.00  0.00    +0.190 C 
BRANCH  17   5
ATOM      5  O   UNL     1     -11.016 -10.143  14.554  0.00  0.00    -0.392 OA
ATOM     33  H   UNL     1     -10.396  -9.865  13.859  0.00  0.00    +0.210 HD
ENDBRANCH  17   5
ENDBRANCH  11  17
ENDBRANCH  14   9
ENDBRANCH   7  14
BRANCH   7  18
ATOM     18  C   UNL     1      -5.206 -12.052  14.267  0.00  0.00    +0.120 C 
BRANCH  18  20
ATOM      1  F   UNL     1      -0.267  -9.759  15.718  0.00  0.00    -0.205 F 
ATOM     20  C   UNL     1      -3.887 -11.439  14.655  0.00  0.00    -0.033 A 
ATOM     22  C   UNL     1      -3.071 -10.867  13.680  0.00  0.00    +0.008 A 
ATOM     24  C   UNL     1      -3.480 -11.444  15.989  0.00  0.00    +0.008 A 
ATOM     26  C   UNL     1      -1.848 -10.299  14.038  0.00  0.00    +0.038 A 
ATOM     28  C   UNL     1      -2.258 -10.877  16.348  0.00  0.00    +0.038 A 
ATOM     30  C   UNL     1      -1.441 -10.304  15.372  0.00  0.00    +0.123 A 
ENDBRANCH  18  20
ENDBRANCH   7  18
BRANCH   7  19
ATOM     19  C   UNL     1      -6.773 -11.180  12.668  0.00  0.00    +0.120 C 
BRANCH  19  21
ATOM      2  F   UNL     1      -3.610  -8.522   8.837  0.00  0.00    -0.205 F 
ATOM     21  C   UNL     1      -5.928 -10.470  11.644  0.00  0.00    -0.033 A 
ATOM     23  C   UNL     1      -5.837  -9.078  11.659  0.00  0.00    +0.008 A 
ATOM     25  C   UNL     1      -5.235 -11.203  10.681  0.00  0.00    +0.008 A 
ATOM     27  C   UNL     1      -5.054  -8.419  10.710  0.00  0.00    +0.038 A 
ATOM     29  C   UNL     1      -4.452 -10.545   9.732  0.00  0.00    +0.038 A 
ATOM     31  C   UNL     1      -4.362  -9.154   9.747  0.00  0.00    +0.123 A 
ENDBRANCH  19  21
ENDBRANCH   7  19
TORSDOF 10
ENDMDL
MODEL 10
REMARK VINA RESULT:      -5.4     27.558     29.525
REMARK  Name = 28961236
REMARK  10 active torsions:
REMARK  status: ('A' for Active; 'I' for Inactive)
REMARK    1  A    between atoms: O_4  and  C_10
REMARK    2  A    between atoms: O_5  and  C_17
REMARK    3  A    between atoms: N_6  and  C_8
REMARK    4  A    between atoms: N_7  and  C_14
REMARK    5  A    between atoms: N_7  and  C_18
REMARK    6  A    between atoms: N_7  and  C_19
REMARK    7  A    between atoms: C_9  and  C_14
REMARK    8  A    between atoms: C_11  and  C_17
REMARK    9  A    between atoms: C_18  and  C_20
REMARK   10  A    between atoms: C_19  and  C_21
REMARK                            x       y       z     vdW  Elec       q    Type
REMARK                         _______ _______ _______ _____ _____    ______ ____
ROOT
ATOM      7  N   UNL     1      -3.337 -11.683  14.050  0.00  0.00    -0.291 NA
ENDROOT
BRANCH   7  14
ATOM     14  C   UNL     1      -3.432 -13.128  13.900  0.00  0.00    +0.118 C 
BRANCH  14   9
ATOM      3  O   UNL     1      -1.412 -14.406  13.925  0.00  0.00    -0.366 OA
ATOM      8  C   UNL     1      -2.667 -14.626  11.914  0.00  0.00    +0.118 C 
ATOM      9  C   UNL     1      -2.288 -13.664  13.048  0.00  0.00    +0.152 C 
ATOM     10  C   UNL     1      -2.518 -15.994  12.562  0.00  0.00    +0.165 C 
ATOM     11  C   UNL     1      -1.295 -15.758  13.440  0.00  0.00    +0.174 C 
BRANCH   8   6
ATOM      6  N   UNL     1      -3.948 -14.384  11.265  0.00  0.00    -0.295 NA
ATOM     12  C   UNL     1      -3.900 -13.249  10.344  0.00  0.00    +0.085 C 
ATOM     13  C   UNL     1      -4.385 -15.516  10.451  0.00  0.00    +0.085 C 
ATOM     15  C   UNL     1      -5.167 -13.424   9.520  0.00  0.00    +0.017 C 
ATOM     16  C   UNL     1      -5.488 -14.913   9.594  0.00  0.00    +0.017 C 
ENDBRANCH   8   6
BRANCH  10   4
ATOM      4  O   UNL     1      -3.647 -16.318  13.363  0.00  0.00    -0.388 OA
ATOM     32  H   UNL     1      -4.418 -16.383  12.774  0.00  0.00    +0.210 HD
ENDBRANCH  10   4
BRANCH  11  17
ATOM     17  C   UNL     1      -1.145 -16.701  14.619  0.00  0.00    +0.190 C 
BRANCH  17   5
ATOM      5  O   UNL     1      -2.041 -16.301  15.643  0.00  0.00    -0.392 OA
ATOM     33  H   UNL     1      -1.586 -16.436  16.491  0.00  0.00    +0.210 HD
ENDBRANCH  17   5
ENDBRANCH  11  17
ENDBRANCH  14   9
ENDBRANCH   7  14
BRANCH   7  18
ATOM     18  C   UNL     1      -2.842 -11.331  15.383  0.00  0.00    +0.120 C 
BRANCH  18  20
ATOM      1  F   UNL     1      -7.047 -10.067  18.915  0.00  0.00    -0.205 F 
ATOM     20  C   UNL     1      -3.965 -10.992  16.326  0.00  0.00    -0.033 A 
ATOM     22  C   UNL     1      -3.920 -11.431  17.649  0.00  0.00    +0.008 A 
ATOM     24  C   UNL     1      -5.052 -10.242  15.878  0.00  0.00    +0.008 A 
ATOM     26  C   UNL     1      -4.961 -11.118  18.524  0.00  0.00    +0.038 A 
ATOM     28  C   UNL     1      -6.093  -9.928  16.752  0.00  0.00    +0.038 A 
ATOM     30  C   UNL     1      -6.047 -10.367  18.076  0.00  0.00    +0.123 A 
ENDBRANCH  18  20
ENDBRANCH   7  18
BRANCH   7  19
ATOM     19  C   UNL     1      -2.466 -11.111  13.020  0.00  0.00    +0.120 C 
BRANCH  19  21
ATOM      2  F   UNL     1      -5.354  -7.984   9.328  0.00  0.00    -0.205 F 
ATOM     21  C   UNL     1      -3.238 -10.276  12.034  0.00  0.00    -0.033 A 
ATOM     23  C   UNL     1      -2.602  -9.774  10.897  0.00  0.00    +0.008 A 
ATOM     25  C   UNL     1      -4.588 -10.004  12.255  0.00  0.00    +0.008 A 
ATOM     27  C   UNL     1      -3.317  -8.999   9.983  0.00  0.00    +0.038 A 
ATOM     29  C   UNL     1      -5.302  -9.230  11.341  0.00  0.00    +0.038 A 
ATOM     31  C   UNL     1      -4.667  -8.727  10.206  0.00  0.00    +0.123 A 
ENDBRANCH  19  21
ENDBRANCH   7  19
TORSDOF 10
ENDMDL
