MODEL 1
REMARK VINA RESULT:      -6.1      0.000      0.000
REMARK  Name = 28961487
REMARK  13 active torsions:
REMARK  status: ('A' for Active; 'I' for Inactive)
REMARK    1  A    between atoms: O_3  and  C_12
REMARK    2  A    between atoms: O_4  and  C_15
REMARK    3  A    between atoms: N_6  and  C_10
REMARK    4  A    between atoms: N_6  and  C_16
REMARK    5  A    between atoms: N_6  and  C_17
REMARK    6  A    between atoms: N_7  and  C_14
REMARK    7  A    between atoms: N_8  and  C_18
REMARK    8  A    between atoms: N_8  and  C_20
REMARK    9  A    between atoms: N_8  and  C_21
REMARK   10  A    between atoms: N_9  and  C_22
REMARK   11  A    between atoms: C_11  and  C_14
REMARK   12  A    between atoms: C_13  and  C_15
REMARK   13  A    between atoms: C_16  and  C_18
REMARK                            x       y       z     vdW  Elec       q    Type
REMARK                         _______ _______ _______ _____ _____    ______ ____
ROOT
ATOM      2  O   UNL     1      10.938   7.879  20.122  0.00  0.00    -0.365 OA
ATOM     10  C   UNL     1      11.234   9.762  21.549  0.00  0.00    +0.118 C 
ATOM     11  C   UNL     1      11.266   9.286  20.090  0.00  0.00    +0.155 C 
ATOM     12  C   UNL     1      11.532   8.492  22.331  0.00  0.00    +0.165 C 
ATOM     13  C   UNL     1      10.782   7.464  21.493  0.00  0.00    +0.174 C 
ENDROOT
BRANCH  12   3
ATOM      3  O   UNL     1      12.924   8.201  22.342  0.00  0.00    -0.388 OA
ATOM     28  H   UNL     1      13.207   8.084  21.420  0.00  0.00    +0.210 HD
ENDBRANCH  12   3
BRANCH  10   6
ATOM      6  N   UNL     1      12.077  10.900  21.872  0.00  0.00    -0.296 NA
ATOM     17  C   UNL     1      12.125  11.120  23.320  0.00  0.00    +0.105 C 
BRANCH   6  16
ATOM     16  C   UNL     1      11.600  12.111  21.196  0.00  0.00    +0.100 C 
BRANCH  16  18
ATOM     18  C   UNL     1      12.727  13.132  21.087  0.00  0.00    +0.099 C 
BRANCH  18   8
ATOM      8  N   UNL     1      13.840  12.574  20.329  0.00  0.00    -0.307 NA
ATOM     20  C   UNL     1      15.119  12.993  20.906  0.00  0.00    +0.104 C 
ATOM     21  C   UNL     1      13.760  12.979  18.924  0.00  0.00    +0.104 C 
ENDBRANCH  18   8
ENDBRANCH  16  18
ENDBRANCH   6  16
ENDBRANCH  10   6
BRANCH  11  14
ATOM     14  C   UNL     1      12.595   9.424  19.356  0.00  0.00    +0.139 C 
BRANCH  14   7
ATOM      5  O   UNL     1      15.439   9.328  19.682  0.00  0.00    -0.253 OA
ATOM      7  N   UNL     1      13.399   8.250  19.521  0.00  0.00    -0.297 N 
ATOM      9  N   UNL     1      15.307   6.988  19.817  0.00  0.00    -0.269 N 
ATOM     19  C   UNL     1      14.796   8.283  19.677  0.00  0.00    +0.304 C 
ATOM     29  H   UNL     1      12.933   7.349  19.539  0.00  0.00    +0.150 HD
ATOM     31  H   UNL     1      14.634   6.227  19.789  0.00  0.00    +0.156 HD
BRANCH   9  22
ATOM      1 CL   UNL     1      19.599   7.271  22.620  0.00  0.00    -0.083 Cl
ATOM     22  C   UNL     1      16.657   6.603  19.993  0.00  0.00    +0.036 A 
ATOM     23  C   UNL     1      17.378   7.072  21.092  0.00  0.00    +0.043 A 
ATOM     24  C   UNL     1      17.266   5.755  19.070  0.00  0.00    +0.023 A 
ATOM     25  C   UNL     1      18.708   6.692  21.266  0.00  0.00    +0.043 A 
ATOM     26  C   UNL     1      18.597   5.374  19.244  0.00  0.00    +0.003 A 
ATOM     27  C   UNL     1      19.319   5.843  20.341  0.00  0.00    +0.020 A 
ENDBRANCH   9  22
ENDBRANCH  14   7
ENDBRANCH  11  14
BRANCH  13  15
ATOM     15  C   UNL     1      11.257   6.029  21.639  0.00  0.00    +0.190 C 
BRANCH  15   4
ATOM      4  O   UNL     1      12.515   5.895  20.999  0.00  0.00    -0.392 OA
ATOM     30  H   UNL     1      12.393   5.286  20.251  0.00  0.00    +0.210 HD
ENDBRANCH  15   4
ENDBRANCH  13  15
TORSDOF 10
ENDMDL
MODEL 2
REMARK VINA RESULT:      -5.8      4.411      9.263
REMARK  Name = 28961487
REMARK  13 active torsions:
REMARK  status: ('A' for Active; 'I' for Inactive)
REMARK    1  A    between atoms: O_3  and  C_12
REMARK    2  A    between atoms: O_4  and  C_15
REMARK    3  A    between atoms: N_6  and  C_10
REMARK    4  A    between atoms: N_6  and  C_16
REMARK    5  A    between atoms: N_6  and  C_17
REMARK    6  A    between atoms: N_7  and  C_14
REMARK    7  A    between atoms: N_8  and  C_18
REMARK    8  A    between atoms: N_8  and  C_20
REMARK    9  A    between atoms: N_8  and  C_21
REMARK   10  A    between atoms: N_9  and  C_22
REMARK   11  A    between atoms: C_11  and  C_14
REMARK   12  A    between atoms: C_13  and  C_15
REMARK   13  A    between atoms: C_16  and  C_18
REMARK                            x       y       z     vdW  Elec       q    Type
REMARK                         _______ _______ _______ _____ _____    ______ ____
ROOT
ATOM      2  O   UNL     1      20.281   7.666  20.841  0.00  0.00    -0.365 OA
ATOM     10  C   UNL     1      21.498   5.926  21.919  0.00  0.00    +0.118 C 
ATOM     11  C   UNL     1      20.722   6.304  20.649  0.00  0.00    +0.155 C 
ATOM     12  C   UNL     1      20.895   6.840  22.973  0.00  0.00    +0.165 C 
ATOM     13  C   UNL     1      20.674   8.107  22.156  0.00  0.00    +0.174 C 
ENDROOT
BRANCH  12   3
ATOM      3  O   UNL     1      19.653   6.336  23.451  0.00  0.00    -0.388 OA
ATOM     28  H   UNL     1      19.287   5.757  22.763  0.00  0.00    +0.210 HD
ENDBRANCH  12   3
BRANCH  10   6
ATOM      6  N   UNL     1      21.521   4.516  22.261  0.00  0.00    -0.296 NA
ATOM     17  C   UNL     1      22.398   4.271  23.410  0.00  0.00    +0.105 C 
BRANCH   6  16
ATOM     16  C   UNL     1      21.956   3.708  21.117  0.00  0.00    +0.100 C 
BRANCH  16  18
ATOM     18  C   UNL     1      23.131   2.819  21.516  0.00  0.00    +0.099 C 
BRANCH  18   8
ATOM      8  N   UNL     1      24.133   2.805  20.457  0.00  0.00    -0.307 NA
ATOM     20  C   UNL     1      25.373   2.185  20.929  0.00  0.00    +0.104 C 
ATOM     21  C   UNL     1      24.395   4.164  19.979  0.00  0.00    +0.104 C 
ENDBRANCH  18   8
ENDBRANCH  16  18
ENDBRANCH   6  16
ENDBRANCH  10   6
BRANCH  11  14
ATOM     14  C   UNL     1      19.487   5.469  20.330  0.00  0.00    +0.139 C 
BRANCH  14   7
ATOM      5  O   UNL     1      17.066   5.519  18.800  0.00  0.00    -0.253 OA
ATOM      7  N   UNL     1      18.287   6.182  20.650  0.00  0.00    -0.297 N 
ATOM      9  N   UNL     1      16.123   6.945  20.409  0.00  0.00    -0.269 N 
ATOM     19  C   UNL     1      17.133   6.158  19.847  0.00  0.00    +0.304 C 
ATOM     29  H   UNL     1      18.265   6.723  21.509  0.00  0.00    +0.150 HD
ATOM     31  H   UNL     1      16.344   7.411  21.286  0.00  0.00    +0.156 HD
BRANCH   9  22
ATOM      1 CL   UNL     1      11.051   6.831  21.199  0.00  0.00    -0.083 Cl
ATOM     22  C   UNL     1      14.822   7.176  19.906  0.00  0.00    +0.036 A 
ATOM     23  C   UNL     1      13.708   6.920  20.708  0.00  0.00    +0.043 A 
ATOM     24  C   UNL     1      14.651   7.659  18.610  0.00  0.00    +0.023 A 
ATOM     25  C   UNL     1      12.425   7.148  20.212  0.00  0.00    +0.043 A 
ATOM     26  C   UNL     1      13.367   7.887  18.113  0.00  0.00    +0.003 A 
ATOM     27  C   UNL     1      12.254   7.631  18.914  0.00  0.00    +0.020 A 
ENDBRANCH   9  22
ENDBRANCH  14   7
ENDBRANCH  11  14
BRANCH  13  15
ATOM     15  C   UNL     1      19.625   9.061  22.698  0.00  0.00    +0.190 C 
BRANCH  15   4
ATOM      4  O   UNL     1      18.340   8.594  22.321  0.00  0.00    -0.392 OA
ATOM     30  H   UNL     1      18.414   7.635  22.181  0.00  0.00    +0.210 HD
ENDBRANCH  15   4
ENDBRANCH  13  15
TORSDOF 10
ENDMDL
MODEL 3
REMARK VINA RESULT:      -5.7     17.425     19.499
REMARK  Name = 28961487
REMARK  13 active torsions:
REMARK  status: ('A' for Active; 'I' for Inactive)
REMARK    1  A    between atoms: O_3  and  C_12
REMARK    2  A    between atoms: O_4  and  C_15
REMARK    3  A    between atoms: N_6  and  C_10
REMARK    4  A    between atoms: N_6  and  C_16
REMARK    5  A    between atoms: N_6  and  C_17
REMARK    6  A    between atoms: N_7  and  C_14
REMARK    7  A    between atoms: N_8  and  C_18
REMARK    8  A    between atoms: N_8  and  C_20
REMARK    9  A    between atoms: N_8  and  C_21
REMARK   10  A    between atoms: N_9  and  C_22
REMARK   11  A    between atoms: C_11  and  C_14
REMARK   12  A    between atoms: C_13  and  C_15
REMARK   13  A    between atoms: C_16  and  C_18
REMARK                            x       y       z     vdW  Elec       q    Type
REMARK                         _______ _______ _______ _____ _____    ______ ____
ROOT
ATOM      2  O   UNL     1      12.937   7.120   1.995  0.00  0.00    -0.365 OA
ATOM     10  C   UNL     1      14.004   5.700   0.409  0.00  0.00    +0.118 C 
ATOM     11  C   UNL     1      12.656   6.070   1.043  0.00  0.00    +0.155 C 
ATOM     12  C   UNL     1      15.007   6.089   1.483  0.00  0.00    +0.165 C 
ATOM     13  C   UNL     1      14.359   7.356   2.027  0.00  0.00    +0.174 C 
ENDROOT
BRANCH  12   3
ATOM      3  O   UNL     1      15.090   5.099   2.501  0.00  0.00    -0.388 OA
ATOM     28  H   UNL     1      14.401   4.438   2.325  0.00  0.00    +0.210 HD
ENDBRANCH  12   3
BRANCH  10   6
ATOM      6  N   UNL     1      14.127   4.343  -0.091  0.00  0.00    -0.296 NA
ATOM     17  C   UNL     1      15.531   4.002  -0.337  0.00  0.00    +0.105 C 
BRANCH   6  16
ATOM     16  C   UNL     1      13.345   4.165  -1.319  0.00  0.00    +0.100 C 
BRANCH  16  18
ATOM     18  C   UNL     1      12.491   2.904  -1.223  0.00  0.00    +0.099 C 
BRANCH  18   8
ATOM      8  N   UNL     1      11.134   3.180  -1.677  0.00  0.00    -0.307 NA
ATOM     20  C   UNL     1      10.793   2.336  -2.824  0.00  0.00    +0.104 C 
ATOM     21  C   UNL     1      10.985   4.594  -2.025  0.00  0.00    +0.104 C 
ENDBRANCH  18   8
ENDBRANCH  16  18
ENDBRANCH   6  16
ENDBRANCH  10   6
BRANCH  11  14
ATOM     14  C   UNL     1      11.928   4.961   1.795  0.00  0.00    +0.139 C 
BRANCH  14   7
ATOM      5  O   UNL     1       9.819   5.812   3.537  0.00  0.00    -0.253 OA
ATOM      7  N   UNL     1      12.014   5.157   3.211  0.00  0.00    -0.297 N 
ATOM      9  N   UNL     1      11.311   5.680   5.345  0.00  0.00    -0.269 N 
ATOM     19  C   UNL     1      10.931   5.577   4.003  0.00  0.00    +0.304 C 
ATOM     29  H   UNL     1      12.900   4.969   3.668  0.00  0.00    +0.150 HD
ATOM     31  H   UNL     1      12.276   5.448   5.564  0.00  0.00    +0.156 HD
BRANCH   9  22
ATOM      1 CL   UNL     1       9.089   4.414   9.797  0.00  0.00    -0.083 Cl
ATOM     22  C   UNL     1      10.512   6.070   6.445  0.00  0.00    +0.036 A 
ATOM     23  C   UNL     1      10.228   5.156   7.461  0.00  0.00    +0.043 A 
ATOM     24  C   UNL     1      10.009   7.368   6.515  0.00  0.00    +0.023 A 
ATOM     25  C   UNL     1       9.441   5.541   8.545  0.00  0.00    +0.043 A 
ATOM     26  C   UNL     1       9.221   7.754   7.600  0.00  0.00    +0.003 A 
ATOM     27  C   UNL     1       8.936   6.841   8.615  0.00  0.00    +0.020 A 
ENDBRANCH   9  22
ENDBRANCH  14   7
ENDBRANCH  11  14
BRANCH  13  15
ATOM     15  C   UNL     1      14.769   7.748   3.436  0.00  0.00    +0.190 C 
BRANCH  15   4
ATOM      4  O   UNL     1      14.027   6.972   4.363  0.00  0.00    -0.392 OA
ATOM     30  H   UNL     1      13.264   7.507   4.638  0.00  0.00    +0.210 HD
ENDBRANCH  15   4
ENDBRANCH  13  15
TORSDOF 10
ENDMDL
MODEL 4
REMARK VINA RESULT:      -5.7     26.577     29.862
REMARK  Name = 28961487
REMARK  13 active torsions:
REMARK  status: ('A' for Active; 'I' for Inactive)
REMARK    1  A    between atoms: O_3  and  C_12
REMARK    2  A    between atoms: O_4  and  C_15
REMARK    3  A    between atoms: N_6  and  C_10
REMARK    4  A    between atoms: N_6  and  C_16
REMARK    5  A    between atoms: N_6  and  C_17
REMARK    6  A    between atoms: N_7  and  C_14
REMARK    7  A    between atoms: N_8  and  C_18
REMARK    8  A    between atoms: N_8  and  C_20
REMARK    9  A    between atoms: N_8  and  C_21
REMARK   10  A    between atoms: N_9  and  C_22
REMARK   11  A    between atoms: C_11  and  C_14
REMARK   12  A    between atoms: C_13  and  C_15
REMARK   13  A    between atoms: C_16  and  C_18
REMARK                            x       y       z     vdW  Elec       q    Type
REMARK                         _______ _______ _______ _____ _____    ______ ____
ROOT
ATOM      2  O   UNL     1      -4.967 -10.285  18.275  0.00  0.00    -0.365 OA
ATOM     10  C   UNL     1      -4.570 -12.107  16.794  0.00  0.00    +0.118 C 
ATOM     11  C   UNL     1      -4.705 -10.580  16.885  0.00  0.00    +0.155 C 
ATOM     12  C   UNL     1      -5.394 -12.594  17.976  0.00  0.00    +0.165 C 
ATOM     13  C   UNL     1      -5.068 -11.521  19.007  0.00  0.00    +0.174 C 
ENDROOT
BRANCH  12   3
ATOM      3  O   UNL     1      -6.785 -12.590  17.679  0.00  0.00    -0.388 OA
ATOM     28  H   UNL     1      -7.197 -13.308  18.187  0.00  0.00    +0.210 HD
ENDBRANCH  12   3
BRANCH  10   6
ATOM      6  N   UNL     1      -4.907 -12.706  15.515  0.00  0.00    -0.296 NA
ATOM     17  C   UNL     1      -4.721 -14.159  15.554  0.00  0.00    +0.105 C 
BRANCH   6  16
ATOM     16  C   UNL     1      -4.099 -12.126  14.438  0.00  0.00    +0.100 C 
BRANCH  16  18
ATOM     18  C   UNL     1      -2.656 -12.611  14.542  0.00  0.00    +0.099 C 
BRANCH  18   8
ATOM      8  N   UNL     1      -1.735 -11.507  14.299  0.00  0.00    -0.307 NA
ATOM     20  C   UNL     1      -1.241 -10.961  15.564  0.00  0.00    +0.104 C 
ATOM     21  C   UNL     1      -2.386 -10.457  13.513  0.00  0.00    +0.104 C 
ENDBRANCH  18   8
ENDBRANCH  16  18
ENDBRANCH   6  16
ENDBRANCH  10   6
BRANCH  11  14
ATOM     14  C   UNL     1      -5.824  -9.944  16.068  0.00  0.00    +0.139 C 
BRANCH  14   7
ATOM      5  O   UNL     1      -8.595 -10.668  16.020  0.00  0.00    -0.253 OA
ATOM      7  N   UNL     1      -6.857  -9.434  16.919  0.00  0.00    -0.297 N 
ATOM      9  N   UNL     1      -8.977  -9.174  17.790  0.00  0.00    -0.269 N 
ATOM     19  C   UNL     1      -8.200  -9.840  16.836  0.00  0.00    +0.304 C 
ATOM     29  H   UNL     1      -6.602  -8.754  17.628  0.00  0.00    +0.150 HD
ATOM     31  H   UNL     1      -8.491  -8.515  18.393  0.00  0.00    +0.156 HD
BRANCH   9  22
ATOM      1 CL   UNL     1     -12.753 -10.879  20.823  0.00  0.00    -0.083 Cl
ATOM     22  C   UNL     1     -10.365  -9.307  18.024  0.00  0.00    +0.036 A 
ATOM     23  C   UNL     1     -10.821  -9.952  19.175  0.00  0.00    +0.043 A 
ATOM     24  C   UNL     1     -11.279  -8.792  17.105  0.00  0.00    +0.023 A 
ATOM     25  C   UNL     1     -12.190 -10.082  19.405  0.00  0.00    +0.043 A 
ATOM     26  C   UNL     1     -12.649  -8.922  17.335  0.00  0.00    +0.003 A 
ATOM     27  C   UNL     1     -13.105  -9.567  18.485  0.00  0.00    +0.020 A 
ENDBRANCH   9  22
ENDBRANCH  14   7
ENDBRANCH  11  14
BRANCH  13  15
ATOM     15  C   UNL     1      -6.083 -11.359  20.125  0.00  0.00    +0.190 C 
BRANCH  15   4
ATOM      4  O   UNL     1      -6.882 -10.219  19.858  0.00  0.00    -0.392 OA
ATOM     30  H   UNL     1      -6.299  -9.442  19.905  0.00  0.00    +0.210 HD
ENDBRANCH  15   4
ENDBRANCH  13  15
TORSDOF 10
ENDMDL
MODEL 5
REMARK VINA RESULT:      -5.6     26.580     29.950
REMARK  Name = 28961487
REMARK  13 active torsions:
REMARK  status: ('A' for Active; 'I' for Inactive)
REMARK    1  A    between atoms: O_3  and  C_12
REMARK    2  A    between atoms: O_4  and  C_15
REMARK    3  A    between atoms: N_6  and  C_10
REMARK    4  A    between atoms: N_6  and  C_16
REMARK    5  A    between atoms: N_6  and  C_17
REMARK    6  A    between atoms: N_7  and  C_14
REMARK    7  A    between atoms: N_8  and  C_18
REMARK    8  A    between atoms: N_8  and  C_20
REMARK    9  A    between atoms: N_8  and  C_21
REMARK   10  A    between atoms: N_9  and  C_22
REMARK   11  A    between atoms: C_11  and  C_14
REMARK   12  A    between atoms: C_13  and  C_15
REMARK   13  A    between atoms: C_16  and  C_18
REMARK                            x       y       z     vdW  Elec       q    Type
REMARK                         _______ _______ _______ _____ _____    ______ ____
ROOT
ATOM      2  O   UNL     1      -5.028 -10.243  18.219  0.00  0.00    -0.365 OA
ATOM     10  C   UNL     1      -4.652 -12.030  16.691  0.00  0.00    +0.118 C 
ATOM     11  C   UNL     1      -4.838 -10.511  16.812  0.00  0.00    +0.155 C 
ATOM     12  C   UNL     1      -5.385 -12.564  17.911  0.00  0.00    +0.165 C 
ATOM     13  C   UNL     1      -5.039 -11.492  18.938  0.00  0.00    +0.174 C 
ENDROOT
BRANCH  12   3
ATOM      3  O   UNL     1      -6.790 -12.608  17.696  0.00  0.00    -0.388 OA
ATOM     28  H   UNL     1      -7.141 -11.716  17.855  0.00  0.00    +0.210 HD
ENDBRANCH  12   3
BRANCH  10   6
ATOM      6  N   UNL     1      -5.041 -12.625  15.425  0.00  0.00    -0.296 NA
ATOM     17  C   UNL     1      -5.043 -14.088  15.514  0.00  0.00    +0.105 C 
BRANCH   6  16
ATOM     16  C   UNL     1      -4.147 -12.190  14.346  0.00  0.00    +0.100 C 
BRANCH  16  18
ATOM     18  C   UNL     1      -2.706 -12.576  14.668  0.00  0.00    +0.099 C 
BRANCH  18   8
ATOM      8  N   UNL     1      -1.808 -11.470  14.358  0.00  0.00    -0.307 NA
ATOM     20  C   UNL     1      -1.241 -10.907  15.585  0.00  0.00    +0.104 C 
ATOM     21  C   UNL     1      -2.510 -10.433  13.601  0.00  0.00    +0.104 C 
ENDBRANCH  18   8
ENDBRANCH  16  18
ENDBRANCH   6  16
ENDBRANCH  10   6
BRANCH  11  14
ATOM     14  C   UNL     1      -6.026  -9.907  16.072  0.00  0.00    +0.139 C 
BRANCH  14   7
ATOM      5  O   UNL     1      -8.728 -10.826  16.313  0.00  0.00    -0.253 OA
ATOM      7  N   UNL     1      -7.015  -9.427  16.990  0.00  0.00    -0.297 N 
ATOM      9  N   UNL     1      -9.063  -9.272  18.041  0.00  0.00    -0.269 N 
ATOM     19  C   UNL     1      -8.326  -9.930  17.050  0.00  0.00    +0.304 C 
ATOM     29  H   UNL     1      -6.749  -8.694  17.640  0.00  0.00    +0.150 HD
ATOM     31  H   UNL     1      -8.576  -8.549  18.565  0.00  0.00    +0.156 HD
BRANCH   9  22
ATOM      1 CL   UNL     1     -14.040  -8.758  16.889  0.00  0.00    -0.083 Cl
ATOM     22  C   UNL     1     -10.411  -9.489  18.407  0.00  0.00    +0.036 A 
ATOM     23  C   UNL     1     -11.440  -9.066  17.565  0.00  0.00    +0.043 A 
ATOM     24  C   UNL     1     -10.712 -10.126  19.610  0.00  0.00    +0.023 A 
ATOM     25  C   UNL     1     -12.770  -9.281  17.926  0.00  0.00    +0.043 A 
ATOM     26  C   UNL     1     -12.043 -10.341  19.972  0.00  0.00    +0.003 A 
ATOM     27  C   UNL     1     -13.072  -9.918  19.131  0.00  0.00    +0.020 A 
ENDBRANCH   9  22
ENDBRANCH  14   7
ENDBRANCH  11  14
BRANCH  13  15
ATOM     15  C   UNL     1      -5.992 -11.384  20.115  0.00  0.00    +0.190 C 
BRANCH  15   4
ATOM      4  O   UNL     1      -6.830 -10.256  19.925  0.00  0.00    -0.392 OA
ATOM     30  H   UNL     1      -6.414  -9.700  19.245  0.00  0.00    +0.210 HD
ENDBRANCH  15   4
ENDBRANCH  13  15
TORSDOF 10
ENDMDL
MODEL 6
REMARK VINA RESULT:      -5.5     27.650     30.545
REMARK  Name = 28961487
REMARK  13 active torsions:
REMARK  status: ('A' for Active; 'I' for Inactive)
REMARK    1  A    between atoms: O_3  and  C_12
REMARK    2  A    between atoms: O_4  and  C_15
REMARK    3  A    between atoms: N_6  and  C_10
REMARK    4  A    between atoms: N_6  and  C_16
REMARK    5  A    between atoms: N_6  and  C_17
REMARK    6  A    between atoms: N_7  and  C_14
REMARK    7  A    between atoms: N_8  and  C_18
REMARK    8  A    between atoms: N_8  and  C_20
REMARK    9  A    between atoms: N_8  and  C_21
REMARK   10  A    between atoms: N_9  and  C_22
REMARK   11  A    between atoms: C_11  and  C_14
REMARK   12  A    between atoms: C_13  and  C_15
REMARK   13  A    between atoms: C_16  and  C_18
REMARK                            x       y       z     vdW  Elec       q    Type
REMARK                         _______ _______ _______ _____ _____    ______ ____
ROOT
ATOM      2  O   UNL     1      -7.796 -11.001  19.904  0.00  0.00    -0.365 OA
ATOM     10  C   UNL     1      -7.003 -12.679  18.411  0.00  0.00    +0.118 C 
ATOM     11  C   UNL     1      -6.711 -11.289  18.994  0.00  0.00    +0.155 C 
ATOM     12  C   UNL     1      -8.516 -12.787  18.526  0.00  0.00    +0.165 C 
ATOM     13  C   UNL     1      -8.748 -12.082  19.857  0.00  0.00    +0.174 C 
ENDROOT
BRANCH  12   3
ATOM      3  O   UNL     1      -9.170 -12.088  17.474  0.00  0.00    -0.388 OA
ATOM     28  H   UNL     1      -8.631 -12.192  16.673  0.00  0.00    +0.210 HD
ENDBRANCH  12   3
BRANCH  10   6
ATOM      6  N   UNL     1      -6.462 -12.948  17.092  0.00  0.00    -0.296 NA
ATOM     17  C   UNL     1      -7.051 -14.164  16.523  0.00  0.00    +0.105 C 
BRANCH   6  16
ATOM     16  C   UNL     1      -5.001 -13.075  17.142  0.00  0.00    +0.100 C 
BRANCH  16  18
ATOM     18  C   UNL     1      -4.390 -12.665  15.806  0.00  0.00    +0.099 C 
BRANCH  18   8
ATOM      8  N   UNL     1      -4.221 -11.218  15.752  0.00  0.00    -0.307 NA
ATOM     20  C   UNL     1      -4.373 -10.732  14.380  0.00  0.00    +0.104 C 
ATOM     21  C   UNL     1      -2.912 -10.834  16.285  0.00  0.00    +0.104 C 
ENDBRANCH  18   8
ENDBRANCH  16  18
ENDBRANCH   6  16
ENDBRANCH  10   6
BRANCH  11  14
ATOM     14  C   UNL     1      -6.636 -10.134  18.001  0.00  0.00    +0.139 C 
BRANCH  14   7
ATOM      5  O   UNL     1      -8.574  -9.469  16.000  0.00  0.00    -0.253 OA
ATOM      7  N   UNL     1      -7.753  -9.251  18.151  0.00  0.00    -0.297 N 
ATOM      9  N   UNL     1      -9.650  -8.080  17.557  0.00  0.00    -0.269 N 
ATOM     19  C   UNL     1      -8.666  -8.973  17.119  0.00  0.00    +0.304 C 
ATOM     29  H   UNL     1      -7.900  -8.815  19.056  0.00  0.00    +0.150 HD
ATOM     31  H   UNL     1      -9.580  -7.763  18.521  0.00  0.00    +0.156 HD
BRANCH   9  22
ATOM      1 CL   UNL     1     -14.584  -8.464  16.193  0.00  0.00    -0.083 Cl
ATOM     22  C   UNL     1     -10.738  -7.559  16.820  0.00  0.00    +0.036 A 
ATOM     23  C   UNL     1     -11.980  -8.194  16.866  0.00  0.00    +0.043 A 
ATOM     24  C   UNL     1     -10.572  -6.410  16.049  0.00  0.00    +0.023 A 
ATOM     25  C   UNL     1     -13.053  -7.680  16.139  0.00  0.00    +0.043 A 
ATOM     26  C   UNL     1     -11.645  -5.895  15.322  0.00  0.00    +0.003 A 
ATOM     27  C   UNL     1     -12.886  -6.530  15.366  0.00  0.00    +0.020 A 
ENDBRANCH   9  22
ENDBRANCH  14   7
ENDBRANCH  11  14
BRANCH  13  15
ATOM     15  C   UNL     1     -10.145 -11.527  20.068  0.00  0.00    +0.190 C 
BRANCH  15   4
ATOM      4  O   UNL     1     -10.113 -10.121  19.889  0.00  0.00    -0.392 OA
ATOM     30  H   UNL     1      -9.195  -9.879  19.680  0.00  0.00    +0.210 HD
ENDBRANCH  15   4
ENDBRANCH  13  15
TORSDOF 10
ENDMDL
MODEL 7
REMARK VINA RESULT:      -5.2     16.670     17.900
REMARK  Name = 28961487
REMARK  13 active torsions:
REMARK  status: ('A' for Active; 'I' for Inactive)
REMARK    1  A    between atoms: O_3  and  C_12
REMARK    2  A    between atoms: O_4  and  C_15
REMARK    3  A    between atoms: N_6  and  C_10
REMARK    4  A    between atoms: N_6  and  C_16
REMARK    5  A    between atoms: N_6  and  C_17
REMARK    6  A    between atoms: N_7  and  C_14
REMARK    7  A    between atoms: N_8  and  C_18
REMARK    8  A    between atoms: N_8  and  C_20
REMARK    9  A    between atoms: N_8  and  C_21
REMARK   10  A    between atoms: N_9  and  C_22
REMARK   11  A    between atoms: C_11  and  C_14
REMARK   12  A    between atoms: C_13  and  C_15
REMARK   13  A    between atoms: C_16  and  C_18
REMARK                            x       y       z     vdW  Elec       q    Type
REMARK                         _______ _______ _______ _____ _____    ______ ____
ROOT
ATOM      2  O   UNL     1       9.066   5.443   6.989  0.00  0.00    -0.365 OA
ATOM     10  C   UNL     1      10.746   7.099   6.663  0.00  0.00    +0.118 C 
ATOM     11  C   UNL     1       9.820   6.105   5.948  0.00  0.00    +0.155 C 
ATOM     12  C   UNL     1      10.918   6.477   8.040  0.00  0.00    +0.165 C 
ATOM     13  C   UNL     1       9.521   5.915   8.272  0.00  0.00    +0.174 C 
ENDROOT
BRANCH  12   3
ATOM      3  O   UNL     1      11.878   5.428   8.022  0.00  0.00    -0.388 OA
ATOM     28  H   UNL     1      11.632   4.792   8.714  0.00  0.00    +0.210 HD
ENDBRANCH  12   3
BRANCH  10   6
ATOM      6  N   UNL     1      11.980   7.434   5.976  0.00  0.00    -0.296 NA
ATOM     17  C   UNL     1      12.991   7.915   6.922  0.00  0.00    +0.105 C 
BRANCH   6  16
ATOM     16  C   UNL     1      11.743   8.443   4.939  0.00  0.00    +0.100 C 
BRANCH  16  18
ATOM     18  C   UNL     1      13.013   8.671   4.125  0.00  0.00    +0.099 C 
BRANCH  18   8
ATOM      8  N   UNL     1      13.071   7.735   3.009  0.00  0.00    -0.307 NA
ATOM     20  C   UNL     1      14.259   6.886   3.109  0.00  0.00    +0.104 C 
ATOM     21  C   UNL     1      13.065   8.454   1.734  0.00  0.00    +0.104 C 
ENDBRANCH  18   8
ENDBRANCH  16  18
ENDBRANCH   6  16
ENDBRANCH  10   6
BRANCH  11  14
ATOM     14  C   UNL     1      10.495   5.019   5.118  0.00  0.00    +0.139 C 
BRANCH  14   7
ATOM      5  O   UNL     1      11.289   3.427   2.873  0.00  0.00    -0.253 OA
ATOM      7  N   UNL     1      10.782   5.487   3.795  0.00  0.00    -0.297 N 
ATOM      9  N   UNL     1      11.379   5.377   1.570  0.00  0.00    -0.269 N 
ATOM     19  C   UNL     1      11.167   4.641   2.740  0.00  0.00    +0.304 C 
ATOM     29  H   UNL     1      10.690   6.480   3.607  0.00  0.00    +0.150 HD
ATOM     31  H   UNL     1      11.234   6.382   1.630  0.00  0.00    +0.156 HD
BRANCH   9  22
ATOM      1 CL   UNL     1      15.178   4.386  -1.739  0.00  0.00    -0.083 Cl
ATOM     22  C   UNL     1      11.774   4.893   0.300  0.00  0.00    +0.036 A 
ATOM     23  C   UNL     1      13.124   4.879  -0.052  0.00  0.00    +0.043 A 
ATOM     24  C   UNL     1      10.814   4.430  -0.598  0.00  0.00    +0.023 A 
ATOM     25  C   UNL     1      13.513   4.402  -1.303  0.00  0.00    +0.043 A 
ATOM     26  C   UNL     1      11.203   3.952  -1.850  0.00  0.00    +0.003 A 
ATOM     27  C   UNL     1      12.552   3.938  -2.203  0.00  0.00    +0.020 A 
ENDBRANCH   9  22
ENDBRANCH  14   7
ENDBRANCH  11  14
BRANCH  13  15
ATOM     15  C   UNL     1       9.431   4.785   9.282  0.00  0.00    +0.190 C 
BRANCH  15   4
ATOM      4  O   UNL     1      10.375   5.016  10.315  0.00  0.00    -0.392 OA
ATOM     30  H   UNL     1      11.036   4.305  10.263  0.00  0.00    +0.210 HD
ENDBRANCH  15   4
ENDBRANCH  13  15
TORSDOF 10
ENDMDL
MODEL 8
REMARK VINA RESULT:      -5.1     15.821     16.992
REMARK  Name = 28961487
REMARK  13 active torsions:
REMARK  status: ('A' for Active; 'I' for Inactive)
REMARK    1  A    between atoms: O_3  and  C_12
REMARK    2  A    between atoms: O_4  and  C_15
REMARK    3  A    between atoms: N_6  and  C_10
REMARK    4  A    between atoms: N_6  and  C_16
REMARK    5  A    between atoms: N_6  and  C_17
REMARK    6  A    between atoms: N_7  and  C_14
REMARK    7  A    between atoms: N_8  and  C_18
REMARK    8  A    between atoms: N_8  and  C_20
REMARK    9  A    between atoms: N_8  and  C_21
REMARK   10  A    between atoms: N_9  and  C_22
REMARK   11  A    between atoms: C_11  and  C_14
REMARK   12  A    between atoms: C_13  and  C_15
REMARK   13  A    between atoms: C_16  and  C_18
REMARK                            x       y       z     vdW  Elec       q    Type
REMARK                         _______ _______ _______ _____ _____    ______ ____
ROOT
ATOM      2  O   UNL     1       8.869   6.162   6.655  0.00  0.00    -0.365 OA
ATOM     10  C   UNL     1      10.522   7.790   7.191  0.00  0.00    +0.118 C 
ATOM     11  C   UNL     1       9.238   7.533   6.389  0.00  0.00    +0.155 C 
ATOM     12  C   UNL     1      11.128   6.401   7.320  0.00  0.00    +0.165 C 
ATOM     13  C   UNL     1       9.871   5.560   7.498  0.00  0.00    +0.174 C 
ENDROOT
BRANCH  12   3
ATOM      3  O   UNL     1      11.815   6.021   6.134  0.00  0.00    -0.388 OA
ATOM     28  H   UNL     1      12.725   5.788   6.384  0.00  0.00    +0.210 HD
ENDBRANCH  12   3
BRANCH  10   6
ATOM      6  N   UNL     1      11.412   8.809   6.668  0.00  0.00    -0.296 NA
ATOM     17  C   UNL     1      12.774   8.626   7.180  0.00  0.00    +0.105 C 
BRANCH   6  16
ATOM     16  C   UNL     1      10.926  10.151   7.004  0.00  0.00    +0.100 C 
BRANCH  16  18
ATOM     18  C   UNL     1      10.633  10.246   8.499  0.00  0.00    +0.099 C 
BRANCH  18   8
ATOM      8  N   UNL     1       9.363  10.927   8.720  0.00  0.00    -0.307 NA
ATOM     20  C   UNL     1       9.141  11.951   7.697  0.00  0.00    +0.104 C 
ATOM     21  C   UNL     1       9.327  11.527  10.055  0.00  0.00    +0.104 C 
ENDBRANCH  18   8
ENDBRANCH  16  18
ENDBRANCH   6  16
ENDBRANCH  10   6
BRANCH  11  14
ATOM     14  C   UNL     1       9.336   7.691   4.876  0.00  0.00    +0.139 C 
BRANCH  14   7
ATOM      5  O   UNL     1      11.013   7.213   2.603  0.00  0.00    -0.253 OA
ATOM      7  N   UNL     1       9.581   6.430   4.242  0.00  0.00    -0.297 N 
ATOM      9  N   UNL     1      10.467   4.933   2.727  0.00  0.00    -0.269 N 
ATOM     19  C   UNL     1      10.420   6.273   3.126  0.00  0.00    +0.304 C 
ATOM     29  H   UNL     1       9.133   5.604   4.628  0.00  0.00    +0.150 HD
ATOM     31  H   UNL     1       9.913   4.277   3.271  0.00  0.00    +0.156 HD
BRANCH   9  22
ATOM      1 CL   UNL     1      10.781   3.978  -2.308  0.00  0.00    -0.083 Cl
ATOM     22  C   UNL     1      11.195   4.373   1.651  0.00  0.00    +0.036 A 
ATOM     23  C   UNL     1      10.688   4.444   0.353  0.00  0.00    +0.043 A 
ATOM     24  C   UNL     1      12.420   3.751   1.888  0.00  0.00    +0.023 A 
ATOM     25  C   UNL     1      11.406   3.893  -0.707  0.00  0.00    +0.043 A 
ATOM     26  C   UNL     1      13.138   3.198   0.828  0.00  0.00    +0.003 A 
ATOM     27  C   UNL     1      12.632   3.269  -0.470  0.00  0.00    +0.020 A 
ENDBRANCH   9  22
ENDBRANCH  14   7
ENDBRANCH  11  14
BRANCH  13  15
ATOM     15  C   UNL     1      10.010   4.091   7.139  0.00  0.00    +0.190 C 
BRANCH  15   4
ATOM      4  O   UNL     1      10.068   3.967   5.728  0.00  0.00    -0.392 OA
ATOM     30  H   UNL     1       9.816   4.828   5.353  0.00  0.00    +0.210 HD
ENDBRANCH  15   4
ENDBRANCH  13  15
TORSDOF 10
ENDMDL
MODEL 9
REMARK VINA RESULT:      -5.0     16.851     18.051
REMARK  Name = 28961487
REMARK  13 active torsions:
REMARK  status: ('A' for Active; 'I' for Inactive)
REMARK    1  A    between atoms: O_3  and  C_12
REMARK    2  A    between atoms: O_4  and  C_15
REMARK    3  A    between atoms: N_6  and  C_10
REMARK    4  A    between atoms: N_6  and  C_16
REMARK    5  A    between atoms: N_6  and  C_17
REMARK    6  A    between atoms: N_7  and  C_14
REMARK    7  A    between atoms: N_8  and  C_18
REMARK    8  A    between atoms: N_8  and  C_20
REMARK    9  A    between atoms: N_8  and  C_21
REMARK   10  A    between atoms: N_9  and  C_22
REMARK   11  A    between atoms: C_11  and  C_14
REMARK   12  A    between atoms: C_13  and  C_15
REMARK   13  A    between atoms: C_16  and  C_18
REMARK                            x       y       z     vdW  Elec       q    Type
REMARK                         _______ _______ _______ _____ _____    ______ ____
ROOT
ATOM      2  O   UNL     1       9.046   5.483   6.804  0.00  0.00    -0.365 OA
ATOM     10  C   UNL     1      10.709   7.110   6.297  0.00  0.00    +0.118 C 
ATOM     11  C   UNL     1       9.771   6.055   5.693  0.00  0.00    +0.155 C 
ATOM     12  C   UNL     1      10.918   6.610   7.717  0.00  0.00    +0.165 C 
ATOM     13  C   UNL     1       9.530   6.064   8.031  0.00  0.00    +0.174 C 
ENDROOT
BRANCH  12   3
ATOM      3  O   UNL     1      11.883   5.566   7.766  0.00  0.00    -0.388 OA
ATOM     28  H   UNL     1      12.609   5.809   7.168  0.00  0.00    +0.210 HD
ENDBRANCH  12   3
BRANCH  10   6
ATOM      6  N   UNL     1      11.924   7.389   5.553  0.00  0.00    -0.296 NA
ATOM     17  C   UNL     1      12.992   7.841   6.449  0.00  0.00    +0.105 C 
BRANCH   6  16
ATOM     16  C   UNL     1      11.681   8.395   4.514  0.00  0.00    +0.100 C 
BRANCH  16  18
ATOM     18  C   UNL     1      10.771   9.496   5.049  0.00  0.00    +0.099 C 
BRANCH  18   8
ATOM      8  N   UNL     1       9.920  10.008   3.982  0.00  0.00    -0.307 NA
ATOM     20  C   UNL     1       8.983  11.005   4.503  0.00  0.00    +0.104 C 
ATOM     21  C   UNL     1       9.191   8.915   3.336  0.00  0.00    +0.104 C 
ENDBRANCH  18   8
ENDBRANCH  16  18
ENDBRANCH   6  16
ENDBRANCH  10   6
BRANCH  11  14
ATOM     14  C   UNL     1      10.431   4.905   4.942  0.00  0.00    +0.139 C 
BRANCH  14   7
ATOM      5  O   UNL     1      11.351   3.198   2.834  0.00  0.00    -0.253 OA
ATOM      7  N   UNL     1      10.819   5.306   3.623  0.00  0.00    -0.297 N 
ATOM      9  N   UNL     1      11.569   5.084   1.453  0.00  0.00    -0.269 N 
ATOM     19  C   UNL     1      11.261   4.406   2.637  0.00  0.00    +0.304 C 
ATOM     29  H   UNL     1      10.759   6.291   3.384  0.00  0.00    +0.150 HD
ATOM     31  H   UNL     1      11.439   6.092   1.458  0.00  0.00    +0.156 HD
BRANCH   9  22
ATOM      1 CL   UNL     1      10.508   2.733  -2.987  0.00  0.00    -0.083 Cl
ATOM     22  C   UNL     1      12.043   4.535   0.238  0.00  0.00    +0.036 A 
ATOM     23  C   UNL     1      11.146   3.971  -0.670  0.00  0.00    +0.043 A 
ATOM     24  C   UNL     1      13.406   4.560  -0.053  0.00  0.00    +0.023 A 
ATOM     25  C   UNL     1      11.613   3.431  -1.867  0.00  0.00    +0.043 A 
ATOM     26  C   UNL     1      13.874   4.019  -1.251  0.00  0.00    +0.003 A 
ATOM     27  C   UNL     1      12.978   3.455  -2.158  0.00  0.00    +0.020 A 
ENDBRANCH   9  22
ENDBRANCH  14   7
ENDBRANCH  11  14
BRANCH  13  15
ATOM     15  C   UNL     1       9.470   5.025   9.136  0.00  0.00    +0.190 C 
BRANCH  15   4
ATOM      4  O   UNL     1      10.023   3.811   8.655  0.00  0.00    -0.392 OA
ATOM     30  H   UNL     1      10.218   3.258   9.431  0.00  0.00    +0.210 HD
ENDBRANCH  15   4
ENDBRANCH  13  15
TORSDOF 10
ENDMDL
MODEL 10
REMARK VINA RESULT:      -4.9     28.088     29.263
REMARK  Name = 28961487
REMARK  13 active torsions:
REMARK  status: ('A' for Active; 'I' for Inactive)
REMARK    1  A    between atoms: O_3  and  C_12
REMARK    2  A    between atoms: O_4  and  C_15
REMARK    3  A    between atoms: N_6  and  C_10
REMARK    4  A    between atoms: N_6  and  C_16
REMARK    5  A    between atoms: N_6  and  C_17
REMARK    6  A    between atoms: N_7  and  C_14
REMARK    7  A    between atoms: N_8  and  C_18
REMARK    8  A    between atoms: N_8  and  C_20
REMARK    9  A    between atoms: N_8  and  C_21
REMARK   10  A    between atoms: N_9  and  C_22
REMARK   11  A    between atoms: C_11  and  C_14
REMARK   12  A    between atoms: C_13  and  C_15
REMARK   13  A    between atoms: C_16  and  C_18
REMARK                            x       y       z     vdW  Elec       q    Type
REMARK                         _______ _______ _______ _____ _____    ______ ____
ROOT
ATOM      2  O   UNL     1      -6.499 -11.745  17.303  0.00  0.00    -0.365 OA
ATOM     10  C   UNL     1      -8.619 -11.173  18.225  0.00  0.00    +0.118 C 
ATOM     11  C   UNL     1      -7.717 -11.033  16.990  0.00  0.00    +0.155 C 
ATOM     12  C   UNL     1      -7.623 -11.380  19.355  0.00  0.00    +0.165 C 
ATOM     13  C   UNL     1      -6.577 -12.239  18.655  0.00  0.00    +0.174 C 
ENDROOT
BRANCH  12   3
ATOM      3  O   UNL     1      -7.050 -10.149  19.778  0.00  0.00    -0.388 OA
ATOM     28  H   UNL     1      -6.127 -10.134  19.474  0.00  0.00    +0.210 HD
ENDBRANCH  12   3
BRANCH  10   6
ATOM      6  N   UNL     1      -9.585 -10.110  18.438  0.00  0.00    -0.296 NA
ATOM     17  C   UNL     1     -10.316 -10.313  19.692  0.00  0.00    +0.105 C 
BRANCH   6  16
ATOM     16  C   UNL     1     -10.526 -10.028  17.316  0.00  0.00    +0.100 C 
BRANCH  16  18
ATOM     18  C   UNL     1     -10.905  -8.574  17.052  0.00  0.00    +0.099 C 
BRANCH  18   8
ATOM      8  N   UNL     1     -10.288  -8.110  15.816  0.00  0.00    -0.307 NA
ATOM     20  C   UNL     1     -10.382  -6.653  15.707  0.00  0.00    +0.104 C 
ATOM     21  C   UNL     1     -10.916  -8.747  14.657  0.00  0.00    +0.104 C 
ENDBRANCH  18   8
ENDBRANCH  16  18
ENDBRANCH   6  16
ENDBRANCH  10   6
BRANCH  11  14
ATOM     14  C   UNL     1      -7.323  -9.616  16.590  0.00  0.00    +0.139 C 
BRANCH  14   7
ATOM      5  O   UNL     1      -5.150 -10.080  14.783  0.00  0.00    -0.253 OA
ATOM      7  N   UNL     1      -7.344  -9.457  15.167  0.00  0.00    -0.297 N 
ATOM      9  N   UNL     1      -6.551  -9.467  13.001  0.00  0.00    -0.269 N 
ATOM     19  C   UNL     1      -6.234  -9.706  14.342  0.00  0.00    +0.304 C 
ATOM     29  H   UNL     1      -8.212  -9.163  14.731  0.00  0.00    +0.150 HD
ATOM     31  H   UNL     1      -7.500  -9.160  12.805  0.00  0.00    +0.156 HD
BRANCH   9  22
ATOM      1 CL   UNL     1      -3.779 -12.540   9.963  0.00  0.00    -0.083 Cl
ATOM     22  C   UNL     1      -5.708  -9.603  11.873  0.00  0.00    +0.036 A 
ATOM     23  C   UNL     1      -5.217 -10.859  11.515  0.00  0.00    +0.043 A 
ATOM     24  C   UNL     1      -5.369  -8.481  11.118  0.00  0.00    +0.023 A 
ATOM     25  C   UNL     1      -4.387 -10.992  10.403  0.00  0.00    +0.043 A 
ATOM     26  C   UNL     1      -4.538  -8.613  10.005  0.00  0.00    +0.003 A 
ATOM     27  C   UNL     1      -4.046  -9.868   9.648  0.00  0.00    +0.020 A 
ENDBRANCH   9  22
ENDBRANCH  14   7
ENDBRANCH  11  14
BRANCH  13  15
ATOM     15  C   UNL     1      -5.192 -12.219  19.276  0.00  0.00    +0.190 C 
BRANCH  15   4
ATOM      4  O   UNL     1      -4.419 -11.215  18.641  0.00  0.00    -0.392 OA
ATOM     30  H   UNL     1      -4.986 -10.431  18.548  0.00  0.00    +0.210 HD
ENDBRANCH  15   4
ENDBRANCH  13  15
TORSDOF 10
ENDMDL
