MODEL 1
REMARK VINA RESULT:      -6.9      0.000      0.000
REMARK  Name = 11884353
REMARK  5 active torsions:
REMARK  status: ('A' for Active; 'I' for Inactive)
REMARK    1  A    between atoms: O_3  and  C_11
REMARK    2  A    between atoms: O_5  and  C_20
REMARK    3  A    between atoms: O_5  and  C_21
REMARK    4  A    between atoms: N_6  and  C_10
REMARK    5  A    between atoms: N_7  and  C_15
REMARK                            x       y       z     vdW  Elec       q    Type
REMARK                         _______ _______ _______ _____ _____    ______ ____
ROOT
ATOM      4  O   UNL     1      17.426   8.594  20.534  0.00  0.00    -0.252 OA
ATOM      6  N   UNL     1      15.606   7.528  21.480  0.00  0.00    -0.292 N 
ATOM      7  N   UNL     1      17.694   6.611  21.760  0.00  0.00    -0.269 N 
ATOM     14  C   UNL     1      16.970   7.664  21.194  0.00  0.00    +0.304 C 
ATOM     27  H   UNL     1      15.298   6.698  21.977  0.00  0.00    +0.151 HD
ATOM     29  H   UNL     1      17.160   5.919  22.280  0.00  0.00    +0.156 HD
ENDROOT
BRANCH   6  10
ATOM      1  O   UNL     1      12.763   7.160  20.253  0.00  0.00    -0.369 OA
ATOM      2  O   UNL     1      12.715   9.812  21.770  0.00  0.00    -0.369 OA
ATOM      8  C   UNL     1      13.452   8.593  22.009  0.00  0.00    +0.172 C 
ATOM      9  C   UNL     1      12.530   7.447  21.644  0.00  0.00    +0.179 C 
ATOM     10  C   UNL     1      14.594   8.478  21.021  0.00  0.00    +0.131 C 
ATOM     11  C   UNL     1      11.163   8.045  21.868  0.00  0.00    +0.171 C 
ATOM     12  C   UNL     1      13.886   7.928  19.791  0.00  0.00    +0.185 C 
ATOM     13  C   UNL     1      11.362   9.476  21.426  0.00  0.00    +0.194 C 
BRANCH  11   3
ATOM      3  O   UNL     1      10.141   7.402  21.139  0.00  0.00    -0.387 OA
ATOM     28  H   UNL     1       9.502   7.037  21.774  0.00  0.00    +0.210 HD
ENDBRANCH  11   3
ENDBRANCH   6  10
BRANCH   7  15
ATOM     15  C   UNL     1      19.088   6.385  21.700  0.00  0.00    +0.035 A 
ATOM     16  C   UNL     1      19.873   6.696  22.798  0.00  0.00    +0.027 A 
ATOM     17  C   UNL     1      19.641   5.858  20.545  0.00  0.00    +0.027 A 
ATOM     18  C   UNL     1      21.250   6.473  22.739  0.00  0.00    +0.048 A 
ATOM     19  C   UNL     1      21.017   5.635  20.485  0.00  0.00    +0.048 A 
ATOM     20  C   UNL     1      21.822   5.943  21.582  0.00  0.00    +0.129 A 
BRANCH  20   5
ATOM      5  O   UNL     1      23.163   5.725  21.525  0.00  0.00    -0.456 OA
BRANCH   5  21
ATOM     21  C   UNL     1      23.596   4.432  21.285  0.00  0.00    +0.128 A 
ATOM     22  C   UNL     1      23.297   3.441  22.202  0.00  0.00    +0.046 A 
ATOM     23  C   UNL     1      24.317   4.165  20.136  0.00  0.00    +0.046 A 
ATOM     24  C   UNL     1      23.734   2.138  21.962  0.00  0.00    +0.004 A 
ATOM     25  C   UNL     1      24.754   2.862  19.896  0.00  0.00    +0.004 A 
ATOM     26  C   UNL     1      24.462   1.849  20.808  0.00  0.00    +0.000 A 
ENDBRANCH   5  21
ENDBRANCH  20   5
ENDBRANCH   7  15
TORSDOF 5
ENDMDL
MODEL 2
REMARK VINA RESULT:      -6.9      1.661     10.255
REMARK  Name = 11884353
REMARK  5 active torsions:
REMARK  status: ('A' for Active; 'I' for Inactive)
REMARK    1  A    between atoms: O_3  and  C_11
REMARK    2  A    between atoms: O_5  and  C_20
REMARK    3  A    between atoms: O_5  and  C_21
REMARK    4  A    between atoms: N_6  and  C_10
REMARK    5  A    between atoms: N_7  and  C_15
REMARK                            x       y       z     vdW  Elec       q    Type
REMARK                         _______ _______ _______ _____ _____    ______ ____
ROOT
ATOM      4  O   UNL     1      18.492   7.586  21.151  0.00  0.00    -0.252 OA
ATOM      6  N   UNL     1      19.647   5.807  20.231  0.00  0.00    -0.292 N 
ATOM      7  N   UNL     1      17.402   6.017  19.786  0.00  0.00    -0.269 N 
ATOM     14  C   UNL     1      18.496   6.573  20.455  0.00  0.00    +0.304 C 
ATOM     27  H   UNL     1      19.557   4.948  19.697  0.00  0.00    +0.151 HD
ATOM     29  H   UNL     1      17.578   5.171  19.251  0.00  0.00    +0.156 HD
ENDROOT
BRANCH   6  10
ATOM      1  O   UNL     1      21.393   4.461  22.436  0.00  0.00    -0.369 OA
ATOM      2  O   UNL     1      23.333   5.807  20.495  0.00  0.00    -0.369 OA
ATOM      8  C   UNL     1      22.034   5.213  20.282  0.00  0.00    +0.172 C 
ATOM      9  C   UNL     1      21.952   4.003  21.191  0.00  0.00    +0.179 C 
ATOM     10  C   UNL     1      20.952   6.137  20.800  0.00  0.00    +0.131 C 
ATOM     11  C   UNL     1      23.402   3.611  21.343  0.00  0.00    +0.171 C 
ATOM     12  C   UNL     1      20.962   5.824  22.289  0.00  0.00    +0.185 C 
ATOM     13  C   UNL     1      24.096   4.954  21.362  0.00  0.00    +0.194 C 
BRANCH  11   3
ATOM      3  O   UNL     1      23.664   2.863  22.508  0.00  0.00    -0.387 OA
ATOM     28  H   UNL     1      24.496   3.187  22.894  0.00  0.00    +0.210 HD
ENDBRANCH  11   3
ENDBRANCH   6  10
BRANCH   7  15
ATOM     15  C   UNL     1      16.069   6.488  19.761  0.00  0.00    +0.035 A 
ATOM     16  C   UNL     1      15.320   6.464  20.926  0.00  0.00    +0.027 A 
ATOM     17  C   UNL     1      15.539   6.964  18.573  0.00  0.00    +0.027 A 
ATOM     18  C   UNL     1      14.004   6.929  20.901  0.00  0.00    +0.048 A 
ATOM     19  C   UNL     1      14.225   7.428  18.548  0.00  0.00    +0.048 A 
ATOM     20  C   UNL     1      13.456   7.410  19.712  0.00  0.00    +0.129 A 
BRANCH  20   5
ATOM      5  O   UNL     1      12.174   7.865  19.688  0.00  0.00    -0.456 OA
BRANCH   5  21
ATOM     21  C   UNL     1      11.843   8.904  20.541  0.00  0.00    +0.128 A 
ATOM     22  C   UNL     1      12.393  10.155  20.323  0.00  0.00    +0.046 A 
ATOM     23  C   UNL     1      10.974   8.666  21.589  0.00  0.00    +0.046 A 
ATOM     24  C   UNL     1      12.061  11.202  21.181  0.00  0.00    +0.004 A 
ATOM     25  C   UNL     1      10.643   9.713  22.448  0.00  0.00    +0.004 A 
ATOM     26  C   UNL     1      11.186  10.982  22.244  0.00  0.00    +0.000 A 
ENDBRANCH   5  21
ENDBRANCH  20   5
ENDBRANCH   7  15
TORSDOF 5
ENDMDL
MODEL 3
REMARK VINA RESULT:      -6.6      2.091      3.335
REMARK  Name = 11884353
REMARK  5 active torsions:
REMARK  status: ('A' for Active; 'I' for Inactive)
REMARK    1  A    between atoms: O_3  and  C_11
REMARK    2  A    between atoms: O_5  and  C_20
REMARK    3  A    between atoms: O_5  and  C_21
REMARK    4  A    between atoms: N_6  and  C_10
REMARK    5  A    between atoms: N_7  and  C_15
REMARK                            x       y       z     vdW  Elec       q    Type
REMARK                         _______ _______ _______ _____ _____    ______ ____
ROOT
ATOM      4  O   UNL     1      15.172   9.902  20.066  0.00  0.00    -0.252 OA
ATOM      6  N   UNL     1      13.383   8.988  21.209  0.00  0.00    -0.292 N 
ATOM      7  N   UNL     1      15.403   7.894  21.261  0.00  0.00    -0.269 N 
ATOM     14  C   UNL     1      14.714   9.009  20.775  0.00  0.00    +0.304 C 
ATOM     27  H   UNL     1      13.062   8.183  21.739  0.00  0.00    +0.151 HD
ATOM     29  H   UNL     1      14.872   7.247  21.837  0.00  0.00    +0.156 HD
ENDROOT
BRANCH   6  10
ATOM      1  O   UNL     1      10.750   9.958  22.570  0.00  0.00    -0.369 OA
ATOM      2  O   UNL     1      11.923  12.382  21.125  0.00  0.00    -0.369 OA
ATOM      8  C   UNL     1      12.561  11.244  21.745  0.00  0.00    +0.172 C 
ATOM      9  C   UNL     1      11.750  10.908  22.980  0.00  0.00    +0.179 C 
ATOM     10  C   UNL     1      12.411  10.023  20.862  0.00  0.00    +0.131 C 
ATOM     11  C   UNL     1      11.138  12.240  23.340  0.00  0.00    +0.171 C 
ATOM     12  C   UNL     1      11.007   9.555  21.215  0.00  0.00    +0.185 C 
ATOM     13  C   UNL     1      10.869  12.846  21.982  0.00  0.00    +0.194 C 
BRANCH  11   3
ATOM      3  O   UNL     1       9.964  12.130  24.113  0.00  0.00    -0.387 OA
ATOM     28  H   UNL     1       9.224  11.946  23.511  0.00  0.00    +0.210 HD
ENDBRANCH  11   3
ENDBRANCH   6  10
BRANCH   7  15
ATOM     15  C   UNL     1      16.758   7.551  21.048  0.00  0.00    +0.035 A 
ATOM     16  C   UNL     1      17.066   6.484  20.220  0.00  0.00    +0.027 A 
ATOM     17  C   UNL     1      17.751   8.288  21.673  0.00  0.00    +0.027 A 
ATOM     18  C   UNL     1      18.403   6.145  20.010  0.00  0.00    +0.048 A 
ATOM     19  C   UNL     1      19.087   7.949  21.464  0.00  0.00    +0.048 A 
ATOM     20  C   UNL     1      19.414   6.877  20.633  0.00  0.00    +0.129 A 
BRANCH  20   5
ATOM      5  O   UNL     1      20.718   6.548  20.427  0.00  0.00    -0.456 OA
BRANCH   5  21
ATOM     21  C   UNL     1      21.250   5.519  21.187  0.00  0.00    +0.128 A 
ATOM     22  C   UNL     1      21.760   5.803  22.441  0.00  0.00    +0.046 A 
ATOM     23  C   UNL     1      21.260   4.236  20.672  0.00  0.00    +0.046 A 
ATOM     24  C   UNL     1      22.297   4.768  23.206  0.00  0.00    +0.004 A 
ATOM     25  C   UNL     1      21.798   3.202  21.437  0.00  0.00    +0.004 A 
ATOM     26  C   UNL     1      22.316   3.467  22.704  0.00  0.00    +0.000 A 
ENDBRANCH   5  21
ENDBRANCH  20   5
ENDBRANCH   7  15
TORSDOF 5
ENDMDL
MODEL 4
REMARK VINA RESULT:      -6.5      2.619     10.362
REMARK  Name = 11884353
REMARK  5 active torsions:
REMARK  status: ('A' for Active; 'I' for Inactive)
REMARK    1  A    between atoms: O_3  and  C_11
REMARK    2  A    between atoms: O_5  and  C_20
REMARK    3  A    between atoms: O_5  and  C_21
REMARK    4  A    between atoms: N_6  and  C_10
REMARK    5  A    between atoms: N_7  and  C_15
REMARK                            x       y       z     vdW  Elec       q    Type
REMARK                         _______ _______ _______ _____ _____    ______ ____
ROOT
ATOM      4  O   UNL     1      20.361   3.615  20.611  0.00  0.00    -0.252 OA
ATOM      6  N   UNL     1      22.222   4.967  20.377  0.00  0.00    -0.292 N 
ATOM      7  N   UNL     1      20.136   5.918  20.216  0.00  0.00    -0.269 N 
ATOM     14  C   UNL     1      20.842   4.730  20.420  0.00  0.00    +0.304 C 
ATOM     27  H   UNL     1      22.543   5.903  20.150  0.00  0.00    +0.151 HD
ATOM     29  H   UNL     1      20.691   6.757  20.072  0.00  0.00    +0.156 HD
ENDROOT
BRANCH   6  10
ATOM      1  O   UNL     1      25.256   5.033  21.092  0.00  0.00    -0.369 OA
ATOM      2  O   UNL     1      24.163   2.403  22.197  0.00  0.00    -0.369 OA
ATOM      8  C   UNL     1      23.537   3.692  22.019  0.00  0.00    +0.172 C 
ATOM      9  C   UNL     1      24.591   4.736  22.333  0.00  0.00    +0.179 C 
ATOM     10  C   UNL     1      23.221   3.916  20.556  0.00  0.00    +0.131 C 
ATOM     11  C   UNL     1      25.499   4.003  23.291  0.00  0.00    +0.171 C 
ATOM     12  C   UNL     1      24.566   4.381  20.015  0.00  0.00    +0.185 C 
ATOM     13  C   UNL     1      25.478   2.596  22.739  0.00  0.00    +0.194 C 
BRANCH  11   3
ATOM      3  O   UNL     1      26.805   4.532  23.343  0.00  0.00    -0.387 OA
ATOM     28  H   UNL     1      27.408   3.819  23.615  0.00  0.00    +0.210 HD
ENDBRANCH  11   3
ENDBRANCH   6  10
BRANCH   7  15
ATOM     15  C   UNL     1      18.735   6.101  20.186  0.00  0.00    +0.035 A 
ATOM     16  C   UNL     1      18.102   6.675  21.276  0.00  0.00    +0.027 A 
ATOM     17  C   UNL     1      18.022   5.701  19.068  0.00  0.00    +0.027 A 
ATOM     18  C   UNL     1      16.719   6.856  21.247  0.00  0.00    +0.048 A 
ATOM     19  C   UNL     1      16.639   5.881  19.038  0.00  0.00    +0.048 A 
ATOM     20  C   UNL     1      15.987   6.458  20.128  0.00  0.00    +0.129 A 
BRANCH  20   5
ATOM      5  O   UNL     1      14.639   6.635  20.099  0.00  0.00    -0.456 OA
BRANCH   5  21
ATOM     21  C   UNL     1      14.133   7.592  19.236  0.00  0.00    +0.128 A 
ATOM     22  C   UNL     1      12.982   7.313  18.521  0.00  0.00    +0.046 A 
ATOM     23  C   UNL     1      14.792   8.801  19.109  0.00  0.00    +0.046 A 
ATOM     24  C   UNL     1      12.472   8.276  17.650  0.00  0.00    +0.004 A 
ATOM     25  C   UNL     1      14.282   9.764  18.238  0.00  0.00    +0.004 A 
ATOM     26  C   UNL     1      13.122   9.502  17.509  0.00  0.00    +0.000 A 
ENDBRANCH   5  21
ENDBRANCH  20   5
ENDBRANCH   7  15
TORSDOF 5
ENDMDL
MODEL 5
REMARK VINA RESULT:      -6.3      2.264     10.437
REMARK  Name = 11884353
REMARK  5 active torsions:
REMARK  status: ('A' for Active; 'I' for Inactive)
REMARK    1  A    between atoms: O_3  and  C_11
REMARK    2  A    between atoms: O_5  and  C_20
REMARK    3  A    between atoms: O_5  and  C_21
REMARK    4  A    between atoms: N_6  and  C_10
REMARK    5  A    between atoms: N_7  and  C_15
REMARK                            x       y       z     vdW  Elec       q    Type
REMARK                         _______ _______ _______ _____ _____    ______ ____
ROOT
ATOM      4  O   UNL     1      21.886   6.593  20.369  0.00  0.00    -0.252 OA
ATOM      6  N   UNL     1      22.226   4.312  20.537  0.00  0.00    -0.292 N 
ATOM      7  N   UNL     1      20.071   5.104  20.428  0.00  0.00    -0.269 N 
ATOM     14  C   UNL     1      21.424   5.456  20.437  0.00  0.00    +0.304 C 
ATOM     27  H   UNL     1      21.770   3.413  20.654  0.00  0.00    +0.151 HD
ATOM     29  H   UNL     1      19.859   4.112  20.492  0.00  0.00    +0.156 HD
ENDROOT
BRANCH   6  10
ATOM      1  O   UNL     1      24.321   3.439  22.675  0.00  0.00    -0.369 OA
ATOM      2  O   UNL     1      25.674   3.119  19.954  0.00  0.00    -0.369 OA
ATOM      8  C   UNL     1      24.291   2.989  20.349  0.00  0.00    +0.172 C 
ATOM      9  C   UNL     1      24.289   2.357  21.726  0.00  0.00    +0.179 C 
ATOM     10  C   UNL     1      23.686   4.359  20.570  0.00  0.00    +0.131 C 
ATOM     11  C   UNL     1      25.579   1.575  21.729  0.00  0.00    +0.171 C 
ATOM     12  C   UNL     1      24.163   4.685  21.978  0.00  0.00    +0.185 C 
ATOM     13  C   UNL     1      26.500   2.474  20.936  0.00  0.00    +0.194 C 
BRANCH  11   3
ATOM      3  O   UNL     1      26.078   1.314  23.022  0.00  0.00    -0.387 OA
ATOM     28  H   UNL     1      25.319   1.173  23.613  0.00  0.00    +0.210 HD
ENDBRANCH  11   3
ENDBRANCH   6  10
BRANCH   7  15
ATOM     15  C   UNL     1      18.952   5.963  20.341  0.00  0.00    +0.035 A 
ATOM     16  C   UNL     1      18.859   7.045  21.200  0.00  0.00    +0.027 A 
ATOM     17  C   UNL     1      17.970   5.704  19.399  0.00  0.00    +0.027 A 
ATOM     18  C   UNL     1      17.754   7.893  21.114  0.00  0.00    +0.048 A 
ATOM     19  C   UNL     1      16.865   6.551  19.312  0.00  0.00    +0.048 A 
ATOM     20  C   UNL     1      16.756   7.645  20.170  0.00  0.00    +0.129 A 
BRANCH  20   5
ATOM      5  O   UNL     1      15.680   8.472  20.086  0.00  0.00    -0.456 OA
BRANCH   5  21
ATOM     21  C   UNL     1      14.422   7.910  20.226  0.00  0.00    +0.128 A 
ATOM     22  C   UNL     1      13.684   7.619  19.092  0.00  0.00    +0.046 A 
ATOM     23  C   UNL     1      13.935   7.655  21.494  0.00  0.00    +0.046 A 
ATOM     24  C   UNL     1      12.417   7.054  19.233  0.00  0.00    +0.004 A 
ATOM     25  C   UNL     1      12.668   7.090  21.635  0.00  0.00    +0.004 A 
ATOM     26  C   UNL     1      11.909   6.789  20.503  0.00  0.00    +0.000 A 
ENDBRANCH   5  21
ENDBRANCH  20   5
ENDBRANCH   7  15
TORSDOF 5
ENDMDL
MODEL 6
REMARK VINA RESULT:      -6.3     30.804     33.598
REMARK  Name = 11884353
REMARK  5 active torsions:
REMARK  status: ('A' for Active; 'I' for Inactive)
REMARK    1  A    between atoms: O_3  and  C_11
REMARK    2  A    between atoms: O_5  and  C_20
REMARK    3  A    between atoms: O_5  and  C_21
REMARK    4  A    between atoms: N_6  and  C_10
REMARK    5  A    between atoms: N_7  and  C_15
REMARK                            x       y       z     vdW  Elec       q    Type
REMARK                         _______ _______ _______ _____ _____    ______ ____
ROOT
ATOM      4  O   UNL     1     -14.126   4.552  33.793  0.00  0.00    -0.252 OA
ATOM      6  N   UNL     1     -15.000   4.379  31.660  0.00  0.00    -0.292 N 
ATOM      7  N   UNL     1     -13.912   6.314  32.256  0.00  0.00    -0.269 N 
ATOM     14  C   UNL     1     -14.318   5.047  32.685  0.00  0.00    +0.304 C 
ATOM     27  H   UNL     1     -15.176   4.879  30.793  0.00  0.00    +0.151 HD
ATOM     29  H   UNL     1     -14.153   6.570  31.302  0.00  0.00    +0.156 HD
ENDROOT
BRANCH   6  10
ATOM      1  O   UNL     1     -15.474   2.056  29.635  0.00  0.00    -0.369 OA
ATOM      2  O   UNL     1     -14.945   0.749  32.346  0.00  0.00    -0.369 OA
ATOM      8  C   UNL     1     -14.459   1.983  31.775  0.00  0.00    +0.172 C 
ATOM      9  C   UNL     1     -14.240   1.723  30.297  0.00  0.00    +0.179 C 
ATOM     10  C   UNL     1     -15.548   3.033  31.807  0.00  0.00    +0.131 C 
ATOM     11  C   UNL     1     -13.973   0.238  30.263  0.00  0.00    +0.171 C 
ATOM     12  C   UNL     1     -16.368   2.669  30.578  0.00  0.00    +0.185 C 
ATOM     13  C   UNL     1     -14.896  -0.278  31.344  0.00  0.00    +0.194 C 
BRANCH  11   3
ATOM      3  O   UNL     1     -14.240  -0.354  29.012  0.00  0.00    -0.387 OA
ATOM     28  H   UNL     1     -14.273   0.354  28.346  0.00  0.00    +0.210 HD
ENDBRANCH  11   3
ENDBRANCH   6  10
BRANCH   7  15
ATOM     15  C   UNL     1     -13.201   7.291  32.989  0.00  0.00    +0.035 A 
ATOM     16  C   UNL     1     -13.478   7.464  34.335  0.00  0.00    +0.027 A 
ATOM     17  C   UNL     1     -12.242   8.057  32.346  0.00  0.00    +0.027 A 
ATOM     18  C   UNL     1     -12.776   8.429  35.059  0.00  0.00    +0.048 A 
ATOM     19  C   UNL     1     -11.540   9.022  33.069  0.00  0.00    +0.048 A 
ATOM     20  C   UNL     1     -11.808   9.208  34.426  0.00  0.00    +0.129 A 
BRANCH  20   5
ATOM      5  O   UNL     1     -11.123  10.148  35.131  0.00  0.00    -0.456 OA
BRANCH   5  21
ATOM     21  C   UNL     1      -9.860   9.815  35.591  0.00  0.00    +0.128 A 
ATOM     22  C   UNL     1      -9.738   8.902  36.623  0.00  0.00    +0.046 A 
ATOM     23  C   UNL     1      -8.753  10.405  35.009  0.00  0.00    +0.046 A 
ATOM     24  C   UNL     1      -8.466   8.568  37.087  0.00  0.00    +0.004 A 
ATOM     25  C   UNL     1      -7.482  10.071  35.473  0.00  0.00    +0.004 A 
ATOM     26  C   UNL     1      -7.338   9.151  36.512  0.00  0.00    +0.000 A 
ENDBRANCH   5  21
ENDBRANCH  20   5
ENDBRANCH   7  15
TORSDOF 5
ENDMDL
MODEL 7
REMARK VINA RESULT:      -6.2     12.546     17.272
REMARK  Name = 11884353
REMARK  5 active torsions:
REMARK  status: ('A' for Active; 'I' for Inactive)
REMARK    1  A    between atoms: O_3  and  C_11
REMARK    2  A    between atoms: O_5  and  C_20
REMARK    3  A    between atoms: O_5  and  C_21
REMARK    4  A    between atoms: N_6  and  C_10
REMARK    5  A    between atoms: N_7  and  C_15
REMARK                            x       y       z     vdW  Elec       q    Type
REMARK                         _______ _______ _______ _____ _____    ______ ____
ROOT
ATOM      4  O   UNL     1      22.124  -9.467  21.288  0.00  0.00    -0.252 OA
ATOM      6  N   UNL     1      21.595 -10.017  19.106  0.00  0.00    -0.292 N 
ATOM      7  N   UNL     1      20.635  -8.149  20.040  0.00  0.00    -0.269 N 
ATOM     14  C   UNL     1      21.506  -9.221  20.255  0.00  0.00    +0.304 C 
ATOM     27  H   UNL     1      21.005  -9.785  18.313  0.00  0.00    +0.151 HD
ATOM     29  H   UNL     1      20.203  -8.092  19.122  0.00  0.00    +0.156 HD
ENDROOT
BRANCH   6  10
ATOM      1  O   UNL     1      22.590 -11.740  16.705  0.00  0.00    -0.369 OA
ATOM      2  O   UNL     1      24.731 -11.959  18.874  0.00  0.00    -0.369 OA
ATOM      8  C   UNL     1      23.825 -10.885  18.537  0.00  0.00    +0.172 C 
ATOM      9  C   UNL     1      23.698 -10.880  17.027  0.00  0.00    +0.179 C 
ATOM     10  C   UNL     1      22.430 -11.213  19.023  0.00  0.00    +0.131 C 
ATOM     11  C   UNL     1      25.013 -11.478  16.587  0.00  0.00    +0.171 C 
ATOM     12  C   UNL     1      21.921 -12.125  17.917  0.00  0.00    +0.185 C 
ATOM     13  C   UNL     1      25.272 -12.507  17.663  0.00  0.00    +0.194 C 
BRANCH  11   3
ATOM      3  O   UNL     1      24.966 -12.055  15.301  0.00  0.00    -0.387 OA
ATOM     28  H   UNL     1      24.612 -11.391  14.686  0.00  0.00    +0.210 HD
ENDBRANCH  11   3
ENDBRANCH   6  10
BRANCH   7  15
ATOM     15  C   UNL     1      20.277  -7.126  20.948  0.00  0.00    +0.035 A 
ATOM     16  C   UNL     1      20.294  -7.390  22.308  0.00  0.00    +0.027 A 
ATOM     17  C   UNL     1      19.915  -5.881  20.460  0.00  0.00    +0.027 A 
ATOM     18  C   UNL     1      19.941  -6.381  23.204  0.00  0.00    +0.048 A 
ATOM     19  C   UNL     1      19.562  -4.872  21.355  0.00  0.00    +0.048 A 
ATOM     20  C   UNL     1      19.574  -5.122  22.728  0.00  0.00    +0.129 A 
BRANCH  20   5
ATOM      5  O   UNL     1      19.230  -4.137  23.601  0.00  0.00    -0.456 OA
BRANCH   5  21
ATOM     21  C   UNL     1      18.124  -3.362  23.296  0.00  0.00    +0.128 A 
ATOM     22  C   UNL     1      18.301  -2.021  23.005  0.00  0.00    +0.046 A 
ATOM     23  C   UNL     1      16.871  -3.947  23.293  0.00  0.00    +0.046 A 
ATOM     24  C   UNL     1      17.188  -1.240  22.700  0.00  0.00    +0.004 A 
ATOM     25  C   UNL     1      15.758  -3.165  22.987  0.00  0.00    +0.004 A 
ATOM     26  C   UNL     1      15.916  -1.811  22.690  0.00  0.00    +0.000 A 
ENDBRANCH   5  21
ENDBRANCH  20   5
ENDBRANCH   7  15
TORSDOF 5
ENDMDL
MODEL 8
REMARK VINA RESULT:      -6.2      2.328      3.251
REMARK  Name = 11884353
REMARK  5 active torsions:
REMARK  status: ('A' for Active; 'I' for Inactive)
REMARK    1  A    between atoms: O_3  and  C_11
REMARK    2  A    between atoms: O_5  and  C_20
REMARK    3  A    between atoms: O_5  and  C_21
REMARK    4  A    between atoms: N_6  and  C_10
REMARK    5  A    between atoms: N_7  and  C_15
REMARK                            x       y       z     vdW  Elec       q    Type
REMARK                         _______ _______ _______ _____ _____    ______ ____
ROOT
ATOM      4  O   UNL     1      16.487   8.628  20.296  0.00  0.00    -0.252 OA
ATOM      6  N   UNL     1      14.912   6.937  20.349  0.00  0.00    -0.292 N 
ATOM      7  N   UNL     1      17.104   6.422  20.810  0.00  0.00    -0.269 N 
ATOM     14  C   UNL     1      16.212   7.444  20.471  0.00  0.00    +0.304 C 
ATOM     27  H   UNL     1      14.775   5.935  20.445  0.00  0.00    +0.151 HD
ATOM     29  H   UNL     1      16.710   5.492  20.917  0.00  0.00    +0.156 HD
ENDROOT
BRANCH   6  10
ATOM      1  O   UNL     1      11.844   6.383  20.319  0.00  0.00    -0.369 OA
ATOM      2  O   UNL     1      12.181   9.361  20.916  0.00  0.00    -0.369 OA
ATOM      8  C   UNL     1      13.015   8.226  21.237  0.00  0.00    +0.172 C 
ATOM      9  C   UNL     1      12.082   7.075  21.558  0.00  0.00    +0.179 C 
ATOM     10  C   UNL     1      13.759   7.765  20.003  0.00  0.00    +0.131 C 
ATOM     11  C   UNL     1      10.843   7.786  22.045  0.00  0.00    +0.171 C 
ATOM     12  C   UNL     1      12.705   6.919  19.302  0.00  0.00    +0.185 C 
ATOM     13  C   UNL     1      10.810   9.013  21.163  0.00  0.00    +0.194 C 
BRANCH  11   3
ATOM      3  O   UNL     1       9.668   7.016  21.926  0.00  0.00    -0.387 OA
ATOM     28  H   UNL     1       9.293   6.900  22.816  0.00  0.00    +0.210 HD
ENDBRANCH  11   3
ENDBRANCH   6  10
BRANCH   7  15
ATOM     15  C   UNL     1      18.498   6.523  21.022  0.00  0.00    +0.035 A 
ATOM     16  C   UNL     1      18.980   7.444  21.938  0.00  0.00    +0.027 A 
ATOM     17  C   UNL     1      19.355   5.699  20.310  0.00  0.00    +0.027 A 
ATOM     18  C   UNL     1      20.355   7.543  22.149  0.00  0.00    +0.048 A 
ATOM     19  C   UNL     1      20.730   5.799  20.520  0.00  0.00    +0.048 A 
ATOM     20  C   UNL     1      21.231   6.721  21.439  0.00  0.00    +0.129 A 
BRANCH  20   5
ATOM      5  O   UNL     1      22.572   6.817  21.645  0.00  0.00    -0.456 OA
BRANCH   5  21
ATOM     21  C   UNL     1      23.209   7.969  21.215  0.00  0.00    +0.128 A 
ATOM     22  C   UNL     1      23.031   8.390  19.910  0.00  0.00    +0.046 A 
ATOM     23  C   UNL     1      24.008   8.668  22.101  0.00  0.00    +0.046 A 
ATOM     24  C   UNL     1      23.673   9.550  19.476  0.00  0.00    +0.004 A 
ATOM     25  C   UNL     1      24.650   9.828  21.668  0.00  0.00    +0.004 A 
ATOM     26  C   UNL     1      24.482  10.269  20.355  0.00  0.00    +0.000 A 
ENDBRANCH   5  21
ENDBRANCH  20   5
ENDBRANCH   7  15
TORSDOF 5
ENDMDL
MODEL 9
REMARK VINA RESULT:      -6.2     29.368     33.208
REMARK  Name = 11884353
REMARK  5 active torsions:
REMARK  status: ('A' for Active; 'I' for Inactive)
REMARK    1  A    between atoms: O_3  and  C_11
REMARK    2  A    between atoms: O_5  and  C_20
REMARK    3  A    between atoms: O_5  and  C_21
REMARK    4  A    between atoms: N_6  and  C_10
REMARK    5  A    between atoms: N_7  and  C_15
REMARK                            x       y       z     vdW  Elec       q    Type
REMARK                         _______ _______ _______ _____ _____    ______ ____
ROOT
ATOM      4  O   UNL     1      -9.181 -10.565  15.556  0.00  0.00    -0.252 OA
ATOM      6  N   UNL     1      -7.177  -9.819  16.435  0.00  0.00    -0.292 N 
ATOM      7  N   UNL     1      -8.866  -8.299  16.085  0.00  0.00    -0.269 N 
ATOM     14  C   UNL     1      -8.490  -9.642  15.981  0.00  0.00    +0.304 C 
ATOM     27  H   UNL     1      -6.648  -8.997  16.711  0.00  0.00    +0.151 HD
ATOM     29  H   UNL     1      -8.169  -7.661  16.460  0.00  0.00    +0.156 HD
ENDROOT
BRANCH   6  10
ATOM      1  O   UNL     1      -4.243 -10.670  17.059  0.00  0.00    -0.369 OA
ATOM      2  O   UNL     1      -6.017 -13.026  17.858  0.00  0.00    -0.369 OA
ATOM      8  C   UNL     1      -6.266 -11.603  17.862  0.00  0.00    +0.172 C 
ATOM      9  C   UNL     1      -4.970 -10.934  18.272  0.00  0.00    +0.179 C 
ATOM     10  C   UNL     1      -6.503 -11.115  16.449  0.00  0.00    +0.131 C 
ATOM     11  C   UNL     1      -4.300 -12.002  19.102  0.00  0.00    +0.171 C 
ATOM     12  C   UNL     1      -5.080 -10.966  15.930  0.00  0.00    +0.185 C 
ATOM     13  C   UNL     1      -4.701 -13.268  18.379  0.00  0.00    +0.194 C 
BRANCH  11   3
ATOM      3  O   UNL     1      -2.899 -11.858  19.180  0.00  0.00    -0.387 OA
ATOM     28  H   UNL     1      -2.696 -11.321  19.965  0.00  0.00    +0.210 HD
ENDBRANCH  11   3
ENDBRANCH   6  10
BRANCH   7  15
ATOM     15  C   UNL     1     -10.103  -7.714  15.732  0.00  0.00    +0.035 A 
ATOM     16  C   UNL     1     -10.725  -8.101  14.556  0.00  0.00    +0.027 A 
ATOM     17  C   UNL     1     -10.668  -6.765  16.568  0.00  0.00    +0.027 A 
ATOM     18  C   UNL     1     -11.946  -7.524  14.207  0.00  0.00    +0.048 A 
ATOM     19  C   UNL     1     -11.889  -6.188  16.219  0.00  0.00    +0.048 A 
ATOM     20  C   UNL     1     -12.528  -6.566  15.039  0.00  0.00    +0.129 A 
BRANCH  20   5
ATOM      5  O   UNL     1     -13.720  -6.005  14.699  0.00  0.00    -0.456 OA
BRANCH   5  21
ATOM     21  C   UNL     1     -13.724  -5.072  13.676  0.00  0.00    +0.128 A 
ATOM     22  C   UNL     1     -14.931  -4.685  13.122  0.00  0.00    +0.046 A 
ATOM     23  C   UNL     1     -12.522  -4.552  13.232  0.00  0.00    +0.046 A 
ATOM     24  C   UNL     1     -14.936  -3.747  12.090  0.00  0.00    +0.004 A 
ATOM     25  C   UNL     1     -12.527  -3.614  12.201  0.00  0.00    +0.004 A 
ATOM     26  C   UNL     1     -13.734  -3.210  11.630  0.00  0.00    +0.000 A 
ENDBRANCH   5  21
ENDBRANCH  20   5
ENDBRANCH   7  15
TORSDOF 5
ENDMDL
MODEL 10
REMARK VINA RESULT:      -6.1     30.815     33.916
REMARK  Name = 11884353
REMARK  5 active torsions:
REMARK  status: ('A' for Active; 'I' for Inactive)
REMARK    1  A    between atoms: O_3  and  C_11
REMARK    2  A    between atoms: O_5  and  C_20
REMARK    3  A    between atoms: O_5  and  C_21
REMARK    4  A    between atoms: N_6  and  C_10
REMARK    5  A    between atoms: N_7  and  C_15
REMARK                            x       y       z     vdW  Elec       q    Type
REMARK                         _______ _______ _______ _____ _____    ______ ____
ROOT
ATOM      4  O   UNL     1     -16.494   4.717  26.063  0.00  0.00    -0.252 OA
ATOM      6  N   UNL     1     -16.082   2.484  26.495  0.00  0.00    -0.292 N 
ATOM      7  N   UNL     1     -15.451   3.352  24.463  0.00  0.00    -0.269 N 
ATOM     14  C   UNL     1     -16.049   3.633  25.695  0.00  0.00    +0.304 C 
ATOM     27  H   UNL     1     -15.753   1.610  26.096  0.00  0.00    +0.151 HD
ATOM     29  H   UNL     1     -15.135   2.397  24.318  0.00  0.00    +0.156 HD
ENDROOT
BRANCH   6  10
ATOM      1  O   UNL     1     -15.946   0.403  28.813  0.00  0.00    -0.369 OA
ATOM      2  O   UNL     1     -16.226   3.148  30.127  0.00  0.00    -0.369 OA
ATOM      8  C   UNL     1     -15.596   2.745  28.892  0.00  0.00    +0.172 C 
ATOM      9  C   UNL     1     -14.958   1.394  29.148  0.00  0.00    +0.179 C 
ATOM     10  C   UNL     1     -16.649   2.462  27.842  0.00  0.00    +0.131 C 
ATOM     11  C   UNL     1     -14.691   1.435  30.633  0.00  0.00    +0.171 C 
ATOM     12  C   UNL     1     -17.076   1.047  28.203  0.00  0.00    +0.185 C 
ATOM     13  C   UNL     1     -15.888   2.200  31.152  0.00  0.00    +0.194 C 
BRANCH  11   3
ATOM      3  O   UNL     1     -14.582   0.159  31.222  0.00  0.00    -0.387 OA
ATOM     28  H   UNL     1     -15.066   0.175  32.065  0.00  0.00    +0.210 HD
ENDBRANCH  11   3
ENDBRANCH   6  10
BRANCH   7  15
ATOM     15  C   UNL     1     -15.230   4.238  23.384  0.00  0.00    +0.035 A 
ATOM     16  C   UNL     1     -16.299   4.623  22.592  0.00  0.00    +0.027 A 
ATOM     17  C   UNL     1     -13.948   4.703  23.139  0.00  0.00    +0.027 A 
ATOM     18  C   UNL     1     -16.081   5.497  21.527  0.00  0.00    +0.048 A 
ATOM     19  C   UNL     1     -13.730   5.577  22.075  0.00  0.00    +0.048 A 
ATOM     20  C   UNL     1     -14.796   5.974  21.268  0.00  0.00    +0.129 A 
BRANCH  20   5
ATOM      5  O   UNL     1     -14.583   6.827  20.230  0.00  0.00    -0.456 OA
BRANCH   5  21
ATOM     21  C   UNL     1     -13.486   7.668  20.302  0.00  0.00    +0.128 A 
ATOM     22  C   UNL     1     -13.574   8.829  21.049  0.00  0.00    +0.046 A 
ATOM     23  C   UNL     1     -12.330   7.328  19.622  0.00  0.00    +0.046 A 
ATOM     24  C   UNL     1     -12.469   9.677  21.121  0.00  0.00    +0.004 A 
ATOM     25  C   UNL     1     -11.226   8.177  19.694  0.00  0.00    +0.004 A 
ATOM     26  C   UNL     1     -11.295   9.351  20.444  0.00  0.00    +0.000 A 
ENDBRANCH   5  21
ENDBRANCH  20   5
ENDBRANCH   7  15
TORSDOF 5
ENDMDL
