MODEL 1
REMARK VINA RESULT:      -6.7      0.000      0.000
REMARK  Name = 26743716
REMARK  10 active torsions:
REMARK  status: ('A' for Active; 'I' for Inactive)
REMARK    1  A    between atoms: O_4  and  C_13
REMARK    2  A    between atoms: O_6  and  C_31
REMARK    3  A    between atoms: O_6  and  C_32
REMARK    4  A    between atoms: N_7  and  C_15
REMARK    5  A    between atoms: N_10  and  C_23
REMARK    6  A    between atoms: N_10  and  C_27
REMARK    7  A    between atoms: N_10  and  C_28
REMARK    8  A    between atoms: C_11  and  C_16
REMARK    9  A    between atoms: C_15  and  C_17
REMARK   10  A    between atoms: C_20  and  C_24
REMARK                            x       y       z     vdW  Elec       q    Type
REMARK                         _______ _______ _______ _____ _____    ______ ____
ROOT
ATOM      7  N   UNL     1      -5.574  -9.683   8.966  0.00  0.00    -0.285 NA
ATOM     11  C   UNL     1      -6.308  -8.847   9.937  0.00  0.00    +0.149 C 
ATOM     12  C   UNL     1      -7.661  -8.557   9.261  0.00  0.00    +0.061 C 
ATOM     13  C   UNL     1      -7.575  -9.233   7.899  0.00  0.00    +0.130 C 
ATOM     14  C   UNL     1      -6.082  -9.327   7.644  0.00  0.00    +0.116 C 
ENDROOT
BRANCH  11  16
ATOM      5  O   UNL     1      -7.215 -10.644  11.323  0.00  0.00    -0.336 OA
ATOM      8  N   UNL     1      -5.961  -9.166  12.447  0.00  0.00    -0.190 NA
ATOM      9  N   UNL     1      -7.206 -11.074  12.656  0.00  0.00    -0.056 NA
ATOM     16  C   UNL     1      -6.458  -9.516  11.288  0.00  0.00    +0.245 A 
ATOM     20  C   UNL     1      -6.448 -10.152  13.256  0.00  0.00    +0.202 A 
BRANCH  20  24
ATOM     24  C   UNL     1      -6.155 -10.188  14.659  0.00  0.00    +0.023 A 
ATOM     25  C   UNL     1      -4.862 -10.475  15.095  0.00  0.00    +0.015 A 
ATOM     26  C   UNL     1      -7.164  -9.935  15.589  0.00  0.00    +0.015 A 
ATOM     29  C   UNL     1      -4.578 -10.511  16.461  0.00  0.00    +0.046 A 
ATOM     30  C   UNL     1      -6.881  -9.971  16.954  0.00  0.00    +0.046 A 
ATOM     31  C   UNL     1      -5.587 -10.259  17.390  0.00  0.00    +0.130 A 
BRANCH  31   6
ATOM      6  O   UNL     1      -5.311 -10.293  18.722  0.00  0.00    -0.406 OA
BRANCH   6  32
ATOM      1  F   UNL     1      -5.651 -11.495  20.602  0.00  0.00    -0.133 F 
ATOM      2  F   UNL     1      -5.836 -12.519  18.680  0.00  0.00    -0.133 F 
ATOM      3  F   UNL     1      -3.851 -11.904  19.432  0.00  0.00    -0.133 F 
ATOM     32  C   UNL     1      -5.154 -11.562  19.346  0.00  0.00    +0.575 C 
ENDBRANCH   6  32
ENDBRANCH  31   6
ENDBRANCH  20  24
ENDBRANCH  11  16
BRANCH  13   4
ATOM      4  O   UNL     1      -8.228  -8.458   6.913  0.00  0.00    -0.390 OA
ATOM     33  H   UNL     1      -8.309  -7.552   7.259  0.00  0.00    +0.210 HD
ENDBRANCH  13   4
BRANCH   7  15
ATOM     15  C   UNL     1      -4.127  -9.532   9.056  0.00  0.00    +0.120 C 
BRANCH  15  17
ATOM     17  C   UNL     1      -3.546 -10.353  10.176  0.00  0.00    -0.033 A 
ATOM     18  C   UNL     1      -3.882 -11.702  10.300  0.00  0.00    +0.007 A 
ATOM     19  C   UNL     1      -2.672  -9.766  11.090  0.00  0.00    +0.007 A 
ATOM     21  C   UNL     1      -3.343 -12.463  11.337  0.00  0.00    +0.023 A 
ATOM     22  C   UNL     1      -2.133 -10.527  12.127  0.00  0.00    +0.023 A 
ATOM     23  C   UNL     1      -2.469 -11.875  12.251  0.00  0.00    +0.029 A 
BRANCH  23  10
ATOM     10  N   UNL     1      -1.924 -12.645  13.300  0.00  0.00    -0.336 N 
ATOM     27  C   UNL     1      -1.479 -12.008  14.524  0.00  0.00    +0.129 C 
ATOM     28  C   UNL     1      -1.809 -14.084  13.172  0.00  0.00    +0.129 C 
ENDBRANCH  23  10
ENDBRANCH  15  17
ENDBRANCH   7  15
TORSDOF 8
ENDMDL
MODEL 2
REMARK VINA RESULT:      -6.6     20.229     21.536
REMARK  Name = 26743716
REMARK  10 active torsions:
REMARK  status: ('A' for Active; 'I' for Inactive)
REMARK    1  A    between atoms: O_4  and  C_13
REMARK    2  A    between atoms: O_6  and  C_31
REMARK    3  A    between atoms: O_6  and  C_32
REMARK    4  A    between atoms: N_7  and  C_15
REMARK    5  A    between atoms: N_10  and  C_23
REMARK    6  A    between atoms: N_10  and  C_27
REMARK    7  A    between atoms: N_10  and  C_28
REMARK    8  A    between atoms: C_11  and  C_16
REMARK    9  A    between atoms: C_15  and  C_17
REMARK   10  A    between atoms: C_20  and  C_24
REMARK                            x       y       z     vdW  Elec       q    Type
REMARK                         _______ _______ _______ _____ _____    ______ ____
ROOT
ATOM      7  N   UNL     1     -15.487   5.454  22.018  0.00  0.00    -0.285 NA
ATOM     11  C   UNL     1     -16.708   5.191  22.806  0.00  0.00    +0.149 C 
ATOM     12  C   UNL     1     -17.773   4.803  21.763  0.00  0.00    +0.061 C 
ATOM     13  C   UNL     1     -17.068   4.922  20.417  0.00  0.00    +0.130 C 
ATOM     14  C   UNL     1     -15.932   5.888  20.696  0.00  0.00    +0.116 C 
ENDROOT
BRANCH  11  16
ATOM      5  O   UNL     1     -16.289   2.859  23.407  0.00  0.00    -0.336 OA
ATOM      8  N   UNL     1     -16.502   4.232  25.164  0.00  0.00    -0.190 NA
ATOM      9  N   UNL     1     -16.130   2.061  24.547  0.00  0.00    -0.056 NA
ATOM     16  C   UNL     1     -16.504   4.122  23.860  0.00  0.00    +0.245 A 
ATOM     20  C   UNL     1     -16.269   2.941  25.542  0.00  0.00    +0.202 A 
BRANCH  20  24
ATOM     24  C   UNL     1     -16.180   2.565  26.923  0.00  0.00    +0.023 A 
ATOM     25  C   UNL     1     -15.774   3.500  27.876  0.00  0.00    +0.015 A 
ATOM     26  C   UNL     1     -16.498   1.264  27.314  0.00  0.00    +0.015 A 
ATOM     29  C   UNL     1     -15.686   3.133  29.219  0.00  0.00    +0.046 A 
ATOM     30  C   UNL     1     -16.410   0.898  28.656  0.00  0.00    +0.046 A 
ATOM     31  C   UNL     1     -16.004   1.832  29.609  0.00  0.00    +0.130 A 
BRANCH  31   6
ATOM      6  O   UNL     1     -15.919   1.473  30.919  0.00  0.00    -0.406 OA
BRANCH   6  32
ATOM      1  F   UNL     1     -14.528   0.973  32.625  0.00  0.00    -0.133 F 
ATOM      2  F   UNL     1     -15.087  -0.631  31.250  0.00  0.00    -0.133 F 
ATOM      3  F   UNL     1     -13.711   0.970  30.597  0.00  0.00    -0.133 F 
ATOM     32  C   UNL     1     -14.808   0.687  31.333  0.00  0.00    +0.575 C 
ENDBRANCH   6  32
ENDBRANCH  31   6
ENDBRANCH  20  24
ENDBRANCH  11  16
BRANCH  13   4
ATOM      4  O   UNL     1     -17.951   5.421  19.432  0.00  0.00    -0.390 OA
ATOM     33  H   UNL     1     -17.412   5.858  18.751  0.00  0.00    +0.210 HD
ENDBRANCH  13   4
BRANCH   7  15
ATOM     15  C   UNL     1     -14.599   6.425  22.644  0.00  0.00    +0.120 C 
BRANCH  15  17
ATOM     17  C   UNL     1     -13.631   7.018  21.655  0.00  0.00    -0.033 A 
ATOM     18  C   UNL     1     -12.521   6.282  21.239  0.00  0.00    +0.007 A 
ATOM     19  C   UNL     1     -13.843   8.303  21.155  0.00  0.00    +0.007 A 
ATOM     21  C   UNL     1     -11.624   6.831  20.322  0.00  0.00    +0.023 A 
ATOM     22  C   UNL     1     -12.946   8.851  20.239  0.00  0.00    +0.023 A 
ATOM     23  C   UNL     1     -11.836   8.116  19.823  0.00  0.00    +0.029 A 
BRANCH  23  10
ATOM     10  N   UNL     1     -10.928   8.671  18.897  0.00  0.00    -0.336 N 
ATOM     27  C   UNL     1     -10.819   8.125  17.559  0.00  0.00    +0.129 C 
ATOM     28  C   UNL     1     -10.097   9.800  19.269  0.00  0.00    +0.129 C 
ENDBRANCH  23  10
ENDBRANCH  15  17
ENDBRANCH   7  15
TORSDOF 8
ENDMDL
MODEL 3
REMARK VINA RESULT:      -6.4      3.875      6.551
REMARK  Name = 26743716
REMARK  10 active torsions:
REMARK  status: ('A' for Active; 'I' for Inactive)
REMARK    1  A    between atoms: O_4  and  C_13
REMARK    2  A    between atoms: O_6  and  C_31
REMARK    3  A    between atoms: O_6  and  C_32
REMARK    4  A    between atoms: N_7  and  C_15
REMARK    5  A    between atoms: N_10  and  C_23
REMARK    6  A    between atoms: N_10  and  C_27
REMARK    7  A    between atoms: N_10  and  C_28
REMARK    8  A    between atoms: C_11  and  C_16
REMARK    9  A    between atoms: C_15  and  C_17
REMARK   10  A    between atoms: C_20  and  C_24
REMARK                            x       y       z     vdW  Elec       q    Type
REMARK                         _______ _______ _______ _____ _____    ______ ____
ROOT
ATOM      7  N   UNL     1      -3.090 -11.128  14.160  0.00  0.00    -0.285 NA
ATOM     11  C   UNL     1      -3.401 -11.615  15.519  0.00  0.00    +0.149 C 
ATOM     12  C   UNL     1      -2.358 -10.937  16.427  0.00  0.00    +0.061 C 
ATOM     13  C   UNL     1      -1.479 -10.127  15.483  0.00  0.00    +0.130 C 
ATOM     14  C   UNL     1      -1.662 -10.821  14.146  0.00  0.00    +0.116 C 
ENDROOT
BRANCH  11  16
ATOM      5  O   UNL     1      -5.375 -12.141  16.861  0.00  0.00    -0.336 OA
ATOM      8  N   UNL     1      -5.623 -10.357  15.531  0.00  0.00    -0.190 NA
ATOM      9  N   UNL     1      -6.675 -11.669  17.082  0.00  0.00    -0.056 NA
ATOM     16  C   UNL     1      -4.826 -11.313  15.935  0.00  0.00    +0.245 A 
ATOM     20  C   UNL     1      -6.746 -10.617  16.262  0.00  0.00    +0.202 A 
BRANCH  20  24
ATOM     24  C   UNL     1      -7.922  -9.804  16.151  0.00  0.00    +0.023 A 
ATOM     25  C   UNL     1      -8.381  -9.086  17.255  0.00  0.00    +0.015 A 
ATOM     26  C   UNL     1      -8.608  -9.731  14.938  0.00  0.00    +0.015 A 
ATOM     29  C   UNL     1      -9.527  -8.297  17.147  0.00  0.00    +0.046 A 
ATOM     30  C   UNL     1      -9.753  -8.942  14.830  0.00  0.00    +0.046 A 
ATOM     31  C   UNL     1     -10.212  -8.225  15.935  0.00  0.00    +0.130 A 
BRANCH  31   6
ATOM      6  O   UNL     1     -11.329  -7.454  15.828  0.00  0.00    -0.406 OA
BRANCH   6  32
ATOM      1  F   UNL     1     -11.294  -5.517  16.986  0.00  0.00    -0.133 F 
ATOM      2  F   UNL     1      -9.945  -5.718  15.279  0.00  0.00    -0.133 F 
ATOM      3  F   UNL     1     -12.121  -5.490  14.963  0.00  0.00    -0.133 F 
ATOM     32  C   UNL     1     -11.170  -6.043  15.746  0.00  0.00    +0.575 C 
ENDBRANCH   6  32
ENDBRANCH  31   6
ENDBRANCH  20  24
ENDBRANCH  11  16
BRANCH  13   4
ATOM      4  O   UNL     1      -0.131 -10.152  15.907  0.00  0.00    -0.390 OA
ATOM     33  H   UNL     1      -0.106 -10.591  16.775  0.00  0.00    +0.210 HD
ENDBRANCH  13   4
BRANCH   7  15
ATOM     15  C   UNL     1      -3.458 -12.073  13.113  0.00  0.00    +0.120 C 
BRANCH  15  17
ATOM     17  C   UNL     1      -4.094 -11.385  11.935  0.00  0.00    -0.033 A 
ATOM     18  C   UNL     1      -5.150 -10.494  12.134  0.00  0.00    +0.007 A 
ATOM     19  C   UNL     1      -3.629 -11.638  10.645  0.00  0.00    +0.007 A 
ATOM     21  C   UNL     1      -5.740  -9.856  11.042  0.00  0.00    +0.023 A 
ATOM     22  C   UNL     1      -4.219 -11.000   9.554  0.00  0.00    +0.023 A 
ATOM     23  C   UNL     1      -5.275 -10.110   9.752  0.00  0.00    +0.029 A 
BRANCH  23  10
ATOM     10  N   UNL     1      -5.872  -9.465   8.648  0.00  0.00    -0.336 N 
ATOM     27  C   UNL     1      -5.547  -9.873   7.297  0.00  0.00    +0.129 C 
ATOM     28  C   UNL     1      -6.824  -8.391   8.853  0.00  0.00    +0.129 C 
ENDBRANCH  23  10
ENDBRANCH  15  17
ENDBRANCH   7  15
TORSDOF 8
ENDMDL
MODEL 4
REMARK VINA RESULT:      -6.3     21.441     23.316
REMARK  Name = 26743716
REMARK  10 active torsions:
REMARK  status: ('A' for Active; 'I' for Inactive)
REMARK    1  A    between atoms: O_4  and  C_13
REMARK    2  A    between atoms: O_6  and  C_31
REMARK    3  A    between atoms: O_6  and  C_32
REMARK    4  A    between atoms: N_7  and  C_15
REMARK    5  A    between atoms: N_10  and  C_23
REMARK    6  A    between atoms: N_10  and  C_27
REMARK    7  A    between atoms: N_10  and  C_28
REMARK    8  A    between atoms: C_11  and  C_16
REMARK    9  A    between atoms: C_15  and  C_17
REMARK   10  A    between atoms: C_20  and  C_24
REMARK                            x       y       z     vdW  Elec       q    Type
REMARK                         _______ _______ _______ _____ _____    ______ ____
ROOT
ATOM      7  N   UNL     1     -11.168   9.694  17.451  0.00  0.00    -0.285 NA
ATOM     11  C   UNL     1     -10.490  10.613  18.387  0.00  0.00    +0.149 C 
ATOM     12  C   UNL     1     -10.177  11.866  17.548  0.00  0.00    +0.061 C 
ATOM     13  C   UNL     1     -10.675  11.538  16.146  0.00  0.00    +0.130 C 
ATOM     14  C   UNL     1     -10.674  10.021  16.116  0.00  0.00    +0.116 C 
ENDROOT
BRANCH  11  16
ATOM      5  O   UNL     1     -12.389  11.748  19.426  0.00  0.00    -0.336 OA
ATOM      8  N   UNL     1     -11.180  10.504  20.843  0.00  0.00    -0.190 NA
ATOM      9  N   UNL     1     -12.999  11.881  20.680  0.00  0.00    -0.056 NA
ATOM     16  C   UNL     1     -11.327  10.921  19.611  0.00  0.00    +0.245 A 
ATOM     20  C   UNL     1     -12.229  11.120  21.462  0.00  0.00    +0.202 A 
BRANCH  20  24
ATOM     24  C   UNL     1     -12.480  10.951  22.864  0.00  0.00    +0.023 A 
ATOM     25  C   UNL     1     -13.592  10.224  23.290  0.00  0.00    +0.015 A 
ATOM     26  C   UNL     1     -11.615  11.516  23.801  0.00  0.00    +0.015 A 
ATOM     29  C   UNL     1     -13.837  10.062  24.655  0.00  0.00    +0.046 A 
ATOM     30  C   UNL     1     -11.860  11.354  25.164  0.00  0.00    +0.046 A 
ATOM     31  C   UNL     1     -12.971  10.626  25.591  0.00  0.00    +0.130 A 
BRANCH  31   6
ATOM      6  O   UNL     1     -13.209  10.468  26.921  0.00  0.00    -0.406 OA
BRANCH   6  32
ATOM      1  F   UNL     1     -12.551   9.997  29.028  0.00  0.00    -0.133 F 
ATOM      2  F   UNL     1     -11.310   9.279  27.378  0.00  0.00    -0.133 F 
ATOM      3  F   UNL     1     -11.369  11.431  27.878  0.00  0.00    -0.133 F 
ATOM     32  C   UNL     1     -12.096  10.297  27.790  0.00  0.00    +0.575 C 
ENDBRANCH   6  32
ENDBRANCH  31   6
ENDBRANCH  20  24
ENDBRANCH  11  16
BRANCH  13   4
ATOM      4  O   UNL     1      -9.813  12.084  15.167  0.00  0.00    -0.390 OA
ATOM     33  H   UNL     1     -10.329  12.722  14.646  0.00  0.00    +0.210 HD
ENDBRANCH  13   4
BRANCH   7  15
ATOM     15  C   UNL     1     -10.968   8.288  17.780  0.00  0.00    +0.120 C 
BRANCH  15  17
ATOM     17  C   UNL     1     -11.984   7.795  18.774  0.00  0.00    -0.033 A 
ATOM     18  C   UNL     1     -13.345   8.002  18.543  0.00  0.00    +0.007 A 
ATOM     19  C   UNL     1     -11.567   7.130  19.927  0.00  0.00    +0.007 A 
ATOM     21  C   UNL     1     -14.287   7.544  19.463  0.00  0.00    +0.023 A 
ATOM     22  C   UNL     1     -12.509   6.672  20.848  0.00  0.00    +0.023 A 
ATOM     23  C   UNL     1     -13.869   6.880  20.617  0.00  0.00    +0.029 A 
BRANCH  23  10
ATOM     10  N   UNL     1     -14.822   6.417  21.548  0.00  0.00    -0.336 N 
ATOM     27  C   UNL     1     -15.984   5.675  21.102  0.00  0.00    +0.129 C 
ATOM     28  C   UNL     1     -14.648   6.671  22.965  0.00  0.00    +0.129 C 
ENDBRANCH  23  10
ENDBRANCH  15  17
ENDBRANCH   7  15
TORSDOF 8
ENDMDL
MODEL 5
REMARK VINA RESULT:      -6.2     28.922     31.043
REMARK  Name = 26743716
REMARK  10 active torsions:
REMARK  status: ('A' for Active; 'I' for Inactive)
REMARK    1  A    between atoms: O_4  and  C_13
REMARK    2  A    between atoms: O_6  and  C_31
REMARK    3  A    between atoms: O_6  and  C_32
REMARK    4  A    between atoms: N_7  and  C_15
REMARK    5  A    between atoms: N_10  and  C_23
REMARK    6  A    between atoms: N_10  and  C_27
REMARK    7  A    between atoms: N_10  and  C_28
REMARK    8  A    between atoms: C_11  and  C_16
REMARK    9  A    between atoms: C_15  and  C_17
REMARK   10  A    between atoms: C_20  and  C_24
REMARK                            x       y       z     vdW  Elec       q    Type
REMARK                         _______ _______ _______ _____ _____    ______ ____
ROOT
ATOM      7  N   UNL     1      21.592   7.044  21.981  0.00  0.00    -0.285 NA
ATOM     11  C   UNL     1      20.525   8.053  21.816  0.00  0.00    +0.149 C 
ATOM     12  C   UNL     1      21.160   9.157  20.951  0.00  0.00    +0.061 C 
ATOM     13  C   UNL     1      22.595   8.701  20.718  0.00  0.00    +0.130 C 
ATOM     14  C   UNL     1      22.860   7.762  21.879  0.00  0.00    +0.116 C 
ENDROOT
BRANCH  11  16
ATOM      5  O   UNL     1      19.418   6.351  20.456  0.00  0.00    -0.336 OA
ATOM      8  N   UNL     1      18.033   7.906  21.280  0.00  0.00    -0.190 NA
ATOM      9  N   UNL     1      18.137   6.012  20.001  0.00  0.00    -0.056 NA
ATOM     16  C   UNL     1      19.267   7.476  21.201  0.00  0.00    +0.245 A 
ATOM     20  C   UNL     1      17.376   6.976  20.528  0.00  0.00    +0.202 A 
BRANCH  20  24
ATOM     24  C   UNL     1      15.958   7.036  20.324  0.00  0.00    +0.023 A 
ATOM     25  C   UNL     1      15.438   7.002  19.030  0.00  0.00    +0.015 A 
ATOM     26  C   UNL     1      15.099   7.130  21.418  0.00  0.00    +0.015 A 
ATOM     29  C   UNL     1      14.058   7.062  18.832  0.00  0.00    +0.046 A 
ATOM     30  C   UNL     1      13.720   7.191  21.220  0.00  0.00    +0.046 A 
ATOM     31  C   UNL     1      13.199   7.157  19.926  0.00  0.00    +0.130 A 
BRANCH  31   6
ATOM      6  O   UNL     1      11.853   7.215  19.734  0.00  0.00    -0.406 OA
BRANCH   6  32
ATOM      1  F   UNL     1      12.169   9.450  19.736  0.00  0.00    -0.133 F 
ATOM      2  F   UNL     1      10.400   8.662  18.723  0.00  0.00    -0.133 F 
ATOM      3  F   UNL     1      10.525   8.643  20.929  0.00  0.00    -0.133 F 
ATOM     32  C   UNL     1      11.220   8.487  19.782  0.00  0.00    +0.575 C 
ENDBRANCH   6  32
ENDBRANCH  31   6
ENDBRANCH  20  24
ENDBRANCH  11  16
BRANCH  13   4
ATOM      4  O   UNL     1      23.478   9.806  20.724  0.00  0.00    -0.390 OA
ATOM     33  H   UNL     1      23.296  10.330  19.926  0.00  0.00    +0.210 HD
ENDBRANCH  13   4
BRANCH   7  15
ATOM     15  C   UNL     1      21.485   6.293  23.225  0.00  0.00    +0.120 C 
BRANCH  15  17
ATOM     17  C   UNL     1      22.200   4.971  23.146  0.00  0.00    -0.033 A 
ATOM     18  C   UNL     1      22.042   4.158  22.022  0.00  0.00    +0.007 A 
ATOM     19  C   UNL     1      23.021   4.558  24.195  0.00  0.00    +0.007 A 
ATOM     21  C   UNL     1      22.705   2.934  21.948  0.00  0.00    +0.023 A 
ATOM     22  C   UNL     1      23.684   3.333  24.120  0.00  0.00    +0.023 A 
ATOM     23  C   UNL     1      23.525   2.521  22.998  0.00  0.00    +0.029 A 
BRANCH  23  10
ATOM     10  N   UNL     1      24.196   1.282  22.923  0.00  0.00    -0.336 N 
ATOM     27  C   UNL     1      24.384   0.476  24.112  0.00  0.00    +0.129 C 
ATOM     28  C   UNL     1      24.698   0.794  21.653  0.00  0.00    +0.129 C 
ENDBRANCH  23  10
ENDBRANCH  15  17
ENDBRANCH   7  15
TORSDOF 8
ENDMDL
MODEL 6
REMARK VINA RESULT:      -6.1      5.110      9.380
REMARK  Name = 26743716
REMARK  10 active torsions:
REMARK  status: ('A' for Active; 'I' for Inactive)
REMARK    1  A    between atoms: O_4  and  C_13
REMARK    2  A    between atoms: O_6  and  C_31
REMARK    3  A    between atoms: O_6  and  C_32
REMARK    4  A    between atoms: N_7  and  C_15
REMARK    5  A    between atoms: N_10  and  C_23
REMARK    6  A    between atoms: N_10  and  C_27
REMARK    7  A    between atoms: N_10  and  C_28
REMARK    8  A    between atoms: C_11  and  C_16
REMARK    9  A    between atoms: C_15  and  C_17
REMARK   10  A    between atoms: C_20  and  C_24
REMARK                            x       y       z     vdW  Elec       q    Type
REMARK                         _______ _______ _______ _____ _____    ______ ____
ROOT
ATOM      7  N   UNL     1     -10.117 -12.090  19.335  0.00  0.00    -0.285 NA
ATOM     11  C   UNL     1      -8.909 -12.533  20.060  0.00  0.00    +0.149 C 
ATOM     12  C   UNL     1      -8.987 -14.071  20.050  0.00  0.00    +0.061 C 
ATOM     13  C   UNL     1     -10.294 -14.395  19.337  0.00  0.00    +0.130 C 
ATOM     14  C   UNL     1     -11.120 -13.136  19.521  0.00  0.00    +0.116 C 
ENDROOT
BRANCH  11  16
ATOM      5  O   UNL     1      -7.008 -10.999  20.105  0.00  0.00    -0.336 OA
ATOM      8  N   UNL     1      -7.025 -12.382  18.344  0.00  0.00    -0.190 NA
ATOM      9  N   UNL     1      -5.868 -10.686  19.353  0.00  0.00    -0.056 NA
ATOM     16  C   UNL     1      -7.631 -12.006  19.441  0.00  0.00    +0.245 A 
ATOM     20  C   UNL     1      -5.948 -11.543  18.331  0.00  0.00    +0.202 A 
BRANCH  20  24
ATOM     24  C   UNL     1      -4.970 -11.588  17.284  0.00  0.00    +0.023 A 
ATOM     25  C   UNL     1      -5.057 -12.563  16.289  0.00  0.00    +0.015 A 
ATOM     26  C   UNL     1      -3.931 -10.657  17.259  0.00  0.00    +0.015 A 
ATOM     29  C   UNL     1      -4.104 -12.607  15.271  0.00  0.00    +0.046 A 
ATOM     30  C   UNL     1      -2.978 -10.702  16.242  0.00  0.00    +0.046 A 
ATOM     31  C   UNL     1      -3.065 -11.677  15.247  0.00  0.00    +0.130 A 
BRANCH  31   6
ATOM      6  O   UNL     1      -2.135 -11.718  14.254  0.00  0.00    -0.406 OA
BRANCH   6  32
ATOM      1  F   UNL     1      -1.328  -9.706  13.626  0.00  0.00    -0.133 F 
ATOM      2  F   UNL     1      -1.747 -11.178  12.066  0.00  0.00    -0.133 F 
ATOM      3  F   UNL     1      -3.405 -10.180  13.134  0.00  0.00    -0.133 F 
ATOM     32  C   UNL     1      -2.166 -10.703  13.259  0.00  0.00    +0.575 C 
ENDBRANCH   6  32
ENDBRANCH  31   6
ENDBRANCH  20  24
ENDBRANCH  11  16
BRANCH  13   4
ATOM      4  O   UNL     1     -10.918 -15.522  19.922  0.00  0.00    -0.390 OA
ATOM     33  H   UNL     1     -11.504 -15.912  19.252  0.00  0.00    +0.210 HD
ENDBRANCH  13   4
BRANCH   7  15
ATOM     15  C   UNL     1     -10.600 -10.785  19.767  0.00  0.00    +0.120 C 
BRANCH  15  17
ATOM     17  C   UNL     1     -10.845  -9.864  18.602  0.00  0.00    -0.033 A 
ATOM     18  C   UNL     1     -12.151  -9.579  18.200  0.00  0.00    +0.007 A 
ATOM     19  C   UNL     1      -9.768  -9.294  17.923  0.00  0.00    +0.007 A 
ATOM     21  C   UNL     1     -12.379  -8.725  17.121  0.00  0.00    +0.023 A 
ATOM     22  C   UNL     1      -9.996  -8.440  16.845  0.00  0.00    +0.023 A 
ATOM     23  C   UNL     1     -11.301  -8.156  16.443  0.00  0.00    +0.029 A 
BRANCH  23  10
ATOM     10  N   UNL     1     -11.532  -7.293  15.352  0.00  0.00    -0.336 N 
ATOM     27  C   UNL     1     -11.367  -5.861  15.501  0.00  0.00    +0.129 C 
ATOM     28  C   UNL     1     -11.930  -7.827  14.064  0.00  0.00    +0.129 C 
ENDBRANCH  23  10
ENDBRANCH  15  17
ENDBRANCH   7  15
TORSDOF 8
ENDMDL
MODEL 7
REMARK VINA RESULT:      -6.1      5.013      7.205
REMARK  Name = 26743716
REMARK  10 active torsions:
REMARK  status: ('A' for Active; 'I' for Inactive)
REMARK    1  A    between atoms: O_4  and  C_13
REMARK    2  A    between atoms: O_6  and  C_31
REMARK    3  A    between atoms: O_6  and  C_32
REMARK    4  A    between atoms: N_7  and  C_15
REMARK    5  A    between atoms: N_10  and  C_23
REMARK    6  A    between atoms: N_10  and  C_27
REMARK    7  A    between atoms: N_10  and  C_28
REMARK    8  A    between atoms: C_11  and  C_16
REMARK    9  A    between atoms: C_15  and  C_17
REMARK   10  A    between atoms: C_20  and  C_24
REMARK                            x       y       z     vdW  Elec       q    Type
REMARK                         _______ _______ _______ _____ _____    ______ ____
ROOT
ATOM      7  N   UNL     1      -5.828  -9.752   8.811  0.00  0.00    -0.285 NA
ATOM     11  C   UNL     1      -6.297  -9.343   7.471  0.00  0.00    +0.149 C 
ATOM     12  C   UNL     1      -6.709 -10.657   6.782  0.00  0.00    +0.061 C 
ATOM     13  C   UNL     1      -6.394 -11.750   7.795  0.00  0.00    +0.130 C 
ATOM     14  C   UNL     1      -5.333 -11.120   8.678  0.00  0.00    +0.116 C 
ENDROOT
BRANCH  11  16
ATOM      5  O   UNL     1      -7.762  -7.734   6.360  0.00  0.00    -0.336 OA
ATOM      8  N   UNL     1      -8.134  -7.942   8.558  0.00  0.00    -0.190 NA
ATOM      9  N   UNL     1      -8.811  -6.856   6.662  0.00  0.00    -0.056 NA
ATOM     16  C   UNL     1      -7.424  -8.333   7.531  0.00  0.00    +0.245 A 
ATOM     20  C   UNL     1      -8.971  -7.035   7.977  0.00  0.00    +0.202 A 
BRANCH  20  24
ATOM     24  C   UNL     1      -9.959  -6.326   8.736  0.00  0.00    +0.023 A 
ATOM     25  C   UNL     1     -10.921  -7.031   9.460  0.00  0.00    +0.015 A 
ATOM     26  C   UNL     1      -9.960  -4.931   8.751  0.00  0.00    +0.015 A 
ATOM     29  C   UNL     1     -11.884  -6.341  10.198  0.00  0.00    +0.046 A 
ATOM     30  C   UNL     1     -10.921  -4.241   9.489  0.00  0.00    +0.046 A 
ATOM     31  C   UNL     1     -11.883  -4.947  10.212  0.00  0.00    +0.130 A 
BRANCH  31   6
ATOM      6  O   UNL     1     -12.821  -4.272  10.933  0.00  0.00    -0.406 OA
BRANCH   6  32
ATOM      1  F   UNL     1     -11.789  -4.858  12.852  0.00  0.00    -0.133 F 
ATOM      2  F   UNL     1     -11.725  -2.758  12.250  0.00  0.00    -0.133 F 
ATOM      3  F   UNL     1     -13.607  -3.651  12.989  0.00  0.00    -0.133 F 
ATOM     32  C   UNL     1     -12.493  -3.868  12.256  0.00  0.00    +0.575 C 
ENDBRANCH   6  32
ENDBRANCH  31   6
ENDBRANCH  20  24
ENDBRANCH  11  16
BRANCH  13   4
ATOM      4  O   UNL     1      -5.914 -12.911   7.145  0.00  0.00    -0.390 OA
ATOM     33  H   UNL     1      -5.002 -13.059   7.448  0.00  0.00    +0.210 HD
ENDBRANCH  13   4
BRANCH   7  15
ATOM     15  C   UNL     1      -4.821  -8.856   9.365  0.00  0.00    +0.120 C 
BRANCH  15  17
ATOM     17  C   UNL     1      -4.145  -9.450  10.572  0.00  0.00    -0.033 A 
ATOM     18  C   UNL     1      -4.904  -9.830  11.680  0.00  0.00    +0.007 A 
ATOM     19  C   UNL     1      -2.761  -9.620  10.584  0.00  0.00    +0.007 A 
ATOM     21  C   UNL     1      -4.278 -10.381  12.798  0.00  0.00    +0.023 A 
ATOM     22  C   UNL     1      -2.136 -10.171  11.702  0.00  0.00    +0.023 A 
ATOM     23  C   UNL     1      -2.894 -10.550  12.809  0.00  0.00    +0.029 A 
BRANCH  23  10
ATOM     10  N   UNL     1      -2.261 -11.107  13.941  0.00  0.00    -0.336 N 
ATOM     27  C   UNL     1      -2.270 -12.540  14.156  0.00  0.00    +0.129 C 
ATOM     28  C   UNL     1      -1.588 -10.253  14.900  0.00  0.00    +0.129 C 
ENDBRANCH  23  10
ENDBRANCH  15  17
ENDBRANCH   7  15
TORSDOF 8
ENDMDL
MODEL 8
REMARK VINA RESULT:      -6.0      3.866      7.311
REMARK  Name = 26743716
REMARK  10 active torsions:
REMARK  status: ('A' for Active; 'I' for Inactive)
REMARK    1  A    between atoms: O_4  and  C_13
REMARK    2  A    between atoms: O_6  and  C_31
REMARK    3  A    between atoms: O_6  and  C_32
REMARK    4  A    between atoms: N_7  and  C_15
REMARK    5  A    between atoms: N_10  and  C_23
REMARK    6  A    between atoms: N_10  and  C_27
REMARK    7  A    between atoms: N_10  and  C_28
REMARK    8  A    between atoms: C_11  and  C_16
REMARK    9  A    between atoms: C_15  and  C_17
REMARK   10  A    between atoms: C_20  and  C_24
REMARK                            x       y       z     vdW  Elec       q    Type
REMARK                         _______ _______ _______ _____ _____    ______ ____
ROOT
ATOM      7  N   UNL     1      -8.436  -8.448   7.218  0.00  0.00    -0.285 NA
ATOM     11  C   UNL     1      -7.367  -9.460   7.334  0.00  0.00    +0.149 C 
ATOM     12  C   UNL     1      -6.620  -9.398   5.989  0.00  0.00    +0.061 C 
ATOM     13  C   UNL     1      -7.370  -8.355   5.169  0.00  0.00    +0.130 C 
ATOM     14  C   UNL     1      -8.751  -8.338   5.796  0.00  0.00    +0.116 C 
ENDROOT
BRANCH  11  16
ATOM      5  O   UNL     1      -6.310  -7.924   8.914  0.00  0.00    -0.336 OA
ATOM      8  N   UNL     1      -5.781 -10.076   9.239  0.00  0.00    -0.190 NA
ATOM      9  N   UNL     1      -5.439  -7.950  10.011  0.00  0.00    -0.056 NA
ATOM     16  C   UNL     1      -6.458  -9.216   8.521  0.00  0.00    +0.245 A 
ATOM     20  C   UNL     1      -5.171  -9.253  10.140  0.00  0.00    +0.202 A 
BRANCH  20  24
ATOM     24  C   UNL     1      -4.302  -9.764  11.159  0.00  0.00    +0.023 A 
ATOM     25  C   UNL     1      -4.823 -10.136  12.399  0.00  0.00    +0.015 A 
ATOM     26  C   UNL     1      -2.935  -9.889  10.912  0.00  0.00    +0.015 A 
ATOM     29  C   UNL     1      -3.976 -10.632  13.391  0.00  0.00    +0.046 A 
ATOM     30  C   UNL     1      -2.088 -10.385  11.903  0.00  0.00    +0.046 A 
ATOM     31  C   UNL     1      -2.609 -10.757  13.143  0.00  0.00    +0.130 A 
BRANCH  31   6
ATOM      6  O   UNL     1      -1.782 -11.241  14.109  0.00  0.00    -0.406 OA
BRANCH   6  32
ATOM      1  F   UNL     1      -2.341 -10.120  15.987  0.00  0.00    -0.133 F 
ATOM      2  F   UNL     1      -0.299 -10.879  15.812  0.00  0.00    -0.133 F 
ATOM      3  F   UNL     1      -0.961  -9.161  14.589  0.00  0.00    -0.133 F 
ATOM     32  C   UNL     1      -1.329 -10.348  15.119  0.00  0.00    +0.575 C 
ENDBRANCH   6  32
ENDBRANCH  31   6
ENDBRANCH  20  24
ENDBRANCH  11  16
BRANCH  13   4
ATOM      4  O   UNL     1      -7.417  -8.730   3.806  0.00  0.00    -0.390 OA
ATOM     33  H   UNL     1      -8.335  -8.981   3.603  0.00  0.00    +0.210 HD
ENDBRANCH  13   4
BRANCH   7  15
ATOM     15  C   UNL     1      -9.613  -8.762   8.018  0.00  0.00    +0.120 C 
BRANCH  15  17
ATOM     17  C   UNL     1     -10.318  -7.520   8.490  0.00  0.00    -0.033 A 
ATOM     18  C   UNL     1     -11.646  -7.589   8.916  0.00  0.00    +0.007 A 
ATOM     19  C   UNL     1      -9.646  -6.298   8.504  0.00  0.00    +0.007 A 
ATOM     21  C   UNL     1     -12.300  -6.438   9.355  0.00  0.00    +0.023 A 
ATOM     22  C   UNL     1     -10.300  -5.147   8.942  0.00  0.00    +0.023 A 
ATOM     23  C   UNL     1     -11.627  -5.217   9.367  0.00  0.00    +0.029 A 
BRANCH  23  10
ATOM     10  N   UNL     1     -12.288  -4.052   9.810  0.00  0.00    -0.336 N 
ATOM     27  C   UNL     1     -12.074  -3.552  11.153  0.00  0.00    +0.129 C 
ATOM     28  C   UNL     1     -13.186  -3.335   8.925  0.00  0.00    +0.129 C 
ENDBRANCH  23  10
ENDBRANCH  15  17
ENDBRANCH   7  15
TORSDOF 8
ENDMDL
MODEL 9
REMARK VINA RESULT:      -6.0      4.779      8.522
REMARK  Name = 26743716
REMARK  10 active torsions:
REMARK  status: ('A' for Active; 'I' for Inactive)
REMARK    1  A    between atoms: O_4  and  C_13
REMARK    2  A    between atoms: O_6  and  C_31
REMARK    3  A    between atoms: O_6  and  C_32
REMARK    4  A    between atoms: N_7  and  C_15
REMARK    5  A    between atoms: N_10  and  C_23
REMARK    6  A    between atoms: N_10  and  C_27
REMARK    7  A    between atoms: N_10  and  C_28
REMARK    8  A    between atoms: C_11  and  C_16
REMARK    9  A    between atoms: C_15  and  C_17
REMARK   10  A    between atoms: C_20  and  C_24
REMARK                            x       y       z     vdW  Elec       q    Type
REMARK                         _______ _______ _______ _____ _____    ______ ____
ROOT
ATOM      7  N   UNL     1      -3.279 -11.785  14.303  0.00  0.00    -0.285 NA
ATOM     11  C   UNL     1      -2.343 -11.622  13.171  0.00  0.00    +0.149 C 
ATOM     12  C   UNL     1      -1.984 -13.058  12.748  0.00  0.00    +0.061 C 
ATOM     13  C   UNL     1      -2.729 -13.956  13.728  0.00  0.00    +0.130 C 
ATOM     14  C   UNL     1      -2.948 -13.061  14.933  0.00  0.00    +0.116 C 
ENDROOT
BRANCH  11  16
ATOM      5  O   UNL     1      -2.079  -9.992  11.370  0.00  0.00    -0.336 OA
ATOM      8  N   UNL     1      -4.167 -10.769  11.600  0.00  0.00    -0.190 NA
ATOM      9  N   UNL     1      -2.844  -9.353  10.385  0.00  0.00    -0.056 NA
ATOM     16  C   UNL     1      -2.934 -10.807  12.039  0.00  0.00    +0.245 A 
ATOM     20  C   UNL     1      -4.063  -9.863  10.585  0.00  0.00    +0.202 A 
BRANCH  20  24
ATOM     24  C   UNL     1      -5.195  -9.490   9.789  0.00  0.00    +0.023 A 
ATOM     25  C   UNL     1      -5.161  -9.661   8.404  0.00  0.00    +0.015 A 
ATOM     26  C   UNL     1      -6.331  -8.955  10.397  0.00  0.00    +0.015 A 
ATOM     29  C   UNL     1      -6.263  -9.296   7.630  0.00  0.00    +0.046 A 
ATOM     30  C   UNL     1      -7.431  -8.591   9.623  0.00  0.00    +0.046 A 
ATOM     31  C   UNL     1      -7.398  -8.762   8.239  0.00  0.00    +0.130 A 
BRANCH  31   6
ATOM      6  O   UNL     1      -8.473  -8.407   7.484  0.00  0.00    -0.406 OA
BRANCH   6  32
ATOM      1  F   UNL     1      -7.926  -7.272   5.611  0.00  0.00    -0.133 F 
ATOM      2  F   UNL     1      -9.711  -6.648   6.707  0.00  0.00    -0.133 F 
ATOM      3  F   UNL     1      -7.699  -6.255   7.533  0.00  0.00    -0.133 F 
ATOM     32  C   UNL     1      -8.460  -7.135   6.847  0.00  0.00    +0.575 C 
ENDBRANCH   6  32
ENDBRANCH  31   6
ENDBRANCH  20  24
ENDBRANCH  11  16
BRANCH  13   4
ATOM      4  O   UNL     1      -1.955 -15.094  14.053  0.00  0.00    -0.390 OA
ATOM     33  H   UNL     1      -1.666 -14.997  14.977  0.00  0.00    +0.210 HD
ENDBRANCH  13   4
BRANCH   7  15
ATOM     15  C   UNL     1      -3.233 -10.679  15.250  0.00  0.00    +0.120 C 
BRANCH  15  17
ATOM     17  C   UNL     1      -4.565 -10.452  15.912  0.00  0.00    -0.033 A 
ATOM     18  C   UNL     1      -4.711 -10.674  17.282  0.00  0.00    +0.007 A 
ATOM     19  C   UNL     1      -5.656 -10.019  15.157  0.00  0.00    +0.007 A 
ATOM     21  C   UNL     1      -5.945 -10.464  17.897  0.00  0.00    +0.023 A 
ATOM     22  C   UNL     1      -6.890  -9.809  15.772  0.00  0.00    +0.023 A 
ATOM     23  C   UNL     1      -7.035 -10.032  17.141  0.00  0.00    +0.029 A 
BRANCH  23  10
ATOM     10  N   UNL     1      -8.283  -9.819  17.762  0.00  0.00    -0.336 N 
ATOM     27  C   UNL     1      -9.143  -8.736  17.331  0.00  0.00    +0.129 C 
ATOM     28  C   UNL     1      -8.726 -10.687  18.837  0.00  0.00    +0.129 C 
ENDBRANCH  23  10
ENDBRANCH  15  17
ENDBRANCH   7  15
TORSDOF 8
ENDMDL
MODEL 10
REMARK VINA RESULT:      -6.0      4.053      7.632
REMARK  Name = 26743716
REMARK  10 active torsions:
REMARK  status: ('A' for Active; 'I' for Inactive)
REMARK    1  A    between atoms: O_4  and  C_13
REMARK    2  A    between atoms: O_6  and  C_31
REMARK    3  A    between atoms: O_6  and  C_32
REMARK    4  A    between atoms: N_7  and  C_15
REMARK    5  A    between atoms: N_10  and  C_23
REMARK    6  A    between atoms: N_10  and  C_27
REMARK    7  A    between atoms: N_10  and  C_28
REMARK    8  A    between atoms: C_11  and  C_16
REMARK    9  A    between atoms: C_15  and  C_17
REMARK   10  A    between atoms: C_20  and  C_24
REMARK                            x       y       z     vdW  Elec       q    Type
REMARK                         _______ _______ _______ _____ _____    ______ ____
ROOT
ATOM      7  N   UNL     1      -7.763 -11.387  18.169  0.00  0.00    -0.285 NA
ATOM     11  C   UNL     1      -9.014 -11.661  17.434  0.00  0.00    +0.149 C 
ATOM     12  C   UNL     1     -10.109 -10.933  18.235  0.00  0.00    +0.061 C 
ATOM     13  C   UNL     1      -9.384 -10.319  19.426  0.00  0.00    +0.130 C 
ATOM     14  C   UNL     1      -8.141 -11.177  19.565  0.00  0.00    +0.116 C 
ENDROOT
BRANCH  11  16
ATOM      5  O   UNL     1     -10.102 -11.305  15.274  0.00  0.00    -0.336 OA
ATOM      8  N   UNL     1      -7.935 -10.744  15.309  0.00  0.00    -0.190 NA
ATOM      9  N   UNL     1      -9.799 -10.842  13.988  0.00  0.00    -0.056 NA
ATOM     16  C   UNL     1      -8.950 -11.214  15.988  0.00  0.00    +0.245 A 
ATOM     20  C   UNL     1      -8.504 -10.531  14.087  0.00  0.00    +0.202 A 
BRANCH  20  24
ATOM     24  C   UNL     1      -7.751 -10.003  12.987  0.00  0.00    +0.023 A 
ATOM     25  C   UNL     1      -6.390  -9.734  13.137  0.00  0.00    +0.015 A 
ATOM     26  C   UNL     1      -8.379  -9.758  11.765  0.00  0.00    +0.015 A 
ATOM     29  C   UNL     1      -5.659  -9.219  12.067  0.00  0.00    +0.046 A 
ATOM     30  C   UNL     1      -7.648  -9.243  10.695  0.00  0.00    +0.046 A 
ATOM     31  C   UNL     1      -6.287  -8.974  10.846  0.00  0.00    +0.130 A 
BRANCH  31   6
ATOM      6  O   UNL     1      -5.574  -8.473   9.801  0.00  0.00    -0.406 OA
BRANCH   6  32
ATOM      1  F   UNL     1      -4.721  -9.202   7.843  0.00  0.00    -0.133 F 
ATOM      2  F   UNL     1      -3.350  -8.927   9.522  0.00  0.00    -0.133 F 
ATOM      3  F   UNL     1      -4.790 -10.603   9.519  0.00  0.00    -0.133 F 
ATOM     32  C   UNL     1      -4.601  -9.308   9.186  0.00  0.00    +0.575 C 
ENDBRANCH   6  32
ENDBRANCH  31   6
ENDBRANCH  20  24
ENDBRANCH  11  16
BRANCH  13   4
ATOM      4  O   UNL     1     -10.191 -10.372  20.586  0.00  0.00    -0.390 OA
ATOM     33  H   UNL     1     -11.101 -10.151  20.319  0.00  0.00    +0.210 HD
ENDBRANCH  13   4
BRANCH   7  15
ATOM     15  C   UNL     1      -6.768 -12.442  18.024  0.00  0.00    +0.120 C 
BRANCH  15  17
ATOM     17  C   UNL     1      -5.585 -11.988  17.211  0.00  0.00    -0.033 A 
ATOM     18  C   UNL     1      -4.987 -10.756  17.478  0.00  0.00    +0.007 A 
ATOM     19  C   UNL     1      -5.086 -12.799  16.192  0.00  0.00    +0.007 A 
ATOM     21  C   UNL     1      -3.890 -10.335  16.726  0.00  0.00    +0.023 A 
ATOM     22  C   UNL     1      -3.989 -12.378  15.441  0.00  0.00    +0.023 A 
ATOM     23  C   UNL     1      -3.392 -11.147  15.706  0.00  0.00    +0.029 A 
BRANCH  23  10
ATOM     10  N   UNL     1      -2.283 -10.721  14.945  0.00  0.00    -0.336 N 
ATOM     27  C   UNL     1      -2.374 -10.631  13.502  0.00  0.00    +0.129 C 
ATOM     28  C   UNL     1      -1.039 -10.361  15.599  0.00  0.00    +0.129 C 
ENDBRANCH  23  10
ENDBRANCH  15  17
ENDBRANCH   7  15
TORSDOF 8
ENDMDL
