MODEL 1
REMARK VINA RESULT:      -6.7      0.000      0.000
REMARK  Name = 75536699
REMARK  8 active torsions:
REMARK  status: ('A' for Active; 'I' for Inactive)
REMARK    1  A    between atoms: S_1  and  N_7
REMARK    2  A    between atoms: S_1  and  C_19
REMARK    3  A    between atoms: O_3  and  C_10
REMARK    4  A    between atoms: N_6  and  C_8
REMARK    5  A    between atoms: N_6  and  C_9
REMARK    6  A    between atoms: N_7  and  C_18
REMARK    7  A    between atoms: C_11  and  C_18
REMARK    8  A    between atoms: C_24  and  C_25
REMARK                            x       y       z     vdW  Elec       q    Type
REMARK                         _______ _______ _______ _____ _____    ______ ____
ROOT
ATOM      2  O   UNL     1     -16.658   4.183  22.697  0.00  0.00    -0.371 OA
ATOM      8  C   UNL     1     -14.798   5.635  22.426  0.00  0.00    +0.111 C 
ATOM     10  C   UNL     1     -14.622   4.838  23.705  0.00  0.00    +0.164 C 
ATOM     11  C   UNL     1     -15.549   3.659  23.446  0.00  0.00    +0.164 C 
ATOM     14  C   UNL     1     -16.287   5.470  22.172  0.00  0.00    +0.181 C 
ENDROOT
BRANCH  10   3
ATOM      3  O   UNL     1     -13.286   4.422  23.909  0.00  0.00    -0.388 OA
ATOM     27  H   UNL     1     -13.121   4.380  24.867  0.00  0.00    +0.210 HD
ENDBRANCH  10   3
BRANCH   8   6
ATOM      6  N   UNL     1     -14.395   7.027  22.546  0.00  0.00    -0.306 NA
ATOM     26  H   UNL     1     -13.811   7.153  23.373  0.00  0.00    +0.123 HD
BRANCH   6   9
ATOM      9  C   UNL     1     -13.668   7.459  21.355  0.00  0.00    +0.054 C 
ATOM     12  C   UNL     1     -12.455   6.550  21.126  0.00  0.00    +0.019 C 
ATOM     13  C   UNL     1     -13.240   8.923  21.508  0.00  0.00    +0.019 C 
ATOM     15  C   UNL     1     -11.625   7.019  19.932  0.00  0.00    +0.002 C 
ATOM     16  C   UNL     1     -12.410   9.388  20.313  0.00  0.00    +0.002 C 
ATOM     17  C   UNL     1     -11.208   8.479  20.075  0.00  0.00    +0.000 C 
ENDBRANCH   6   9
ENDBRANCH   8   6
BRANCH  11  18
ATOM     18  C   UNL     1     -16.055   3.001  24.717  0.00  0.00    +0.140 C 
BRANCH  18   7
ATOM      7  N   UNL     1     -15.834   3.903  25.865  0.00  0.00    -0.187 NA
ATOM     28  H   UNL     1     -14.853   4.097  26.097  0.00  0.00    +0.148 HD
BRANCH   7   1
ATOM      1  S   UNL     1     -16.995   4.006  27.104  0.00  0.00    +0.058 S 
ATOM      4  O   UNL     1     -18.248   3.442  26.638  0.00  0.00    -0.153 OA
ATOM      5  O   UNL     1     -16.964   5.341  27.670  0.00  0.00    -0.153 OA
BRANCH   1  19
ATOM     19  C   UNL     1     -16.324   2.914  28.321  0.00  0.00    +0.105 A 
ATOM     20  C   UNL     1     -15.267   3.333  29.127  0.00  0.00    +0.029 A 
ATOM     21  C   UNL     1     -16.851   1.631  28.473  0.00  0.00    +0.029 A 
ATOM     22  C   UNL     1     -14.735   2.471  30.085  0.00  0.00    +0.005 A 
ATOM     23  C   UNL     1     -16.320   0.769  29.431  0.00  0.00    +0.005 A 
ATOM     24  C   UNL     1     -15.261   1.188  30.237  0.00  0.00    -0.050 A 
ATOM     25  C   UNL     1     -14.693   0.265  31.262  0.00  0.00    +0.044 C 
ENDBRANCH   1  19
ENDBRANCH   7   1
ENDBRANCH  18   7
ENDBRANCH  11  18
TORSDOF 7
ENDMDL
MODEL 2
REMARK VINA RESULT:      -6.7      1.959      8.645
REMARK  Name = 75536699
REMARK  8 active torsions:
REMARK  status: ('A' for Active; 'I' for Inactive)
REMARK    1  A    between atoms: S_1  and  N_7
REMARK    2  A    between atoms: S_1  and  C_19
REMARK    3  A    between atoms: O_3  and  C_10
REMARK    4  A    between atoms: N_6  and  C_8
REMARK    5  A    between atoms: N_6  and  C_9
REMARK    6  A    between atoms: N_7  and  C_18
REMARK    7  A    between atoms: C_11  and  C_18
REMARK    8  A    between atoms: C_24  and  C_25
REMARK                            x       y       z     vdW  Elec       q    Type
REMARK                         _______ _______ _______ _____ _____    ______ ____
ROOT
ATOM      2  O   UNL     1     -16.258   1.650  24.945  0.00  0.00    -0.371 OA
ATOM      8  C   UNL     1     -17.271   1.997  27.066  0.00  0.00    +0.111 C 
ATOM     10  C   UNL     1     -16.528   3.257  26.659  0.00  0.00    +0.164 C 
ATOM     11  C   UNL     1     -16.423   3.062  25.153  0.00  0.00    +0.164 C 
ATOM     14  C   UNL     1     -16.631   0.964  26.153  0.00  0.00    +0.181 C 
ENDROOT
BRANCH  10   3
ATOM      3  O   UNL     1     -17.233   4.437  26.990  0.00  0.00    -0.388 OA
ATOM     27  H   UNL     1     -18.068   4.445  26.492  0.00  0.00    +0.210 HD
ENDBRANCH  10   3
BRANCH   8   6
ATOM      6  N   UNL     1     -17.134   1.670  28.475  0.00  0.00    -0.306 NA
ATOM     26  H   UNL     1     -17.395   0.697  28.637  0.00  0.00    +0.123 HD
BRANCH   6   9
ATOM      9  C   UNL     1     -15.763   1.898  28.928  0.00  0.00    +0.054 C 
ATOM     12  C   UNL     1     -15.175   0.596  29.484  0.00  0.00    +0.019 C 
ATOM     13  C   UNL     1     -15.741   3.009  29.983  0.00  0.00    +0.019 C 
ATOM     15  C   UNL     1     -13.768   0.813  30.039  0.00  0.00    +0.002 C 
ATOM     16  C   UNL     1     -14.333   3.223  30.536  0.00  0.00    +0.002 C 
ATOM     17  C   UNL     1     -13.739   1.927  31.080  0.00  0.00    +0.000 C 
ENDBRANCH   6   9
ENDBRANCH   8   6
BRANCH  11  18
ATOM     18  C   UNL     1     -15.260   3.811  24.529  0.00  0.00    +0.140 C 
BRANCH  18   7
ATOM      7  N   UNL     1     -15.360   3.747  23.057  0.00  0.00    -0.187 NA
ATOM     28  H   UNL     1     -14.647   3.177  22.586  0.00  0.00    +0.148 HD
BRANCH   7   1
ATOM      1  S   UNL     1     -16.071   5.030  22.196  0.00  0.00    +0.058 S 
ATOM      4  O   UNL     1     -16.728   5.929  23.125  0.00  0.00    -0.153 OA
ATOM      5  O   UNL     1     -16.800   4.491  21.063  0.00  0.00    -0.153 OA
BRANCH   1  19
ATOM     19  C   UNL     1     -14.652   5.860  21.546  0.00  0.00    +0.105 A 
ATOM     20  C   UNL     1     -14.810   6.913  20.646  0.00  0.00    +0.029 A 
ATOM     21  C   UNL     1     -13.372   5.460  21.932  0.00  0.00    +0.029 A 
ATOM     22  C   UNL     1     -13.690   7.566  20.132  0.00  0.00    +0.005 A 
ATOM     23  C   UNL     1     -12.252   6.112  21.418  0.00  0.00    +0.005 A 
ATOM     24  C   UNL     1     -12.411   7.166  20.517  0.00  0.00    -0.050 A 
ATOM     25  C   UNL     1     -11.213   7.864  19.967  0.00  0.00    +0.044 C 
ENDBRANCH   1  19
ENDBRANCH   7   1
ENDBRANCH  18   7
ENDBRANCH  11  18
TORSDOF 7
ENDMDL
MODEL 3
REMARK VINA RESULT:      -6.5     18.792     21.141
REMARK  Name = 75536699
REMARK  8 active torsions:
REMARK  status: ('A' for Active; 'I' for Inactive)
REMARK    1  A    between atoms: S_1  and  N_7
REMARK    2  A    between atoms: S_1  and  C_19
REMARK    3  A    between atoms: O_3  and  C_10
REMARK    4  A    between atoms: N_6  and  C_8
REMARK    5  A    between atoms: N_6  and  C_9
REMARK    6  A    between atoms: N_7  and  C_18
REMARK    7  A    between atoms: C_11  and  C_18
REMARK    8  A    between atoms: C_24  and  C_25
REMARK                            x       y       z     vdW  Elec       q    Type
REMARK                         _______ _______ _______ _____ _____    ______ ____
ROOT
ATOM      2  O   UNL     1      -6.275 -11.749  18.126  0.00  0.00    -0.371 OA
ATOM      8  C   UNL     1      -7.813 -10.131  17.315  0.00  0.00    +0.111 C 
ATOM     10  C   UNL     1      -6.420  -9.777  16.829  0.00  0.00    +0.164 C 
ATOM     11  C   UNL     1      -5.712 -11.118  16.964  0.00  0.00    +0.164 C 
ATOM     14  C   UNL     1      -7.499 -11.074  18.465  0.00  0.00    +0.181 C 
ENDROOT
BRANCH  10   3
ATOM      3  O   UNL     1      -6.410  -9.308  15.495  0.00  0.00    -0.388 OA
ATOM     27  H   UNL     1      -5.718  -8.629  15.414  0.00  0.00    +0.210 HD
ENDBRANCH  10   3
BRANCH   8   6
ATOM      6  N   UNL     1      -8.597  -8.978  17.726  0.00  0.00    -0.306 NA
ATOM     26  H   UNL     1      -8.036  -8.129  17.657  0.00  0.00    +0.123 HD
BRANCH   6   9
ATOM      9  C   UNL     1      -9.798  -8.848  16.902  0.00  0.00    +0.054 C 
ATOM     12  C   UNL     1      -9.846  -7.454  16.269  0.00  0.00    +0.019 C 
ATOM     13  C   UNL     1     -11.044  -9.112  17.754  0.00  0.00    +0.019 C 
ATOM     15  C   UNL     1     -11.128  -7.254  15.461  0.00  0.00    +0.002 C 
ATOM     16  C   UNL     1     -12.324  -8.910  16.944  0.00  0.00    +0.002 C 
ATOM     17  C   UNL     1     -12.371  -7.527  16.301  0.00  0.00    +0.000 C 
ENDBRANCH   6   9
ENDBRANCH   8   6
BRANCH  11  18
ATOM     18  C   UNL     1      -4.209 -10.991  17.127  0.00  0.00    +0.140 C 
BRANCH  18   7
ATOM      7  N   UNL     1      -3.623 -10.422  15.897  0.00  0.00    -0.187 NA
ATOM     28  H   UNL     1      -4.140  -9.641  15.477  0.00  0.00    +0.148 HD
BRANCH   7   1
ATOM      1  S   UNL     1      -2.657 -11.391  14.886  0.00  0.00    +0.058 S 
ATOM      4  O   UNL     1      -3.149 -12.754  14.912  0.00  0.00    -0.153 OA
ATOM      5  O   UNL     1      -1.259 -11.115  15.163  0.00  0.00    -0.153 OA
BRANCH   1  19
ATOM     19  C   UNL     1      -3.009 -10.714  13.292  0.00  0.00    +0.105 A 
ATOM     20  C   UNL     1      -4.329 -10.476  12.911  0.00  0.00    +0.029 A 
ATOM     21  C   UNL     1      -1.966 -10.420  12.413  0.00  0.00    +0.029 A 
ATOM     22  C   UNL     1      -4.607  -9.945  11.652  0.00  0.00    +0.005 A 
ATOM     23  C   UNL     1      -2.244  -9.889  11.154  0.00  0.00    +0.005 A 
ATOM     24  C   UNL     1      -3.565  -9.652  10.773  0.00  0.00    -0.050 A 
ATOM     25  C   UNL     1      -3.861  -9.084   9.426  0.00  0.00    +0.044 C 
ENDBRANCH   1  19
ENDBRANCH   7   1
ENDBRANCH  18   7
ENDBRANCH  11  18
TORSDOF 7
ENDMDL
MODEL 4
REMARK VINA RESULT:      -6.4     19.105     21.654
REMARK  Name = 75536699
REMARK  8 active torsions:
REMARK  status: ('A' for Active; 'I' for Inactive)
REMARK    1  A    between atoms: S_1  and  N_7
REMARK    2  A    between atoms: S_1  and  C_19
REMARK    3  A    between atoms: O_3  and  C_10
REMARK    4  A    between atoms: N_6  and  C_8
REMARK    5  A    between atoms: N_6  and  C_9
REMARK    6  A    between atoms: N_7  and  C_18
REMARK    7  A    between atoms: C_11  and  C_18
REMARK    8  A    between atoms: C_24  and  C_25
REMARK                            x       y       z     vdW  Elec       q    Type
REMARK                         _______ _______ _______ _____ _____    ______ ____
ROOT
ATOM      2  O   UNL     1      -6.074 -12.651  17.123  0.00  0.00    -0.371 OA
ATOM      8  C   UNL     1      -7.548 -10.830  17.512  0.00  0.00    +0.111 C 
ATOM     10  C   UNL     1      -6.169 -10.289  17.182  0.00  0.00    +0.164 C 
ATOM     11  C   UNL     1      -5.548 -11.484  16.471  0.00  0.00    +0.164 C 
ATOM     14  C   UNL     1      -7.224 -12.264  17.895  0.00  0.00    +0.181 C 
ENDROOT
BRANCH  10   3
ATOM      3  O   UNL     1      -6.215  -9.147  16.350  0.00  0.00    -0.388 OA
ATOM     27  H   UNL     1      -6.670  -9.387  15.525  0.00  0.00    +0.210 HD
ENDBRANCH  10   3
BRANCH   8   6
ATOM      6  N   UNL     1      -8.222 -10.099  18.572  0.00  0.00    -0.306 NA
ATOM     26  H   UNL     1      -8.058  -9.098  18.468  0.00  0.00    +0.123 HD
BRANCH   6   9
ATOM      9  C   UNL     1      -9.658 -10.371  18.555  0.00  0.00    +0.054 C 
ATOM     12  C   UNL     1     -10.409  -9.169  17.971  0.00  0.00    +0.019 C 
ATOM     13  C   UNL     1     -10.145 -10.689  19.974  0.00  0.00    +0.019 C 
ATOM     15  C   UNL     1     -11.921  -9.386  18.008  0.00  0.00    +0.002 C 
ATOM     16  C   UNL     1     -11.656 -10.904  20.008  0.00  0.00    +0.002 C 
ATOM     17  C   UNL     1     -12.408  -9.715  19.416  0.00  0.00    +0.000 C 
ENDBRANCH   6   9
ENDBRANCH   8   6
BRANCH  11  18
ATOM     18  C   UNL     1      -4.031 -11.501  16.536  0.00  0.00    +0.140 C 
BRANCH  18   7
ATOM      7  N   UNL     1      -3.485 -10.461  15.642  0.00  0.00    -0.187 NA
ATOM     28  H   UNL     1      -4.156  -9.756  15.315  0.00  0.00    +0.148 HD
BRANCH   7   1
ATOM      1  S   UNL     1      -2.129 -10.799  14.672  0.00  0.00    +0.058 S 
ATOM      4  O   UNL     1      -1.882 -12.228  14.671  0.00  0.00    -0.153 OA
ATOM      5  O   UNL     1      -1.063  -9.876  15.012  0.00  0.00    -0.153 OA
BRANCH   1  19
ATOM     19  C   UNL     1      -2.710 -10.345  13.066  0.00  0.00    +0.105 A 
ATOM     20  C   UNL     1      -1.802  -9.969  12.076  0.00  0.00    +0.029 A 
ATOM     21  C   UNL     1      -4.077 -10.361  12.789  0.00  0.00    +0.029 A 
ATOM     22  C   UNL     1      -2.261  -9.608  10.810  0.00  0.00    +0.005 A 
ATOM     23  C   UNL     1      -4.536 -10.000  11.522  0.00  0.00    +0.005 A 
ATOM     24  C   UNL     1      -3.628  -9.623  10.532  0.00  0.00    -0.050 A 
ATOM     25  C   UNL     1      -4.119  -9.236   9.178  0.00  0.00    +0.044 C 
ENDBRANCH   1  19
ENDBRANCH   7   1
ENDBRANCH  18   7
ENDBRANCH  11  18
TORSDOF 7
ENDMDL
MODEL 5
REMARK VINA RESULT:      -6.4     28.258     30.935
REMARK  Name = 75536699
REMARK  8 active torsions:
REMARK  status: ('A' for Active; 'I' for Inactive)
REMARK    1  A    between atoms: S_1  and  N_7
REMARK    2  A    between atoms: S_1  and  C_19
REMARK    3  A    between atoms: O_3  and  C_10
REMARK    4  A    between atoms: N_6  and  C_8
REMARK    5  A    between atoms: N_6  and  C_9
REMARK    6  A    between atoms: N_7  and  C_18
REMARK    7  A    between atoms: C_11  and  C_18
REMARK    8  A    between atoms: C_24  and  C_25
REMARK                            x       y       z     vdW  Elec       q    Type
REMARK                         _______ _______ _______ _____ _____    ______ ____
ROOT
ATOM      2  O   UNL     1      12.585   9.197  15.219  0.00  0.00    -0.371 OA
ATOM      8  C   UNL     1      13.948  10.970  16.019  0.00  0.00    +0.111 C 
ATOM     10  C   UNL     1      13.271  10.295  17.198  0.00  0.00    +0.164 C 
ATOM     11  C   UNL     1      12.912   8.944  16.596  0.00  0.00    +0.164 C 
ATOM     14  C   UNL     1      13.078  10.501  14.865  0.00  0.00    +0.181 C 
ENDROOT
BRANCH  10   3
ATOM      3  O   UNL     1      14.126  10.163  18.317  0.00  0.00    -0.388 OA
ATOM     27  H   UNL     1      14.275   9.216  18.478  0.00  0.00    +0.210 HD
ENDBRANCH  10   3
BRANCH   8   6
ATOM      6  N   UNL     1      14.006  12.418  16.132  0.00  0.00    -0.306 NA
ATOM     26  H   UNL     1      13.685  12.712  17.054  0.00  0.00    +0.123 HD
BRANCH   6   9
ATOM      9  C   UNL     1      15.367  12.901  15.903  0.00  0.00    +0.054 C 
ATOM     12  C   UNL     1      16.209  11.794  15.258  0.00  0.00    +0.019 C 
ATOM     13  C   UNL     1      15.984  13.364  17.227  0.00  0.00    +0.019 C 
ATOM     15  C   UNL     1      17.661  12.237  15.074  0.00  0.00    +0.002 C 
ATOM     16  C   UNL     1      17.435  13.804  17.041  0.00  0.00    +0.002 C 
ATOM     17  C   UNL     1      18.275  12.710  16.387  0.00  0.00    +0.000 C 
ENDBRANCH   6   9
ENDBRANCH   8   6
BRANCH  11  18
ATOM     18  C   UNL     1      11.739   8.271  17.285  0.00  0.00    +0.140 C 
BRANCH  18   7
ATOM      7  N   UNL     1      12.221   7.118  18.072  0.00  0.00    -0.187 NA
ATOM     28  H   UNL     1      11.993   6.192  17.691  0.00  0.00    +0.148 HD
BRANCH   7   1
ATOM      1  S   UNL     1      12.452   7.270  19.751  0.00  0.00    +0.058 S 
ATOM      4  O   UNL     1      11.736   6.209  20.433  0.00  0.00    -0.153 OA
ATOM      5  O   UNL     1      12.242   8.654  20.133  0.00  0.00    -0.153 OA
BRANCH   1  19
ATOM     19  C   UNL     1      14.182   6.949  19.909  0.00  0.00    +0.105 A 
ATOM     20  C   UNL     1      14.963   6.753  18.770  0.00  0.00    +0.029 A 
ATOM     21  C   UNL     1      14.768   6.888  21.174  0.00  0.00    +0.029 A 
ATOM     22  C   UNL     1      16.328   6.497  18.896  0.00  0.00    +0.005 A 
ATOM     23  C   UNL     1      16.133   6.632  21.300  0.00  0.00    +0.005 A 
ATOM     24  C   UNL     1      16.913   6.436  20.160  0.00  0.00    -0.050 A 
ATOM     25  C   UNL     1      18.373   6.162  20.294  0.00  0.00    +0.044 C 
ENDBRANCH   1  19
ENDBRANCH   7   1
ENDBRANCH  18   7
ENDBRANCH  11  18
TORSDOF 7
ENDMDL
MODEL 6
REMARK VINA RESULT:      -6.3      1.844      2.628
REMARK  Name = 75536699
REMARK  8 active torsions:
REMARK  status: ('A' for Active; 'I' for Inactive)
REMARK    1  A    between atoms: S_1  and  N_7
REMARK    2  A    between atoms: S_1  and  C_19
REMARK    3  A    between atoms: O_3  and  C_10
REMARK    4  A    between atoms: N_6  and  C_8
REMARK    5  A    between atoms: N_6  and  C_9
REMARK    6  A    between atoms: N_7  and  C_18
REMARK    7  A    between atoms: C_11  and  C_18
REMARK    8  A    between atoms: C_24  and  C_25
REMARK                            x       y       z     vdW  Elec       q    Type
REMARK                         _______ _______ _______ _____ _____    ______ ____
ROOT
ATOM      2  O   UNL     1     -17.992   4.093  22.279  0.00  0.00    -0.371 OA
ATOM      8  C   UNL     1     -15.921   5.028  22.970  0.00  0.00    +0.111 C 
ATOM     10  C   UNL     1     -16.265   3.862  23.878  0.00  0.00    +0.164 C 
ATOM     11  C   UNL     1     -17.257   3.098  23.012  0.00  0.00    +0.164 C 
ATOM     14  C   UNL     1     -17.274   5.337  22.352  0.00  0.00    +0.181 C 
ENDROOT
BRANCH  10   3
ATOM      3  O   UNL     1     -15.138   3.074  24.207  0.00  0.00    -0.388 OA
ATOM     27  H   UNL     1     -15.433   2.157  24.339  0.00  0.00    +0.210 HD
ENDBRANCH  10   3
BRANCH   8   6
ATOM      6  N   UNL     1     -15.346   6.164  23.673  0.00  0.00    -0.306 NA
ATOM     26  H   UNL     1     -15.134   5.909  24.637  0.00  0.00    +0.123 HD
BRANCH   6   9
ATOM      9  C   UNL     1     -14.132   6.626  23.002  0.00  0.00    +0.054 C 
ATOM     12  C   UNL     1     -14.417   7.930  22.250  0.00  0.00    +0.019 C 
ATOM     13  C   UNL     1     -13.617   5.540  22.051  0.00  0.00    +0.019 C 
ATOM     15  C   UNL     1     -13.189   8.404  21.473  0.00  0.00    +0.002 C 
ATOM     16  C   UNL     1     -12.391   6.017  21.274  0.00  0.00    +0.002 C 
ATOM     17  C   UNL     1     -12.666   7.322  20.533  0.00  0.00    +0.000 C 
ENDBRANCH   6   9
ENDBRANCH   8   6
BRANCH  11  18
ATOM     18  C   UNL     1     -18.218   2.239  23.813  0.00  0.00    +0.140 C 
BRANCH  18   7
ATOM      7  N   UNL     1     -17.893   2.338  25.249  0.00  0.00    -0.187 NA
ATOM     28  H   UNL     1     -17.664   3.279  25.590  0.00  0.00    +0.148 HD
BRANCH   7   1
ATOM      1  S   UNL     1     -17.242   0.998  26.070  0.00  0.00    +0.058 S 
ATOM      4  O   UNL     1     -16.137   0.454  25.303  0.00  0.00    -0.153 OA
ATOM      5  O   UNL     1     -18.326   0.135  26.499  0.00  0.00    -0.153 OA
BRANCH   1  19
ATOM     19  C   UNL     1     -16.577   1.752  27.524  0.00  0.00    +0.105 A 
ATOM     20  C   UNL     1     -16.336   0.982  28.661  0.00  0.00    +0.029 A 
ATOM     21  C   UNL     1     -16.297   3.119  27.535  0.00  0.00    +0.029 A 
ATOM     22  C   UNL     1     -15.814   1.577  29.809  0.00  0.00    +0.005 A 
ATOM     23  C   UNL     1     -15.776   3.714  28.683  0.00  0.00    +0.005 A 
ATOM     24  C   UNL     1     -15.535   2.943  29.821  0.00  0.00    -0.050 A 
ATOM     25  C   UNL     1     -14.977   3.580  31.049  0.00  0.00    +0.044 C 
ENDBRANCH   1  19
ENDBRANCH   7   1
ENDBRANCH  18   7
ENDBRANCH  11  18
TORSDOF 7
ENDMDL
MODEL 7
REMARK VINA RESULT:      -6.2     21.683     22.938
REMARK  Name = 75536699
REMARK  8 active torsions:
REMARK  status: ('A' for Active; 'I' for Inactive)
REMARK    1  A    between atoms: S_1  and  N_7
REMARK    2  A    between atoms: S_1  and  C_19
REMARK    3  A    between atoms: O_3  and  C_10
REMARK    4  A    between atoms: N_6  and  C_8
REMARK    5  A    between atoms: N_6  and  C_9
REMARK    6  A    between atoms: N_7  and  C_18
REMARK    7  A    between atoms: C_11  and  C_18
REMARK    8  A    between atoms: C_24  and  C_25
REMARK                            x       y       z     vdW  Elec       q    Type
REMARK                         _______ _______ _______ _____ _____    ______ ____
ROOT
ATOM      2  O   UNL     1      -5.353 -13.590  13.033  0.00  0.00    -0.371 OA
ATOM      8  C   UNL     1      -3.890 -13.648  11.162  0.00  0.00    +0.111 C 
ATOM     10  C   UNL     1      -3.067 -13.530  12.432  0.00  0.00    +0.164 C 
ATOM     11  C   UNL     1      -4.058 -14.032  13.472  0.00  0.00    +0.164 C 
ATOM     14  C   UNL     1      -5.259 -13.204  11.651  0.00  0.00    +0.181 C 
ENDROOT
BRANCH  10   3
ATOM      3  O   UNL     1      -1.894 -14.320  12.397  0.00  0.00    -0.388 OA
ATOM     27  H   UNL     1      -1.462 -14.187  11.535  0.00  0.00    +0.210 HD
ENDBRANCH  10   3
BRANCH   8   6
ATOM      6  N   UNL     1      -3.390 -12.835  10.066  0.00  0.00    -0.306 NA
ATOM     26  H   UNL     1      -3.510 -13.327   9.181  0.00  0.00    +0.123 HD
BRANCH   6   9
ATOM      9  C   UNL     1      -4.083 -11.549  10.017  0.00  0.00    +0.054 C 
ATOM     12  C   UNL     1      -4.511 -11.243   8.577  0.00  0.00    +0.019 C 
ATOM     13  C   UNL     1      -3.174 -10.446  10.570  0.00  0.00    +0.019 C 
ATOM     15  C   UNL     1      -5.172  -9.869   8.474  0.00  0.00    +0.002 C 
ATOM     16  C   UNL     1      -3.836  -9.074  10.464  0.00  0.00    +0.002 C 
ATOM     17  C   UNL     1      -4.275  -8.769   9.035  0.00  0.00    +0.000 C 
ENDBRANCH   6   9
ENDBRANCH   8   6
BRANCH  11  18
ATOM     18  C   UNL     1      -3.783 -13.505  14.869  0.00  0.00    +0.140 C 
BRANCH  18   7
ATOM      7  N   UNL     1      -2.491 -12.790  14.884  0.00  0.00    -0.187 NA
ATOM     28  H   UNL     1      -1.669 -13.360  15.118  0.00  0.00    +0.148 HD
BRANCH   7   1
ATOM      1  S   UNL     1      -2.444 -11.123  15.220  0.00  0.00    +0.058 S 
ATOM      4  O   UNL     1      -2.873 -10.383  14.049  0.00  0.00    -0.153 OA
ATOM      5  O   UNL     1      -1.181 -10.807  15.860  0.00  0.00    -0.153 OA
BRANCH   1  19
ATOM     19  C   UNL     1      -3.700 -10.967  16.454  0.00  0.00    +0.105 A 
ATOM     20  C   UNL     1      -4.874 -10.270  16.170  0.00  0.00    +0.029 A 
ATOM     21  C   UNL     1      -3.516 -11.538  17.713  0.00  0.00    +0.029 A 
ATOM     22  C   UNL     1      -5.864 -10.144  17.144  0.00  0.00    +0.005 A 
ATOM     23  C   UNL     1      -4.506 -11.412  18.687  0.00  0.00    +0.005 A 
ATOM     24  C   UNL     1      -5.680 -10.715  18.403  0.00  0.00    -0.050 A 
ATOM     25  C   UNL     1      -6.738 -10.580  19.446  0.00  0.00    +0.044 C 
ENDBRANCH   1  19
ENDBRANCH   7   1
ENDBRANCH  18   7
ENDBRANCH  11  18
TORSDOF 7
ENDMDL
MODEL 8
REMARK VINA RESULT:      -6.1     20.902     22.907
REMARK  Name = 75536699
REMARK  8 active torsions:
REMARK  status: ('A' for Active; 'I' for Inactive)
REMARK    1  A    between atoms: S_1  and  N_7
REMARK    2  A    between atoms: S_1  and  C_19
REMARK    3  A    between atoms: O_3  and  C_10
REMARK    4  A    between atoms: N_6  and  C_8
REMARK    5  A    between atoms: N_6  and  C_9
REMARK    6  A    between atoms: N_7  and  C_18
REMARK    7  A    between atoms: C_11  and  C_18
REMARK    8  A    between atoms: C_24  and  C_25
REMARK                            x       y       z     vdW  Elec       q    Type
REMARK                         _______ _______ _______ _____ _____    ______ ____
ROOT
ATOM      2  O   UNL     1      -6.515 -12.238  12.498  0.00  0.00    -0.371 OA
ATOM      8  C   UNL     1      -6.034 -10.593  14.143  0.00  0.00    +0.111 C 
ATOM     10  C   UNL     1      -6.182  -9.916  12.793  0.00  0.00    +0.164 C 
ATOM     11  C   UNL     1      -6.977 -10.962  12.025  0.00  0.00    +0.164 C 
ATOM     14  C   UNL     1      -5.799 -12.037  13.729  0.00  0.00    +0.181 C 
ENDROOT
BRANCH  10   3
ATOM      3  O   UNL     1      -6.872  -8.684  12.873  0.00  0.00    -0.388 OA
ATOM     27  H   UNL     1      -7.744  -8.794  12.456  0.00  0.00    +0.210 HD
ENDBRANCH  10   3
BRANCH   8   6
ATOM      6  N   UNL     1      -4.952 -10.052  14.950  0.00  0.00    -0.306 NA
ATOM     26  H   UNL     1      -4.611  -9.182  14.543  0.00  0.00    +0.123 HD
BRANCH   6   9
ATOM      9  C   UNL     1      -5.400  -9.817  16.322  0.00  0.00    +0.054 C 
ATOM     12  C   UNL     1      -4.818 -10.889  17.250  0.00  0.00    +0.019 C 
ATOM     13  C   UNL     1      -6.931  -9.810  16.376  0.00  0.00    +0.019 C 
ATOM     15  C   UNL     1      -5.327 -10.720  18.681  0.00  0.00    +0.002 C 
ATOM     16  C   UNL     1      -7.436  -9.643  17.808  0.00  0.00    +0.002 C 
ATOM     17  C   UNL     1      -6.851 -10.701  18.739  0.00  0.00    +0.000 C 
ENDBRANCH   6   9
ENDBRANCH   8   6
BRANCH  11  18
ATOM     18  C   UNL     1      -6.790 -10.876  10.521  0.00  0.00    +0.140 C 
BRANCH  18   7
ATOM      7  N   UNL     1      -5.853  -9.781  10.199  0.00  0.00    -0.187 NA
ATOM     28  H   UNL     1      -6.280  -8.857  10.055  0.00  0.00    +0.148 HD
BRANCH   7   1
ATOM      1  S   UNL     1      -4.378 -10.122   9.425  0.00  0.00    +0.058 S 
ATOM      4  O   UNL     1      -3.666  -8.883   9.178  0.00  0.00    -0.153 OA
ATOM      5  O   UNL     1      -4.619 -11.053   8.339  0.00  0.00    -0.153 OA
BRANCH   1  19
ATOM     19  C   UNL     1      -3.506 -11.010  10.681  0.00  0.00    +0.105 A 
ATOM     20  C   UNL     1      -2.747 -10.319  11.624  0.00  0.00    +0.029 A 
ATOM     21  C   UNL     1      -3.577 -12.403  10.726  0.00  0.00    +0.029 A 
ATOM     22  C   UNL     1      -2.057 -11.020  12.613  0.00  0.00    +0.005 A 
ATOM     23  C   UNL     1      -2.887 -13.104  11.715  0.00  0.00    +0.005 A 
ATOM     24  C   UNL     1      -2.126 -12.412  12.658  0.00  0.00    -0.050 A 
ATOM     25  C   UNL     1      -1.389 -13.163  13.716  0.00  0.00    +0.044 C 
ENDBRANCH   1  19
ENDBRANCH   7   1
ENDBRANCH  18   7
ENDBRANCH  11  18
TORSDOF 7
ENDMDL
MODEL 9
REMARK VINA RESULT:      -6.1     19.029     20.296
REMARK  Name = 75536699
REMARK  8 active torsions:
REMARK  status: ('A' for Active; 'I' for Inactive)
REMARK    1  A    between atoms: S_1  and  N_7
REMARK    2  A    between atoms: S_1  and  C_19
REMARK    3  A    between atoms: O_3  and  C_10
REMARK    4  A    between atoms: N_6  and  C_8
REMARK    5  A    between atoms: N_6  and  C_9
REMARK    6  A    between atoms: N_7  and  C_18
REMARK    7  A    between atoms: C_11  and  C_18
REMARK    8  A    between atoms: C_24  and  C_25
REMARK                            x       y       z     vdW  Elec       q    Type
REMARK                         _______ _______ _______ _____ _____    ______ ____
ROOT
ATOM      2  O   UNL     1      -4.697 -13.494  15.280  0.00  0.00    -0.371 OA
ATOM      8  C   UNL     1      -4.786 -11.501  13.991  0.00  0.00    +0.111 C 
ATOM     10  C   UNL     1      -5.001 -11.155  15.453  0.00  0.00    +0.164 C 
ATOM     11  C   UNL     1      -4.402 -12.377  16.134  0.00  0.00    +0.164 C 
ATOM     14  C   UNL     1      -5.082 -12.992  13.988  0.00  0.00    +0.181 C 
ENDROOT
BRANCH  10   3
ATOM      3  O   UNL     1      -4.344  -9.963  15.834  0.00  0.00    -0.388 OA
ATOM     27  H   UNL     1      -4.606  -9.747  16.746  0.00  0.00    +0.210 HD
ENDBRANCH  10   3
BRANCH   8   6
ATOM      6  N   UNL     1      -5.640 -10.752  13.083  0.00  0.00    -0.306 NA
ATOM     26  H   UNL     1      -6.334 -10.222  13.611  0.00  0.00    +0.123 HD
BRANCH   6   9
ATOM      9  C   UNL     1      -4.847  -9.845  12.256  0.00  0.00    +0.054 C 
ATOM     12  C   UNL     1      -5.727  -9.236  11.159  0.00  0.00    +0.019 C 
ATOM     13  C   UNL     1      -3.655 -10.598  11.654  0.00  0.00    +0.019 C 
ATOM     15  C   UNL     1      -4.913  -8.341  10.226  0.00  0.00    +0.002 C 
ATOM     16  C   UNL     1      -2.844  -9.702  10.720  0.00  0.00    +0.002 C 
ATOM     17  C   UNL     1      -3.719  -9.083   9.633  0.00  0.00    +0.000 C 
ENDBRANCH   6   9
ENDBRANCH   8   6
BRANCH  11  18
ATOM     18  C   UNL     1      -4.966 -12.630  17.521  0.00  0.00    +0.140 C 
BRANCH  18   7
ATOM      7  N   UNL     1      -5.633 -11.410  18.015  0.00  0.00    -0.187 NA
ATOM     28  H   UNL     1      -5.080 -10.546  17.962  0.00  0.00    +0.148 HD
BRANCH   7   1
ATOM      1  S   UNL     1      -6.846 -11.524  19.203  0.00  0.00    +0.058 S 
ATOM      4  O   UNL     1      -6.367 -10.932  20.437  0.00  0.00    -0.153 OA
ATOM      5  O   UNL     1      -7.383 -12.871  19.201  0.00  0.00    -0.153 OA
BRANCH   1  19
ATOM     19  C   UNL     1      -8.100 -10.468  18.543  0.00  0.00    +0.105 A 
ATOM     20  C   UNL     1      -9.419 -10.595  18.978  0.00  0.00    +0.029 A 
ATOM     21  C   UNL     1      -7.772  -9.510  17.583  0.00  0.00    +0.029 A 
ATOM     22  C   UNL     1     -10.409  -9.764  18.455  0.00  0.00    +0.005 A 
ATOM     23  C   UNL     1      -8.762  -8.680  17.060  0.00  0.00    +0.005 A 
ATOM     24  C   UNL     1     -10.082  -8.807  17.496  0.00  0.00    -0.050 A 
ATOM     25  C   UNL     1     -11.141  -7.918  16.936  0.00  0.00    +0.044 C 
ENDBRANCH   1  19
ENDBRANCH   7   1
ENDBRANCH  18   7
ENDBRANCH  11  18
TORSDOF 7
ENDMDL
MODEL 10
REMARK VINA RESULT:      -6.0     16.228     18.556
REMARK  Name = 75536699
REMARK  8 active torsions:
REMARK  status: ('A' for Active; 'I' for Inactive)
REMARK    1  A    between atoms: S_1  and  N_7
REMARK    2  A    between atoms: S_1  and  C_19
REMARK    3  A    between atoms: O_3  and  C_10
REMARK    4  A    between atoms: N_6  and  C_8
REMARK    5  A    between atoms: N_6  and  C_9
REMARK    6  A    between atoms: N_7  and  C_18
REMARK    7  A    between atoms: C_11  and  C_18
REMARK    8  A    between atoms: C_24  and  C_25
REMARK                            x       y       z     vdW  Elec       q    Type
REMARK                         _______ _______ _______ _____ _____    ______ ____
ROOT
ATOM      2  O   UNL     1     -10.419 -10.866  16.221  0.00  0.00    -0.371 OA
ATOM      8  C   UNL     1      -8.985  -9.503  17.536  0.00  0.00    +0.111 C 
ATOM     10  C   UNL     1      -9.707  -8.632  16.523  0.00  0.00    +0.164 C 
ATOM     11  C   UNL     1     -10.899  -9.513  16.175  0.00  0.00    +0.164 C 
ATOM     14  C   UNL     1      -9.165 -10.883  16.925  0.00  0.00    +0.181 C 
ENDROOT
BRANCH  10   3
ATOM      3  O   UNL     1     -10.110  -7.388  17.063  0.00  0.00    -0.388 OA
ATOM     27  H   UNL     1      -9.754  -6.680  16.499  0.00  0.00    +0.210 HD
ENDBRANCH  10   3
BRANCH   8   6
ATOM      6  N   UNL     1      -7.589  -9.143  17.723  0.00  0.00    -0.306 NA
ATOM     26  H   UNL     1      -7.493  -8.505  18.512  0.00  0.00    +0.123 HD
BRANCH   6   9
ATOM      9  C   UNL     1      -6.775 -10.336  17.949  0.00  0.00    +0.054 C 
ATOM     12  C   UNL     1      -6.374 -10.420  19.426  0.00  0.00    +0.019 C 
ATOM     13  C   UNL     1      -5.540 -10.303  17.042  0.00  0.00    +0.019 C 
ATOM     15  C   UNL     1      -5.456 -11.615  19.686  0.00  0.00    +0.002 C 
ATOM     16  C   UNL     1      -4.624 -11.497  17.305  0.00  0.00    +0.002 C 
ATOM     17  C   UNL     1      -4.232 -11.592  18.777  0.00  0.00    +0.000 C 
ENDBRANCH   6   9
ENDBRANCH   8   6
BRANCH  11  18
ATOM     18  C   UNL     1     -11.481  -9.222  14.804  0.00  0.00    +0.140 C 
BRANCH  18   7
ATOM      7  N   UNL     1     -11.300  -7.793  14.481  0.00  0.00    -0.187 NA
ATOM     28  H   UNL     1     -10.357  -7.416  14.636  0.00  0.00    +0.148 HD
BRANCH   7   1
ATOM      1  S   UNL     1     -12.623  -6.726  14.567  0.00  0.00    +0.058 S 
ATOM      4  O   UNL     1     -12.450  -5.836  15.699  0.00  0.00    -0.153 OA
ATOM      5  O   UNL     1     -13.851  -7.484  14.416  0.00  0.00    -0.153 OA
BRANCH   1  19
ATOM     19  C   UNL     1     -12.419  -5.776  13.091  0.00  0.00    +0.105 A 
ATOM     20  C   UNL     1     -12.348  -4.386  13.160  0.00  0.00    +0.029 A 
ATOM     21  C   UNL     1     -12.333  -6.418  11.855  0.00  0.00    +0.029 A 
ATOM     22  C   UNL     1     -12.190  -3.636  11.994  0.00  0.00    +0.005 A 
ATOM     23  C   UNL     1     -12.175  -5.669  10.689  0.00  0.00    +0.005 A 
ATOM     24  C   UNL     1     -12.104  -4.277  10.759  0.00  0.00    -0.050 A 
ATOM     25  C   UNL     1     -11.936  -3.476   9.512  0.00  0.00    +0.044 C 
ENDBRANCH   1  19
ENDBRANCH   7   1
ENDBRANCH  18   7
ENDBRANCH  11  18
TORSDOF 7
ENDMDL
