MODEL 1
REMARK VINA RESULT:      -6.9      0.000      0.000
REMARK  Name = 7144178
REMARK  4 active torsions:
REMARK  status: ('A' for Active; 'I' for Inactive)
REMARK    1  A    between atoms: O_7  and  C_29
REMARK    2  A    between atoms: O_7  and  C_32
REMARK    3  A    between atoms: C_17  and  C_22
REMARK    4  A    between atoms: C_19  and  C_23
REMARK                            x       y       z     vdW  Elec       q    Type
REMARK                         _______ _______ _______ _____ _____    ______ ____
ROOT
ATOM      5  O   UNL     1       7.305   8.638   3.873  0.00  0.00    -0.268 OA
ATOM      6  O   UNL     1      10.819   9.770   7.354  0.00  0.00    -0.269 OA
ATOM      8  N   UNL     1       8.989   7.147   4.523  0.00  0.00    -0.311 N 
ATOM      9  N   UNL     1      11.136   7.519   6.807  0.00  0.00    -0.296 N 
ATOM     10  C   UNL     1       9.064   6.156   6.888  0.00  0.00    +0.027 C 
ATOM     11  C   UNL     1      10.824   5.596   5.262  0.00  0.00    +0.054 C 
ATOM     12  C   UNL     1       9.797   5.000   6.222  0.00  0.00    +0.018 C 
ATOM     13  C   UNL     1       8.310   6.937   5.810  0.00  0.00    +0.130 C 
ATOM     14  C   UNL     1      10.050   7.046   7.663  0.00  0.00    +0.113 C 
ATOM     15  C   UNL     1      11.828   6.463   6.054  0.00  0.00    +0.117 C 
ATOM     16  C   UNL     1      10.155   6.437   4.172  0.00  0.00    +0.034 A 
ATOM     17  C   UNL     1      10.660   6.543   2.915  0.00  0.00    +0.002 A 
ATOM     18  C   UNL     1       8.332   8.006   3.624  0.00  0.00    +0.252 A 
ATOM     19  C   UNL     1      11.399   8.889   6.723  0.00  0.00    +0.253 C 
ATOM     20  C   UNL     1      10.011   7.424   1.963  0.00  0.00    +0.015 A 
ATOM     21  C   UNL     1       8.926   8.133   2.275  0.00  0.00    +0.071 A 
ENDROOT
BRANCH  17  22
ATOM     22  C   UNL     1      11.867   5.798   2.495  0.00  0.00    -0.016 A 
ATOM     24  C   UNL     1      11.755   4.468   2.100  0.00  0.00    +0.012 A 
ATOM     25  C   UNL     1      13.106   6.431   2.498  0.00  0.00    +0.012 A 
ATOM     27  C   UNL     1      12.893   3.766   1.704  0.00  0.00    +0.046 A 
ATOM     28  C   UNL     1      14.244   5.728   2.103  0.00  0.00    +0.046 A 
ATOM     29  C   UNL     1      14.138   4.395   1.706  0.00  0.00    +0.130 A 
BRANCH  29   7
ATOM      7  O   UNL     1      15.247   3.709   1.320  0.00  0.00    -0.406 OA
BRANCH   7  32
ATOM      2  F   UNL     1      16.923   3.265  -0.172  0.00  0.00    -0.133 F 
ATOM      3  F   UNL     1      16.307   5.334   0.167  0.00  0.00    -0.133 F 
ATOM      4  F   UNL     1      14.980   3.992  -0.934  0.00  0.00    -0.133 F 
ATOM     32  C   UNL     1      15.862   4.060   0.085  0.00  0.00    +0.575 C 
ENDBRANCH   7  32
ENDBRANCH  29   7
ENDBRANCH  17  22
BRANCH  19  23
ATOM      1  S   UNL     1      14.019   9.613   6.390  0.00  0.00    -0.092 S 
ATOM     23  C   UNL     1      12.441   9.339   5.792  0.00  0.00    +0.074 A 
ATOM     26  C   UNL     1      12.339   9.589   4.446  0.00  0.00    +0.021 A 
ATOM     30  C   UNL     1      13.581  10.013   3.890  0.00  0.00    +0.008 A 
ATOM     31  C   UNL     1      14.579  10.070   4.837  0.00  0.00    +0.046 A 
ENDBRANCH  19  23
TORSDOF 4
ENDMDL
MODEL 2
REMARK VINA RESULT:      -6.8      1.277      1.695
REMARK  Name = 7144178
REMARK  4 active torsions:
REMARK  status: ('A' for Active; 'I' for Inactive)
REMARK    1  A    between atoms: O_7  and  C_29
REMARK    2  A    between atoms: O_7  and  C_32
REMARK    3  A    between atoms: C_17  and  C_22
REMARK    4  A    between atoms: C_19  and  C_23
REMARK                            x       y       z     vdW  Elec       q    Type
REMARK                         _______ _______ _______ _____ _____    ______ ____
ROOT
ATOM      5  O   UNL     1       7.186   9.559   5.005  0.00  0.00    -0.268 OA
ATOM      6  O   UNL     1      11.584   9.735   7.530  0.00  0.00    -0.269 OA
ATOM      8  N   UNL     1       8.649   7.737   5.156  0.00  0.00    -0.311 N 
ATOM      9  N   UNL     1      11.312   7.518   6.839  0.00  0.00    -0.296 N 
ATOM     10  C   UNL     1       9.092   6.553   7.389  0.00  0.00    +0.027 C 
ATOM     11  C   UNL     1      10.266   5.821   5.354  0.00  0.00    +0.054 C 
ATOM     12  C   UNL     1       9.401   5.343   6.519  0.00  0.00    +0.018 C 
ATOM     13  C   UNL     1       8.271   7.546   6.564  0.00  0.00    +0.130 C 
ATOM     14  C   UNL     1      10.391   7.181   7.923  0.00  0.00    +0.113 C 
ATOM     15  C   UNL     1      11.580   6.421   5.899  0.00  0.00    +0.117 C 
ATOM     16  C   UNL     1       9.534   6.858   4.498  0.00  0.00    +0.034 A 
ATOM     17  C   UNL     1       9.734   6.976   3.159  0.00  0.00    +0.002 A 
ATOM     18  C   UNL     1       7.978   8.773   4.483  0.00  0.00    +0.252 A 
ATOM     19  C   UNL     1      11.811   8.820   6.742  0.00  0.00    +0.253 C 
ATOM     20  C   UNL     1       9.062   8.037   2.433  0.00  0.00    +0.015 A 
ATOM     21  C   UNL     1       8.245   8.903   3.034  0.00  0.00    +0.071 A 
ENDROOT
BRANCH  17  22
ATOM     22  C   UNL     1      10.634   6.061   2.423  0.00  0.00    -0.016 A 
ATOM     24  C   UNL     1      10.134   4.871   1.902  0.00  0.00    +0.012 A 
ATOM     25  C   UNL     1      11.974   6.397   2.256  0.00  0.00    +0.012 A 
ATOM     27  C   UNL     1      10.983   4.010   1.208  0.00  0.00    +0.046 A 
ATOM     28  C   UNL     1      12.823   5.535   1.562  0.00  0.00    +0.046 A 
ATOM     29  C   UNL     1      12.327   4.340   1.038  0.00  0.00    +0.130 A 
BRANCH  29   7
ATOM      7  O   UNL     1      13.154   3.499   0.360  0.00  0.00    -0.406 OA
BRANCH   7  32
ATOM      2  F   UNL     1      12.517   4.683  -1.489  0.00  0.00    -0.133 F 
ATOM      3  F   UNL     1      12.699   2.510  -1.616  0.00  0.00    -0.133 F 
ATOM      4  F   UNL     1      14.509   3.725  -1.469  0.00  0.00    -0.133 F 
ATOM     32  C   UNL     1      13.228   3.620  -1.056  0.00  0.00    +0.575 C 
ENDBRANCH   7  32
ENDBRANCH  29   7
ENDBRANCH  17  22
BRANCH  19  23
ATOM      1  S   UNL     1      14.365   9.104   5.794  0.00  0.00    -0.092 S 
ATOM     23  C   UNL     1      12.667   9.150   5.596  0.00  0.00    +0.074 A 
ATOM     26  C   UNL     1      12.297   9.508   4.323  0.00  0.00    +0.021 A 
ATOM     30  C   UNL     1      13.428   9.752   3.491  0.00  0.00    +0.008 A 
ATOM     31  C   UNL     1      14.615   9.569   4.165  0.00  0.00    +0.046 A 
ENDBRANCH  19  23
TORSDOF 4
ENDMDL
MODEL 3
REMARK VINA RESULT:      -6.7     27.316     30.321
REMARK  Name = 7144178
REMARK  4 active torsions:
REMARK  status: ('A' for Active; 'I' for Inactive)
REMARK    1  A    between atoms: O_7  and  C_29
REMARK    2  A    between atoms: O_7  and  C_32
REMARK    3  A    between atoms: C_17  and  C_22
REMARK    4  A    between atoms: C_19  and  C_23
REMARK                            x       y       z     vdW  Elec       q    Type
REMARK                         _______ _______ _______ _____ _____    ______ ____
ROOT
ATOM      5  O   UNL     1     -10.799  12.891  18.343  0.00  0.00    -0.268 OA
ATOM      6  O   UNL     1     -14.089  11.226  14.857  0.00  0.00    -0.269 OA
ATOM      8  N   UNL     1     -11.260  10.621  18.000  0.00  0.00    -0.311 N 
ATOM      9  N   UNL     1     -13.076   9.325  15.766  0.00  0.00    -0.296 N 
ATOM     10  C   UNL     1     -10.597   9.430  15.826  0.00  0.00    +0.027 C 
ATOM     11  C   UNL     1     -11.804   8.202  17.583  0.00  0.00    +0.054 C 
ATOM     12  C   UNL     1     -10.563   8.180  16.693  0.00  0.00    +0.018 C 
ATOM     13  C   UNL     1     -10.506  10.656  16.738  0.00  0.00    +0.130 C 
ATOM     14  C   UNL     1     -11.865   9.452  14.956  0.00  0.00    +0.113 C 
ATOM     15  C   UNL     1     -13.072   8.191  16.701  0.00  0.00    +0.117 C 
ATOM     16  C   UNL     1     -11.817   9.427  18.501  0.00  0.00    +0.034 A 
ATOM     17  C   UNL     1     -12.369   9.406  19.743  0.00  0.00    +0.002 A 
ATOM     18  C   UNL     1     -11.281  11.825  18.726  0.00  0.00    +0.252 A 
ATOM     19  C   UNL     1     -14.089  10.279  15.641  0.00  0.00    +0.253 C 
ATOM     20  C   UNL     1     -12.412  10.631  20.519  0.00  0.00    +0.015 A 
ATOM     21  C   UNL     1     -11.923  11.782  20.059  0.00  0.00    +0.071 A 
ENDROOT
BRANCH  17  22
ATOM     22  C   UNL     1     -12.943   8.171  20.320  0.00  0.00    -0.016 A 
ATOM     24  C   UNL     1     -12.108   7.243  20.936  0.00  0.00    +0.012 A 
ATOM     25  C   UNL     1     -14.313   7.944  20.242  0.00  0.00    +0.012 A 
ATOM     27  C   UNL     1     -12.650   6.079  21.480  0.00  0.00    +0.046 A 
ATOM     28  C   UNL     1     -14.855   6.780  20.785  0.00  0.00    +0.046 A 
ATOM     29  C   UNL     1     -14.023   5.846  21.404  0.00  0.00    +0.130 A 
BRANCH  29   7
ATOM      7  O   UNL     1     -14.550   4.710  21.934  0.00  0.00    -0.406 OA
BRANCH   7  32
ATOM      2  F   UNL     1     -13.650   4.430  24.017  0.00  0.00    -0.133 F 
ATOM      3  F   UNL     1     -15.652   3.660  23.601  0.00  0.00    -0.133 F 
ATOM      4  F   UNL     1     -15.352   5.818  23.768  0.00  0.00    -0.133 F 
ATOM     32  C   UNL     1     -14.791   4.668  23.336  0.00  0.00    +0.575 C 
ENDBRANCH   7  32
ENDBRANCH  29   7
ENDBRANCH  17  22
BRANCH  19  23
ATOM      1  S   UNL     1     -16.659   9.385  15.949  0.00  0.00    -0.092 S 
ATOM     23  C   UNL     1     -15.255  10.172  16.526  0.00  0.00    +0.074 A 
ATOM     26  C   UNL     1     -15.401  10.630  17.812  0.00  0.00    +0.021 A 
ATOM     30  C   UNL     1     -16.691  10.330  18.338  0.00  0.00    +0.008 A 
ATOM     31  C   UNL     1     -17.477   9.656  17.430  0.00  0.00    +0.046 A 
ENDBRANCH  19  23
TORSDOF 4
ENDMDL
MODEL 4
REMARK VINA RESULT:      -6.6     25.859     28.447
REMARK  Name = 7144178
REMARK  4 active torsions:
REMARK  status: ('A' for Active; 'I' for Inactive)
REMARK    1  A    between atoms: O_7  and  C_29
REMARK    2  A    between atoms: O_7  and  C_32
REMARK    3  A    between atoms: C_17  and  C_22
REMARK    4  A    between atoms: C_19  and  C_23
REMARK                            x       y       z     vdW  Elec       q    Type
REMARK                         _______ _______ _______ _____ _____    ______ ____
ROOT
ATOM      5  O   UNL     1      -5.957 -11.446  20.897  0.00  0.00    -0.268 OA
ATOM      6  O   UNL     1      -9.235 -13.737  17.774  0.00  0.00    -0.269 OA
ATOM      8  N   UNL     1      -6.209 -10.851  18.646  0.00  0.00    -0.311 N 
ATOM      9  N   UNL     1      -8.317 -11.955  16.571  0.00  0.00    -0.296 N 
ATOM     10  C   UNL     1      -8.374  -9.785  17.774  0.00  0.00    +0.027 C 
ATOM     11  C   UNL     1      -6.526 -10.266  16.222  0.00  0.00    +0.054 C 
ATOM     12  C   UNL     1      -7.472  -9.172  16.714  0.00  0.00    +0.018 C 
ATOM     13  C   UNL     1      -7.505 -10.228  18.954  0.00  0.00    +0.130 C 
ATOM     14  C   UNL     1      -9.184 -10.953  17.186  0.00  0.00    +0.113 C 
ATOM     15  C   UNL     1      -7.348 -11.418  15.605  0.00  0.00    +0.117 C 
ATOM     16  C   UNL     1      -5.646 -10.801  17.355  0.00  0.00    +0.034 A 
ATOM     17  C   UNL     1      -4.380 -11.250  17.149  0.00  0.00    +0.002 A 
ATOM     18  C   UNL     1      -5.519 -11.389  19.747  0.00  0.00    +0.252 A 
ATOM     19  C   UNL     1      -8.424 -13.292  16.965  0.00  0.00    +0.253 C 
ATOM     20  C   UNL     1      -3.641 -11.815  18.262  0.00  0.00    +0.015 A 
ATOM     21  C   UNL     1      -4.158 -11.906  19.487  0.00  0.00    +0.071 A 
ENDROOT
BRANCH  17  22
ATOM     22  C   UNL     1      -3.741 -11.193  15.817  0.00  0.00    -0.016 A 
ATOM     24  C   UNL     1      -2.676 -10.324  15.598  0.00  0.00    +0.012 A 
ATOM     25  C   UNL     1      -4.207 -12.010  14.792  0.00  0.00    +0.012 A 
ATOM     27  C   UNL     1      -2.073 -10.272  14.341  0.00  0.00    +0.046 A 
ATOM     28  C   UNL     1      -3.605 -11.957  13.535  0.00  0.00    +0.046 A 
ATOM     29  C   UNL     1      -2.537 -11.088  13.309  0.00  0.00    +0.130 A 
BRANCH  29   7
ATOM      7  O   UNL     1      -1.949 -11.035  12.084  0.00  0.00    -0.406 OA
BRANCH   7  32
ATOM      2  F   UNL     1      -1.636  -9.251  10.689  0.00  0.00    -0.133 F 
ATOM      3  F   UNL     1      -3.584  -9.547  11.634  0.00  0.00    -0.133 F 
ATOM      4  F   UNL     1      -2.957 -10.898  10.036  0.00  0.00    -0.133 F 
ATOM     32  C   UNL     1      -2.521 -10.186  11.096  0.00  0.00    +0.575 C 
ENDBRANCH   7  32
ENDBRANCH  29   7
ENDBRANCH  17  22
BRANCH  19  23
ATOM      1  S   UNL     1      -8.000 -15.242  15.090  0.00  0.00    -0.092 S 
ATOM     23  C   UNL     1      -7.483 -14.261  16.391  0.00  0.00    +0.074 A 
ATOM     26  C   UNL     1      -6.184 -14.517  16.757  0.00  0.00    +0.021 A 
ATOM     30  C   UNL     1      -5.598 -15.538  15.954  0.00  0.00    +0.008 A 
ATOM     31  C   UNL     1      -6.476 -16.020  15.008  0.00  0.00    +0.046 A 
ENDBRANCH  19  23
TORSDOF 4
ENDMDL
MODEL 5
REMARK VINA RESULT:      -6.6     25.535     28.055
REMARK  Name = 7144178
REMARK  4 active torsions:
REMARK  status: ('A' for Active; 'I' for Inactive)
REMARK    1  A    between atoms: O_7  and  C_29
REMARK    2  A    between atoms: O_7  and  C_32
REMARK    3  A    between atoms: C_17  and  C_22
REMARK    4  A    between atoms: C_19  and  C_23
REMARK                            x       y       z     vdW  Elec       q    Type
REMARK                         _______ _______ _______ _____ _____    ______ ____
ROOT
ATOM      5  O   UNL     1      -7.690 -14.828  17.464  0.00  0.00    -0.268 OA
ATOM      6  O   UNL     1      -9.464 -10.276  18.837  0.00  0.00    -0.269 OA
ATOM      8  N   UNL     1      -6.563 -12.826  17.011  0.00  0.00    -0.311 N 
ATOM      9  N   UNL     1      -7.332  -9.911  17.948  0.00  0.00    -0.296 N 
ATOM     10  C   UNL     1      -5.575 -11.387  18.892  0.00  0.00    +0.027 C 
ATOM     11  C   UNL     1      -5.408 -10.640  16.553  0.00  0.00    +0.054 C 
ATOM     12  C   UNL     1      -4.602 -10.916  17.821  0.00  0.00    +0.018 C 
ATOM     13  C   UNL     1      -6.202 -12.705  18.431  0.00  0.00    +0.130 C 
ATOM     14  C   UNL     1      -6.637 -10.310  19.170  0.00  0.00    +0.113 C 
ATOM     15  C   UNL     1      -6.449  -9.535  16.835  0.00  0.00    +0.117 C 
ATOM     16  C   UNL     1      -6.110 -11.903  16.047  0.00  0.00    +0.034 A 
ATOM     17  C   UNL     1      -6.334 -12.137  14.727  0.00  0.00    +0.002 A 
ATOM     18  C   UNL     1      -7.283 -13.983  16.666  0.00  0.00    +0.252 A 
ATOM     19  C   UNL     1      -8.728  -9.962  17.904  0.00  0.00    +0.253 C 
ATOM     20  C   UNL     1      -7.078 -13.319  14.335  0.00  0.00    +0.015 A 
ATOM     21  C   UNL     1      -7.547 -14.193  15.225  0.00  0.00    +0.071 A 
ENDROOT
BRANCH  17  22
ATOM     22  C   UNL     1      -5.856 -11.209  13.679  0.00  0.00    -0.016 A 
ATOM     24  C   UNL     1      -6.754 -10.344  13.060  0.00  0.00    +0.012 A 
ATOM     25  C   UNL     1      -4.512 -11.208  13.319  0.00  0.00    +0.012 A 
ATOM     27  C   UNL     1      -6.302  -9.470  12.072  0.00  0.00    +0.046 A 
ATOM     28  C   UNL     1      -4.061 -10.334  12.331  0.00  0.00    +0.046 A 
ATOM     29  C   UNL     1      -4.956  -9.464  11.707  0.00  0.00    +0.130 A 
BRANCH  29   7
ATOM      7  O   UNL     1      -4.516  -8.611  10.743  0.00  0.00    -0.406 OA
BRANCH   7  32
ATOM      2  F   UNL     1      -2.411  -9.085   9.987  0.00  0.00    -0.133 F 
ATOM      3  F   UNL     1      -3.928  -8.392   8.575  0.00  0.00    -0.133 F 
ATOM      4  F   UNL     1      -4.079 -10.410   9.399  0.00  0.00    -0.133 F 
ATOM     32  C   UNL     1      -3.725  -9.138   9.684  0.00  0.00    +0.575 C 
ENDBRANCH   7  32
ENDBRANCH  29   7
ENDBRANCH  17  22
BRANCH  19  23
ATOM      1  S   UNL     1     -10.008  -8.056  16.411  0.00  0.00    -0.092 S 
ATOM     23  C   UNL     1      -9.394  -9.635  16.637  0.00  0.00    +0.074 A 
ATOM     26  C   UNL     1      -9.612 -10.443  15.548  0.00  0.00    +0.021 A 
ATOM     30  C   UNL     1     -10.297  -9.755  14.506  0.00  0.00    +0.008 A 
ATOM     31  C   UNL     1     -10.574  -8.448  14.843  0.00  0.00    +0.046 A 
ENDBRANCH  19  23
TORSDOF 4
ENDMDL
MODEL 6
REMARK VINA RESULT:      -6.5      4.407      6.435
REMARK  Name = 7144178
REMARK  4 active torsions:
REMARK  status: ('A' for Active; 'I' for Inactive)
REMARK    1  A    between atoms: O_7  and  C_29
REMARK    2  A    between atoms: O_7  and  C_32
REMARK    3  A    between atoms: C_17  and  C_22
REMARK    4  A    between atoms: C_19  and  C_23
REMARK                            x       y       z     vdW  Elec       q    Type
REMARK                         _______ _______ _______ _____ _____    ______ ____
ROOT
ATOM      5  O   UNL     1      10.798   5.616  -0.704  0.00  0.00    -0.268 OA
ATOM      6  O   UNL     1      13.095   9.874   0.828  0.00  0.00    -0.269 OA
ATOM      8  N   UNL     1      10.029   6.911   1.089  0.00  0.00    -0.311 N 
ATOM      9  N   UNL     1      11.134   9.695   2.088  0.00  0.00    -0.296 N 
ATOM     10  C   UNL     1       9.096   9.274   0.735  0.00  0.00    +0.027 C 
ATOM     11  C   UNL     1       9.260   8.343   3.006  0.00  0.00    +0.054 C 
ATOM     12  C   UNL     1       8.307   8.995   2.005  0.00  0.00    +0.018 C 
ATOM     13  C   UNL     1       9.560   7.939   0.149  0.00  0.00    +0.130 C 
ATOM     14  C   UNL     1      10.276  10.217   1.026  0.00  0.00    +0.113 C 
ATOM     15  C   UNL     1      10.423   9.310   3.316  0.00  0.00    +0.117 C 
ATOM     16  C   UNL     1       9.810   7.016   2.478  0.00  0.00    +0.034 A 
ATOM     17  C   UNL     1      10.118   5.974   3.294  0.00  0.00    +0.002 A 
ATOM     18  C   UNL     1      10.597   5.766   0.502  0.00  0.00    +0.252 A 
ATOM     19  C   UNL     1      12.504   9.551   1.857  0.00  0.00    +0.253 C 
ATOM     20  C   UNL     1      10.710   4.779   2.722  0.00  0.00    +0.015 A 
ATOM     21  C   UNL     1      10.959   4.663   1.418  0.00  0.00    +0.071 A 
ENDROOT
BRANCH  17  22
ATOM     22  C   UNL     1       9.882   6.031   4.753  0.00  0.00    -0.016 A 
ATOM     24  C   UNL     1       8.579   6.076   5.240  0.00  0.00    +0.012 A 
ATOM     25  C   UNL     1      10.964   6.039   5.627  0.00  0.00    +0.012 A 
ATOM     27  C   UNL     1       8.357   6.129   6.616  0.00  0.00    +0.046 A 
ATOM     28  C   UNL     1      10.742   6.094   7.003  0.00  0.00    +0.046 A 
ATOM     29  C   UNL     1       9.438   6.138   7.498  0.00  0.00    +0.130 A 
BRANCH  29   7
ATOM      7  O   UNL     1       9.221   6.191   8.840  0.00  0.00    -0.406 OA
BRANCH   7  32
ATOM      2  F   UNL     1       9.286   3.907   8.757  0.00  0.00    -0.133 F 
ATOM      3  F   UNL     1       8.174   4.892  10.359  0.00  0.00    -0.133 F 
ATOM      4  F   UNL     1      10.357   4.946  10.386  0.00  0.00    -0.133 F 
ATOM     32  C   UNL     1       9.275   4.977   9.580  0.00  0.00    +0.575 C 
ENDBRANCH   7  32
ENDBRANCH  29   7
ENDBRANCH  17  22
BRANCH  19  23
ATOM      1  S   UNL     1      14.176   9.971   3.985  0.00  0.00    -0.092 S 
ATOM     23  C   UNL     1      13.326   8.946   2.913  0.00  0.00    +0.074 A 
ATOM     26  C   UNL     1      13.528   7.616   3.187  0.00  0.00    +0.021 A 
ATOM     30  C   UNL     1      14.399   7.430   4.299  0.00  0.00    +0.008 A 
ATOM     31  C   UNL     1      14.825   8.628   4.828  0.00  0.00    +0.046 A 
ENDBRANCH  19  23
TORSDOF 4
ENDMDL
MODEL 7
REMARK VINA RESULT:      -6.2     24.215     26.394
REMARK  Name = 7144178
REMARK  4 active torsions:
REMARK  status: ('A' for Active; 'I' for Inactive)
REMARK    1  A    between atoms: O_7  and  C_29
REMARK    2  A    between atoms: O_7  and  C_32
REMARK    3  A    between atoms: C_17  and  C_22
REMARK    4  A    between atoms: C_19  and  C_23
REMARK                            x       y       z     vdW  Elec       q    Type
REMARK                         _______ _______ _______ _____ _____    ______ ____
ROOT
ATOM      5  O   UNL     1      19.527  -4.914  21.412  0.00  0.00    -0.268 OA
ATOM      6  O   UNL     1      20.509  -1.083  24.591  0.00  0.00    -0.269 OA
ATOM      8  N   UNL     1      18.065  -4.263  23.120  0.00  0.00    -0.311 N 
ATOM      9  N   UNL     1      18.333  -1.793  25.069  0.00  0.00    -0.296 N 
ATOM     10  C   UNL     1      16.872  -1.992  23.072  0.00  0.00    +0.027 C 
ATOM     11  C   UNL     1      16.542  -3.515  24.976  0.00  0.00    +0.054 C 
ATOM     12  C   UNL     1      15.815  -2.693  23.913  0.00  0.00    +0.018 C 
ATOM     13  C   UNL     1      17.710  -3.055  22.360  0.00  0.00    +0.130 C 
ATOM     14  C   UNL     1      17.736  -1.069  23.949  0.00  0.00    +0.113 C 
ATOM     15  C   UNL     1      17.381  -2.576  25.870  0.00  0.00    +0.117 C 
ATOM     16  C   UNL     1      17.444  -4.580  24.345  0.00  0.00    +0.034 A 
ATOM     17  C   UNL     1      17.684  -5.779  24.937  0.00  0.00    +0.002 A 
ATOM     18  C   UNL     1      18.968  -5.134  22.487  0.00  0.00    +0.252 A 
ATOM     19  C   UNL     1      19.715  -1.739  25.264  0.00  0.00    +0.253 C 
ATOM     20  C   UNL     1      18.615  -6.701  24.313  0.00  0.00    +0.015 A 
ATOM     21  C   UNL     1      19.242  -6.417  23.172  0.00  0.00    +0.071 A 
ENDROOT
BRANCH  17  22
ATOM     22  C   UNL     1      17.037  -6.164  26.210  0.00  0.00    -0.016 A 
ATOM     24  C   UNL     1      15.783  -6.770  26.191  0.00  0.00    +0.012 A 
ATOM     25  C   UNL     1      17.684  -5.919  27.416  0.00  0.00    +0.012 A 
ATOM     27  C   UNL     1      15.173  -7.133  27.392  0.00  0.00    +0.046 A 
ATOM     28  C   UNL     1      17.074  -6.281  28.616  0.00  0.00    +0.046 A 
ATOM     29  C   UNL     1      15.818  -6.889  28.605  0.00  0.00    +0.130 A 
BRANCH  29   7
ATOM      7  O   UNL     1      15.221  -7.243  29.775  0.00  0.00    -0.406 OA
BRANCH   7  32
ATOM      2  F   UNL     1      14.222  -6.525  31.702  0.00  0.00    -0.133 F 
ATOM      3  F   UNL     1      13.079  -6.538  29.840  0.00  0.00    -0.133 F 
ATOM      4  F   UNL     1      14.657  -5.052  30.113  0.00  0.00    -0.133 F 
ATOM     32  C   UNL     1      14.305  -6.330  30.369  0.00  0.00    +0.575 C 
ENDBRANCH   7  32
ENDBRANCH  29   7
ENDBRANCH  17  22
BRANCH  19  23
ATOM      1  S   UNL     1      20.570  -1.808  27.864  0.00  0.00    -0.092 S 
ATOM     23  C   UNL     1      20.295  -2.544  26.346  0.00  0.00    +0.074 A 
ATOM     26  C   UNL     1      20.670  -3.864  26.328  0.00  0.00    +0.021 A 
ATOM     30  C   UNL     1      21.195  -4.284  27.584  0.00  0.00    +0.008 A 
ATOM     31  C   UNL     1      21.199  -3.264  28.510  0.00  0.00    +0.046 A 
ENDBRANCH  19  23
TORSDOF 4
ENDMDL
MODEL 8
REMARK VINA RESULT:      -6.0     24.230     26.660
REMARK  Name = 7144178
REMARK  4 active torsions:
REMARK  status: ('A' for Active; 'I' for Inactive)
REMARK    1  A    between atoms: O_7  and  C_29
REMARK    2  A    between atoms: O_7  and  C_32
REMARK    3  A    between atoms: C_17  and  C_22
REMARK    4  A    between atoms: C_19  and  C_23
REMARK                            x       y       z     vdW  Elec       q    Type
REMARK                         _______ _______ _______ _____ _____    ______ ____
ROOT
ATOM      5  O   UNL     1      -2.004 -15.130  12.737  0.00  0.00    -0.268 OA
ATOM      6  O   UNL     1      -4.919 -13.293  16.462  0.00  0.00    -0.269 OA
ATOM      8  N   UNL     1      -2.547 -12.861  12.936  0.00  0.00    -0.311 N 
ATOM      9  N   UNL     1      -4.138 -11.443  15.265  0.00  0.00    -0.296 N 
ATOM     10  C   UNL     1      -1.685 -11.441  14.891  0.00  0.00    +0.027 C 
ATOM     11  C   UNL     1      -3.172 -10.441  13.205  0.00  0.00    +0.054 C 
ATOM     12  C   UNL     1      -1.832 -10.279  13.921  0.00  0.00    +0.018 C 
ATOM     13  C   UNL     1      -1.640 -12.742  14.087  0.00  0.00    +0.130 C 
ATOM     14  C   UNL     1      -2.830 -11.438  15.918  0.00  0.00    +0.113 C 
ATOM     15  C   UNL     1      -4.317 -10.404  14.241  0.00  0.00    +0.117 C 
ATOM     16  C   UNL     1      -3.230 -11.747  12.408  0.00  0.00    +0.034 A 
ATOM     17  C   UNL     1      -3.933 -11.868  11.252  0.00  0.00    +0.002 A 
ATOM     18  C   UNL     1      -2.591 -14.128  12.328  0.00  0.00    +0.252 A 
ATOM     19  C   UNL     1      -5.072 -12.426  15.605  0.00  0.00    +0.253 C 
ATOM     20  C   UNL     1      -4.004 -13.162  10.599  0.00  0.00    +0.015 A 
ATOM     21  C   UNL     1      -3.396 -14.241  11.091  0.00  0.00    +0.071 A 
ENDROOT
BRANCH  17  22
ATOM     22  C   UNL     1      -4.645 -10.720  10.649  0.00  0.00    -0.016 A 
ATOM     24  C   UNL     1      -5.980 -10.490  10.967  0.00  0.00    +0.012 A 
ATOM     25  C   UNL     1      -3.975  -9.878   9.767  0.00  0.00    +0.012 A 
ATOM     27  C   UNL     1      -6.650  -9.408  10.399  0.00  0.00    +0.046 A 
ATOM     28  C   UNL     1      -4.645  -8.796   9.198  0.00  0.00    +0.046 A 
ATOM     29  C   UNL     1      -5.984  -8.560   9.513  0.00  0.00    +0.130 A 
BRANCH  29   7
ATOM      7  O   UNL     1      -6.639  -7.505   8.959  0.00  0.00    -0.406 OA
BRANCH   7  32
ATOM      2  F   UNL     1      -7.415  -8.855   7.284  0.00  0.00    -0.133 F 
ATOM      3  F   UNL     1      -7.831  -6.711   7.215  0.00  0.00    -0.133 F 
ATOM      4  F   UNL     1      -8.866  -7.951   8.686  0.00  0.00    -0.133 F 
ATOM     32  C   UNL     1      -7.693  -7.772   8.041  0.00  0.00    +0.575 C 
ENDBRANCH   7  32
ENDBRANCH  29   7
ENDBRANCH  17  22
BRANCH  19  23
ATOM      1  S   UNL     1      -7.706 -11.680  15.556  0.00  0.00    -0.092 S 
ATOM     23  C   UNL     1      -6.344 -12.456  14.874  0.00  0.00    +0.074 A 
ATOM     26  C   UNL     1      -6.625 -13.040  13.663  0.00  0.00    +0.021 A 
ATOM     30  C   UNL     1      -7.985 -12.850  13.285  0.00  0.00    +0.008 A 
ATOM     31  C   UNL     1      -8.687 -12.127  14.225  0.00  0.00    +0.046 A 
ENDBRANCH  19  23
TORSDOF 4
ENDMDL
MODEL 9
REMARK VINA RESULT:      -6.0      4.380      6.910
REMARK  Name = 7144178
REMARK  4 active torsions:
REMARK  status: ('A' for Active; 'I' for Inactive)
REMARK    1  A    between atoms: O_7  and  C_29
REMARK    2  A    between atoms: O_7  and  C_32
REMARK    3  A    between atoms: C_17  and  C_22
REMARK    4  A    between atoms: C_19  and  C_23
REMARK                            x       y       z     vdW  Elec       q    Type
REMARK                         _______ _______ _______ _____ _____    ______ ____
ROOT
ATOM      5  O   UNL     1      11.628  11.408   1.422  0.00  0.00    -0.268 OA
ATOM      6  O   UNL     1      14.071   6.993   0.886  0.00  0.00    -0.269 OA
ATOM      8  N   UNL     1      12.227  10.049   3.233  0.00  0.00    -0.311 N 
ATOM      9  N   UNL     1      13.935   7.394   3.185  0.00  0.00    -0.296 N 
ATOM     10  C   UNL     1      14.684   9.661   3.863  0.00  0.00    +0.027 C 
ATOM     11  C   UNL     1      12.896   8.542   5.130  0.00  0.00    +0.054 C 
ATOM     12  C   UNL     1      14.135   9.425   5.263  0.00  0.00    +0.018 C 
ATOM     13  C   UNL     1      13.636  10.429   3.055  0.00  0.00    +0.130 C 
ATOM     14  C   UNL     1      15.060   8.326   3.198  0.00  0.00    +0.113 C 
ATOM     15  C   UNL     1      13.290   7.193   4.491  0.00  0.00    +0.117 C 
ATOM     16  C   UNL     1      11.809   9.219   4.292  0.00  0.00    +0.034 A 
ATOM     17  C   UNL     1      10.483   9.020   4.514  0.00  0.00    +0.002 A 
ATOM     18  C   UNL     1      11.318  10.664   2.354  0.00  0.00    +0.252 A 
ATOM     19  C   UNL     1      13.529   6.822   1.976  0.00  0.00    +0.253 C 
ATOM     20  C   UNL     1       9.516   9.636   3.625  0.00  0.00    +0.015 A 
ATOM     21  C   UNL     1       9.882  10.399   2.595  0.00  0.00    +0.071 A 
ENDROOT
BRANCH  17  22
ATOM     22  C   UNL     1       9.997   8.178   5.629  0.00  0.00    -0.016 A 
ATOM     24  C   UNL     1       9.829   8.735   6.893  0.00  0.00    +0.012 A 
ATOM     25  C   UNL     1       9.712   6.835   5.405  0.00  0.00    +0.012 A 
ATOM     27  C   UNL     1       9.371   7.940   7.943  0.00  0.00    +0.046 A 
ATOM     28  C   UNL     1       9.254   6.040   6.456  0.00  0.00    +0.046 A 
ATOM     29  C   UNL     1       9.084   6.592   7.726  0.00  0.00    +0.130 A 
BRANCH  29   7
ATOM      7  O   UNL     1       8.637   5.818   8.751  0.00  0.00    -0.406 OA
BRANCH   7  32
ATOM      2  F   UNL     1      10.807   5.421   9.354  0.00  0.00    -0.133 F 
ATOM      3  F   UNL     1       9.561   3.760   8.672  0.00  0.00    -0.133 F 
ATOM      4  F   UNL     1       9.184   4.642  10.635  0.00  0.00    -0.133 F 
ATOM     32  C   UNL     1       9.553   4.920   9.367  0.00  0.00    +0.575 C 
ENDBRANCH   7  32
ENDBRANCH  29   7
ENDBRANCH  17  22
BRANCH  19  23
ATOM      1  S   UNL     1      12.563   4.260   1.983  0.00  0.00    -0.092 S 
ATOM     23  C   UNL     1      12.345   5.955   1.982  0.00  0.00    +0.074 A 
ATOM     26  C   UNL     1      11.019   6.314   1.987  0.00  0.00    +0.021 A 
ATOM     30  C   UNL     1      10.162   5.175   1.991  0.00  0.00    +0.008 A 
ATOM     31  C   UNL     1      10.871   3.994   1.989  0.00  0.00    +0.046 A 
ENDBRANCH  19  23
TORSDOF 4
ENDMDL
MODEL 10
REMARK VINA RESULT:      -6.0     13.959     16.382
REMARK  Name = 7144178
REMARK  4 active torsions:
REMARK  status: ('A' for Active; 'I' for Inactive)
REMARK    1  A    between atoms: O_7  and  C_29
REMARK    2  A    between atoms: O_7  and  C_32
REMARK    3  A    between atoms: C_17  and  C_22
REMARK    4  A    between atoms: C_19  and  C_23
REMARK                            x       y       z     vdW  Elec       q    Type
REMARK                         _______ _______ _______ _____ _____    ______ ____
ROOT
ATOM      5  O   UNL     1      15.919  -6.579  -4.418  0.00  0.00    -0.268 OA
ATOM      6  O   UNL     1      19.396  -3.621  -6.634  0.00  0.00    -0.269 OA
ATOM      8  N   UNL     1      17.223  -5.033  -3.239  0.00  0.00    -0.311 N 
ATOM      9  N   UNL     1      19.274  -2.934  -4.403  0.00  0.00    -0.296 N 
ATOM     10  C   UNL     1      16.965  -2.506  -3.600  0.00  0.00    +0.027 C 
ATOM     11  C   UNL     1      18.658  -3.359  -2.032  0.00  0.00    +0.054 C 
ATOM     12  C   UNL     1      17.479  -2.397  -2.172  0.00  0.00    +0.018 C 
ATOM     13  C   UNL     1      16.447  -3.929  -3.822  0.00  0.00    +0.130 C 
ATOM     14  C   UNL     1      18.069  -2.132  -4.604  0.00  0.00    +0.113 C 
ATOM     15  C   UNL     1      19.773  -2.955  -3.021  0.00  0.00    +0.117 C 
ATOM     16  C   UNL     1      18.236  -4.808  -2.284  0.00  0.00    +0.034 A 
ATOM     17  C   UNL     1      18.820  -5.861  -1.655  0.00  0.00    +0.002 A 
ATOM     18  C   UNL     1      16.806  -6.326  -3.603  0.00  0.00    +0.252 A 
ATOM     19  C   UNL     1      19.817  -3.641  -5.479  0.00  0.00    +0.253 C 
ATOM     20  C   UNL     1      18.417  -7.209  -2.009  0.00  0.00    +0.015 A 
ATOM     21  C   UNL     1      17.486  -7.455  -2.930  0.00  0.00    +0.071 A 
ENDROOT
BRANCH  17  22
ATOM     22  C   UNL     1      19.869  -5.672  -0.629  0.00  0.00    -0.016 A 
ATOM     24  C   UNL     1      19.526  -5.178   0.626  0.00  0.00    +0.012 A 
ATOM     25  C   UNL     1      21.190  -5.988  -0.927  0.00  0.00    +0.012 A 
ATOM     27  C   UNL     1      20.516  -5.000   1.593  0.00  0.00    +0.046 A 
ATOM     28  C   UNL     1      22.180  -5.809   0.040  0.00  0.00    +0.046 A 
ATOM     29  C   UNL     1      21.843  -5.315   1.300  0.00  0.00    +0.130 A 
BRANCH  29   7
ATOM      7  O   UNL     1      22.807  -5.140   2.244  0.00  0.00    -0.406 OA
BRANCH   7  32
ATOM      2  F   UNL     1      22.266  -5.739   4.383  0.00  0.00    -0.133 F 
ATOM      3  F   UNL     1      24.238  -6.250   3.591  0.00  0.00    -0.133 F 
ATOM      4  F   UNL     1      22.481  -7.320   2.854  0.00  0.00    -0.133 F 
ATOM     32  C   UNL     1      22.931  -6.117   3.271  0.00  0.00    +0.575 C 
ENDBRANCH   7  32
ENDBRANCH  29   7
ENDBRANCH  17  22
BRANCH  19  23
ATOM      1  S   UNL     1      22.541  -3.900  -5.565  0.00  0.00    -0.092 S 
ATOM     23  C   UNL     1      20.977  -4.503  -5.228  0.00  0.00    +0.074 A 
ATOM     26  C   UNL     1      21.004  -5.786  -4.739  0.00  0.00    +0.021 A 
ATOM     30  C   UNL     1      22.334  -6.287  -4.637  0.00  0.00    +0.008 A 
ATOM     31  C   UNL     1      23.268  -5.365  -5.055  0.00  0.00    +0.046 A 
ENDBRANCH  19  23
TORSDOF 4
ENDMDL
