MODEL 1
REMARK VINA RESULT:      -5.9      0.000      0.000
REMARK  Name = 75368407
REMARK  3 active torsions:
REMARK  status: ('A' for Active; 'I' for Inactive)
REMARK    1  A    between atoms: O_3  and  C_15
REMARK    2  A    between atoms: O_3  and  C_20
REMARK    3  A    between atoms: C_13  and  C_14
REMARK                            x       y       z     vdW  Elec       q    Type
REMARK                         _______ _______ _______ _____ _____    ______ ____
ROOT
ATOM      1  O   UNL     1      19.673   6.274  21.209  0.00  0.00    -0.253 OA
ATOM      2  O   UNL     1      13.979  10.332  21.069  0.00  0.00    -0.270 OA
ATOM      4  N   UNL     1      17.651   7.223  20.467  0.00  0.00    -0.278 N 
ATOM      5  N   UNL     1      15.110   8.333  20.639  0.00  0.00    -0.294 N 
ATOM      6  N   UNL     1      18.416   5.374  19.445  0.00  0.00    -0.297 N 
ATOM      7  C   UNL     1      16.729   7.002  19.365  0.00  0.00    +0.112 C 
ATOM      8  C   UNL     1      15.289   7.093  19.857  0.00  0.00    +0.132 C 
ATOM      9  C   UNL     1      17.138   5.635  18.824  0.00  0.00    +0.129 C 
ATOM     10  C   UNL     1      17.474   8.370  21.340  0.00  0.00    +0.128 C 
ATOM     11  C   UNL     1      16.017   8.467  21.787  0.00  0.00    +0.127 C 
ATOM     12  C   UNL     1      18.700   6.297  20.468  0.00  0.00    +0.303 C 
ATOM     13  C   UNL     1      14.151   9.318  20.394  0.00  0.00    +0.250 C 
ATOM     21  H   UNL     1      19.003   4.575  19.227  0.00  0.00    +0.150 HD
ENDROOT
BRANCH  13  14
ATOM     14  C   UNL     1      13.273   9.154  19.229  0.00  0.00    +0.078 A 
ATOM     15  C   UNL     1      12.013   8.573  19.357  0.00  0.00    +0.132 A 
ATOM     16  C   UNL     1      13.717   9.587  17.979  0.00  0.00    +0.017 A 
ATOM     17  C   UNL     1      11.195   8.425  18.237  0.00  0.00    +0.046 A 
ATOM     18  C   UNL     1      12.900   9.439  16.858  0.00  0.00    +0.001 A 
ATOM     19  C   UNL     1      11.639   8.858  16.987  0.00  0.00    +0.004 A 
BRANCH  15   3
ATOM      3  O   UNL     1      11.562   8.140  20.569  0.00  0.00    -0.494 OA
ATOM     20  C   UNL     1      11.683   6.748  20.846  0.00  0.00    +0.277 C 
ENDBRANCH  15   3
ENDBRANCH  13  14
TORSDOF 2
ENDMDL
MODEL 2
REMARK VINA RESULT:      -5.7     31.329     32.835
REMARK  Name = 75368407
REMARK  3 active torsions:
REMARK  status: ('A' for Active; 'I' for Inactive)
REMARK    1  A    between atoms: O_3  and  C_15
REMARK    2  A    between atoms: O_3  and  C_20
REMARK    3  A    between atoms: C_13  and  C_14
REMARK                            x       y       z     vdW  Elec       q    Type
REMARK                         _______ _______ _______ _____ _____    ______ ____
ROOT
ATOM      1  O   UNL     1     -17.615   2.213  22.071  0.00  0.00    -0.253 OA
ATOM      2  O   UNL     1     -17.538   0.261  28.785  0.00  0.00    -0.270 OA
ATOM      4  N   UNL     1     -16.943   2.056  24.320  0.00  0.00    -0.278 N 
ATOM      5  N   UNL     1     -17.202   1.818  27.076  0.00  0.00    -0.294 N 
ATOM      6  N   UNL     1     -16.034   3.655  23.030  0.00  0.00    -0.297 N 
ATOM      7  C   UNL     1     -15.935   2.680  25.161  0.00  0.00    +0.112 C 
ATOM      8  C   UNL     1     -16.521   3.009  26.530  0.00  0.00    +0.132 C 
ATOM      9  C   UNL     1     -15.488   3.891  24.347  0.00  0.00    +0.129 C 
ATOM     10  C   UNL     1     -17.723   0.942  24.830  0.00  0.00    +0.128 C 
ATOM     11  C   UNL     1     -18.265   1.276  26.219  0.00  0.00    +0.127 C 
ATOM     12  C   UNL     1     -16.948   2.586  23.026  0.00  0.00    +0.303 C 
ATOM     13  C   UNL     1     -16.944   1.230  28.315  0.00  0.00    +0.250 C 
ATOM     21  H   UNL     1     -15.845   4.239  22.221  0.00  0.00    +0.150 HD
ENDROOT
BRANCH  13  14
ATOM     14  C   UNL     1     -15.864   1.793  29.136  0.00  0.00    +0.078 A 
ATOM     15  C   UNL     1     -14.745   1.031  29.468  0.00  0.00    +0.132 A 
ATOM     16  C   UNL     1     -15.971   3.108  29.588  0.00  0.00    +0.017 A 
ATOM     17  C   UNL     1     -13.731   1.583  30.251  0.00  0.00    +0.046 A 
ATOM     18  C   UNL     1     -14.958   3.661  30.371  0.00  0.00    +0.001 A 
ATOM     19  C   UNL     1     -13.838   2.899  30.702  0.00  0.00    +0.004 A 
BRANCH  15   3
ATOM      3  O   UNL     1     -14.623  -0.258  29.040  0.00  0.00    -0.494 OA
ATOM     20  C   UNL     1     -13.432  -0.951  29.404  0.00  0.00    +0.277 C 
ENDBRANCH  15   3
ENDBRANCH  13  14
TORSDOF 2
ENDMDL
MODEL 3
REMARK VINA RESULT:      -5.6      4.590      6.707
REMARK  Name = 75368407
REMARK  3 active torsions:
REMARK  status: ('A' for Active; 'I' for Inactive)
REMARK    1  A    between atoms: O_3  and  C_15
REMARK    2  A    between atoms: O_3  and  C_20
REMARK    3  A    between atoms: C_13  and  C_14
REMARK                            x       y       z     vdW  Elec       q    Type
REMARK                         _______ _______ _______ _____ _____    ______ ____
ROOT
ATOM      1  O   UNL     1      12.018   6.849  19.243  0.00  0.00    -0.253 OA
ATOM      2  O   UNL     1      13.615  13.238  21.592  0.00  0.00    -0.270 OA
ATOM      4  N   UNL     1      11.936   8.815  20.533  0.00  0.00    -0.278 N 
ATOM      5  N   UNL     1      12.881  11.041  21.899  0.00  0.00    -0.294 N 
ATOM      6  N   UNL     1      10.754   7.028  21.211  0.00  0.00    -0.297 N 
ATOM      7  C   UNL     1      11.184   9.284  21.685  0.00  0.00    +0.112 C 
ATOM      8  C   UNL     1      12.103  10.033  22.645  0.00  0.00    +0.132 C 
ATOM      9  C   UNL     1      10.563   8.011  22.252  0.00  0.00    +0.129 C 
ATOM     10  C   UNL     1      12.802   9.730  19.811  0.00  0.00    +0.128 C 
ATOM     11  C   UNL     1      13.683  10.499  20.794  0.00  0.00    +0.127 C 
ATOM     12  C   UNL     1      11.621   7.492  20.205  0.00  0.00    +0.303 C 
ATOM     13  C   UNL     1      12.936  12.406  22.191  0.00  0.00    +0.250 C 
ATOM     21  H   UNL     1      10.375   6.086  21.238  0.00  0.00    +0.150 HD
ENDROOT
BRANCH  13  14
ATOM     14  C   UNL     1      12.109  12.911  23.294  0.00  0.00    +0.078 A 
ATOM     15  C   UNL     1      10.854  13.468  23.051  0.00  0.00    +0.132 A 
ATOM     16  C   UNL     1      12.595  12.830  24.599  0.00  0.00    +0.017 A 
ATOM     17  C   UNL     1      10.084  13.944  24.113  0.00  0.00    +0.046 A 
ATOM     18  C   UNL     1      11.827  13.306  25.661  0.00  0.00    +0.001 A 
ATOM     19  C   UNL     1      10.571  13.862  25.418  0.00  0.00    +0.004 A 
BRANCH  15   3
ATOM      3  O   UNL     1      10.362  13.559  21.783  0.00  0.00    -0.494 OA
ATOM     20  C   UNL     1       9.470  14.637  21.511  0.00  0.00    +0.277 C 
ENDBRANCH  15   3
ENDBRANCH  13  14
TORSDOF 2
ENDMDL
MODEL 4
REMARK VINA RESULT:      -5.5     31.683     32.959
REMARK  Name = 75368407
REMARK  3 active torsions:
REMARK  status: ('A' for Active; 'I' for Inactive)
REMARK    1  A    between atoms: O_3  and  C_15
REMARK    2  A    between atoms: O_3  and  C_20
REMARK    3  A    between atoms: C_13  and  C_14
REMARK                            x       y       z     vdW  Elec       q    Type
REMARK                         _______ _______ _______ _____ _____    ______ ____
ROOT
ATOM      1  O   UNL     1     -15.094  -0.417  29.816  0.00  0.00    -0.253 OA
ATOM      2  O   UNL     1     -14.241   4.297  34.910  0.00  0.00    -0.270 OA
ATOM      4  N   UNL     1     -14.867   1.667  30.885  0.00  0.00    -0.278 N 
ATOM      5  N   UNL     1     -15.144   3.585  32.876  0.00  0.00    -0.294 N 
ATOM      6  N   UNL     1     -15.541   1.620  28.741  0.00  0.00    -0.297 N 
ATOM      7  C   UNL     1     -14.935   3.064  30.488  0.00  0.00    +0.112 C 
ATOM      8  C   UNL     1     -15.693   3.873  31.536  0.00  0.00    +0.132 C 
ATOM      9  C   UNL     1     -15.596   3.015  29.114  0.00  0.00    +0.129 C 
ATOM     10  C   UNL     1     -14.431   1.315  32.225  0.00  0.00    +0.128 C 
ATOM     11  C   UNL     1     -15.171   2.166  33.255  0.00  0.00    +0.127 C 
ATOM     12  C   UNL     1     -15.154   0.805  29.821  0.00  0.00    +0.303 C 
ATOM     13  C   UNL     1     -14.663   4.535  33.779  0.00  0.00    +0.250 C 
ATOM     21  H   UNL     1     -15.824   1.259  27.836  0.00  0.00    +0.150 HD
ENDROOT
BRANCH  13  14
ATOM     14  C   UNL     1     -14.639   5.941  33.357  0.00  0.00    +0.078 A 
ATOM     15  C   UNL     1     -15.775   6.741  33.464  0.00  0.00    +0.132 A 
ATOM     16  C   UNL     1     -13.458   6.474  32.839  0.00  0.00    +0.017 A 
ATOM     17  C   UNL     1     -15.732   8.074  33.055  0.00  0.00    +0.046 A 
ATOM     18  C   UNL     1     -13.414   7.806  32.430  0.00  0.00    +0.001 A 
ATOM     19  C   UNL     1     -14.551   8.606  32.538  0.00  0.00    +0.004 A 
BRANCH  15   3
ATOM      3  O   UNL     1     -16.940   6.239  33.964  0.00  0.00    -0.494 OA
ATOM     20  C   UNL     1     -18.099   6.351  33.141  0.00  0.00    +0.277 C 
ENDBRANCH  15   3
ENDBRANCH  13  14
TORSDOF 2
ENDMDL
MODEL 5
REMARK VINA RESULT:      -5.5      4.443      6.639
REMARK  Name = 75368407
REMARK  3 active torsions:
REMARK  status: ('A' for Active; 'I' for Inactive)
REMARK    1  A    between atoms: O_3  and  C_15
REMARK    2  A    between atoms: O_3  and  C_20
REMARK    3  A    between atoms: C_13  and  C_14
REMARK                            x       y       z     vdW  Elec       q    Type
REMARK                         _______ _______ _______ _____ _____    ______ ____
ROOT
ATOM      1  O   UNL     1      12.076   6.587  19.294  0.00  0.00    -0.253 OA
ATOM      2  O   UNL     1      13.641  13.004  21.590  0.00  0.00    -0.270 OA
ATOM      4  N   UNL     1      11.955   8.582  20.537  0.00  0.00    -0.278 N 
ATOM      5  N   UNL     1      12.861  10.824  21.904  0.00  0.00    -0.294 N 
ATOM      6  N   UNL     1      10.714   6.825  21.189  0.00  0.00    -0.297 N 
ATOM      7  C   UNL     1      11.151   9.086  21.638  0.00  0.00    +0.112 C 
ATOM      8  C   UNL     1      12.030   9.842  22.629  0.00  0.00    +0.132 C 
ATOM      9  C   UNL     1      10.484   7.833  22.198  0.00  0.00    +0.129 C 
ATOM     10  C   UNL     1      12.870   9.470  19.842  0.00  0.00    +0.128 C 
ATOM     11  C   UNL     1      13.711  10.248  20.853  0.00  0.00    +0.127 C 
ATOM     12  C   UNL     1      11.639   7.256  20.220  0.00  0.00    +0.303 C 
ATOM     13  C   UNL     1      12.920  12.194  22.169  0.00  0.00    +0.250 C 
ATOM     21  H   UNL     1      10.321   5.890  21.216  0.00  0.00    +0.150 HD
ENDROOT
BRANCH  13  14
ATOM     14  C   UNL     1      12.044  12.733  23.217  0.00  0.00    +0.078 A 
ATOM     15  C   UNL     1      12.440  12.729  24.554  0.00  0.00    +0.132 A 
ATOM     16  C   UNL     1      10.799  13.252  22.861  0.00  0.00    +0.017 A 
ATOM     17  C   UNL     1      11.593  13.244  25.535  0.00  0.00    +0.046 A 
ATOM     18  C   UNL     1       9.951  13.767  23.841  0.00  0.00    +0.001 A 
ATOM     19  C   UNL     1      10.348  13.764  25.177  0.00  0.00    +0.004 A 
BRANCH  15   3
ATOM      3  O   UNL     1      13.651  12.224  24.924  0.00  0.00    -0.494 OA
ATOM     20  C   UNL     1      14.215  12.715  26.137  0.00  0.00    +0.277 C 
ENDBRANCH  15   3
ENDBRANCH  13  14
TORSDOF 2
ENDMDL
MODEL 6
REMARK VINA RESULT:      -5.5      3.625      5.632
REMARK  Name = 75368407
REMARK  3 active torsions:
REMARK  status: ('A' for Active; 'I' for Inactive)
REMARK    1  A    between atoms: O_3  and  C_15
REMARK    2  A    between atoms: O_3  and  C_20
REMARK    3  A    between atoms: C_13  and  C_14
REMARK                            x       y       z     vdW  Elec       q    Type
REMARK                         _______ _______ _______ _____ _____    ______ ____
ROOT
ATOM      1  O   UNL     1      10.304   7.616  22.768  0.00  0.00    -0.253 OA
ATOM      2  O   UNL     1      14.131   7.349  16.922  0.00  0.00    -0.270 OA
ATOM      4  N   UNL     1      11.432   8.327  20.829  0.00  0.00    -0.278 N 
ATOM      5  N   UNL     1      13.410   8.400  18.880  0.00  0.00    -0.294 N 
ATOM      6  N   UNL     1      10.696   9.877  22.281  0.00  0.00    -0.297 N 
ATOM      7  C   UNL     1      11.717   9.600  20.187  0.00  0.00    +0.112 C 
ATOM      8  C   UNL     1      13.152   9.620  19.671  0.00  0.00    +0.132 C 
ATOM      9  C   UNL     1      11.411  10.626  21.273  0.00  0.00    +0.129 C 
ATOM     10  C   UNL     1      11.754   7.085  20.150  0.00  0.00    +0.128 C 
ATOM     11  C   UNL     1      13.180   7.143  19.604  0.00  0.00    +0.127 C 
ATOM     12  C   UNL     1      10.754   8.492  22.042  0.00  0.00    +0.303 C 
ATOM     13  C   UNL     1      13.880   8.366  17.566  0.00  0.00    +0.250 C 
ATOM     21  H   UNL     1      10.272  10.290  23.105  0.00  0.00    +0.150 HD
ENDROOT
BRANCH  13  14
ATOM     14  C   UNL     1      14.084   9.644  16.872  0.00  0.00    +0.078 A 
ATOM     15  C   UNL     1      13.354   9.962  15.727  0.00  0.00    +0.132 A 
ATOM     16  C   UNL     1      15.025  10.545  17.370  0.00  0.00    +0.017 A 
ATOM     17  C   UNL     1      13.564  11.180  15.081  0.00  0.00    +0.046 A 
ATOM     18  C   UNL     1      15.236  11.763  16.725  0.00  0.00    +0.001 A 
ATOM     19  C   UNL     1      14.505  12.081  15.581  0.00  0.00    +0.004 A 
BRANCH  15   3
ATOM      3  O   UNL     1      12.432   9.095  15.221  0.00  0.00    -0.494 OA
ATOM     20  C   UNL     1      11.077   9.284  15.621  0.00  0.00    +0.277 C 
ENDBRANCH  15   3
ENDBRANCH  13  14
TORSDOF 2
ENDMDL
MODEL 7
REMARK VINA RESULT:      -5.4      3.291      6.200
REMARK  Name = 75368407
REMARK  3 active torsions:
REMARK  status: ('A' for Active; 'I' for Inactive)
REMARK    1  A    between atoms: O_3  and  C_15
REMARK    2  A    between atoms: O_3  and  C_20
REMARK    3  A    between atoms: C_13  and  C_14
REMARK                            x       y       z     vdW  Elec       q    Type
REMARK                         _______ _______ _______ _____ _____    ______ ____
ROOT
ATOM      1  O   UNL     1      10.401  13.470  23.099  0.00  0.00    -0.253 OA
ATOM      2  O   UNL     1      15.316  11.263  18.643  0.00  0.00    -0.270 OA
ATOM      4  N   UNL     1      11.967  12.057  22.058  0.00  0.00    -0.278 N 
ATOM      5  N   UNL     1      13.441  10.921  19.995  0.00  0.00    -0.294 N 
ATOM      6  N   UNL     1      10.530  11.170  23.541  0.00  0.00    -0.297 N 
ATOM      7  C   UNL     1      12.385  10.671  22.194  0.00  0.00    +0.112 C 
ATOM      8  C   UNL     1      12.586  10.044  20.818  0.00  0.00    +0.132 C 
ATOM      9  C   UNL     1      11.274  10.042  23.030  0.00  0.00    +0.129 C 
ATOM     10  C   UNL     1      12.704  12.953  21.184  0.00  0.00    +0.128 C 
ATOM     11  C   UNL     1      12.932  12.289  19.827  0.00  0.00    +0.127 C 
ATOM     12  C   UNL     1      10.911  12.373  22.918  0.00  0.00    +0.303 C 
ATOM     13  C   UNL     1      14.625  10.541  19.359  0.00  0.00    +0.250 C 
ATOM     21  H   UNL     1       9.769  11.097  24.209  0.00  0.00    +0.150 HD
ENDROOT
BRANCH  13  14
ATOM     14  C   UNL     1      15.109   9.169  19.563  0.00  0.00    +0.078 A 
ATOM     15  C   UNL     1      14.670   8.126  18.750  0.00  0.00    +0.132 A 
ATOM     16  C   UNL     1      16.018   8.917  20.590  0.00  0.00    +0.017 A 
ATOM     17  C   UNL     1      15.140   6.830  18.961  0.00  0.00    +0.046 A 
ATOM     18  C   UNL     1      16.489   7.621  20.803  0.00  0.00    +0.001 A 
ATOM     19  C   UNL     1      16.050   6.578  19.988  0.00  0.00    +0.004 A 
BRANCH  15   3
ATOM      3  O   UNL     1      13.778   8.351  17.743  0.00  0.00    -0.494 OA
ATOM     20  C   UNL     1      12.511   7.706  17.844  0.00  0.00    +0.277 C 
ENDBRANCH  15   3
ENDBRANCH  13  14
TORSDOF 2
ENDMDL
MODEL 8
REMARK VINA RESULT:      -5.4     13.859     16.106
REMARK  Name = 75368407
REMARK  3 active torsions:
REMARK  status: ('A' for Active; 'I' for Inactive)
REMARK    1  A    between atoms: O_3  and  C_15
REMARK    2  A    between atoms: O_3  and  C_20
REMARK    3  A    between atoms: C_13  and  C_14
REMARK                            x       y       z     vdW  Elec       q    Type
REMARK                         _______ _______ _______ _____ _____    ______ ____
ROOT
ATOM      1  O   UNL     1      10.237   4.297   9.142  0.00  0.00    -0.253 OA
ATOM      2  O   UNL     1       8.554  10.206   5.804  0.00  0.00    -0.270 OA
ATOM      4  N   UNL     1       9.821   5.799   7.379  0.00  0.00    -0.278 N 
ATOM      5  N   UNL     1       8.598   7.878   6.001  0.00  0.00    -0.294 N 
ATOM      6  N   UNL     1      10.053   3.615   6.906  0.00  0.00    -0.297 N 
ATOM      7  C   UNL     1       9.779   5.729   5.928  0.00  0.00    +0.112 C 
ATOM      8  C   UNL     1       8.595   6.531   5.397  0.00  0.00    +0.132 C 
ATOM      9  C   UNL     1       9.720   4.232   5.642  0.00  0.00    +0.129 C 
ATOM     10  C   UNL     1       9.727   7.086   8.046  0.00  0.00    +0.128 C 
ATOM     11  C   UNL     1       8.562   7.889   7.469  0.00  0.00    +0.127 C 
ATOM     12  C   UNL     1      10.061   4.548   7.958  0.00  0.00    +0.303 C 
ATOM     13  C   UNL     1       8.589   9.085   5.299  0.00  0.00    +0.250 C 
ATOM     21  H   UNL     1      10.186   2.617   7.036  0.00  0.00    +0.150 HD
ENDROOT
BRANCH  13  14
ATOM     14  C   UNL     1       8.641   9.032   3.832  0.00  0.00    +0.078 A 
ATOM     15  C   UNL     1       7.503   9.279   3.066  0.00  0.00    +0.132 A 
ATOM     16  C   UNL     1       9.849   8.726   3.206  0.00  0.00    +0.017 A 
ATOM     17  C   UNL     1       7.572   9.222   1.674  0.00  0.00    +0.046 A 
ATOM     18  C   UNL     1       9.919   8.668   1.814  0.00  0.00    +0.001 A 
ATOM     19  C   UNL     1       8.781   8.917   1.048  0.00  0.00    +0.004 A 
BRANCH  15   3
ATOM      3  O   UNL     1       6.311   9.576   3.658  0.00  0.00    -0.494 OA
ATOM     20  C   UNL     1       5.302  10.150   2.831  0.00  0.00    +0.277 C 
ENDBRANCH  15   3
ENDBRANCH  13  14
TORSDOF 2
ENDMDL
MODEL 9
REMARK VINA RESULT:      -5.4     25.933     28.393
REMARK  Name = 75368407
REMARK  3 active torsions:
REMARK  status: ('A' for Active; 'I' for Inactive)
REMARK    1  A    between atoms: O_3  and  C_15
REMARK    2  A    between atoms: O_3  and  C_20
REMARK    3  A    between atoms: C_13  and  C_14
REMARK                            x       y       z     vdW  Elec       q    Type
REMARK                         _______ _______ _______ _____ _____    ______ ____
ROOT
ATOM      1  O   UNL     1      -8.255 -11.338  19.665  0.00  0.00    -0.253 OA
ATOM      2  O   UNL     1      -3.585 -13.930  15.152  0.00  0.00    -0.270 OA
ATOM      4  N   UNL     1      -6.860 -11.503  17.777  0.00  0.00    -0.278 N 
ATOM      5  N   UNL     1      -4.612 -12.163  16.285  0.00  0.00    -0.294 N 
ATOM      6  N   UNL     1      -7.834  -9.529  18.231  0.00  0.00    -0.297 N 
ATOM      7  C   UNL     1      -6.505 -10.649  16.656  0.00  0.00    +0.112 C 
ATOM      8  C   UNL     1      -5.009 -10.744  16.374  0.00  0.00    +0.132 C 
ATOM      9  C   UNL     1      -6.990  -9.268  17.089  0.00  0.00    +0.129 C 
ATOM     10  C   UNL     1      -6.417 -12.885  17.803  0.00  0.00    +0.128 C 
ATOM     11  C   UNL     1      -4.926 -12.962  17.477  0.00  0.00    +0.127 C 
ATOM     12  C   UNL     1      -7.716 -10.859  18.677  0.00  0.00    +0.303 C 
ATOM     13  C   UNL     1      -3.949 -12.756  15.209  0.00  0.00    +0.250 C 
ATOM     21  H   UNL     1      -8.386  -8.822  18.707  0.00  0.00    +0.150 HD
ENDROOT
BRANCH  13  14
ATOM     14  C   UNL     1      -3.666 -11.928  14.030  0.00  0.00    +0.078 A 
ATOM     15  C   UNL     1      -2.429 -11.304  13.873  0.00  0.00    +0.132 A 
ATOM     16  C   UNL     1      -4.655 -11.767  13.060  0.00  0.00    +0.017 A 
ATOM     17  C   UNL     1      -2.180 -10.520  12.747  0.00  0.00    +0.046 A 
ATOM     18  C   UNL     1      -4.408 -10.983  11.934  0.00  0.00    +0.001 A 
ATOM     19  C   UNL     1      -3.170 -10.360  11.777  0.00  0.00    +0.004 A 
BRANCH  15   3
ATOM      3  O   UNL     1      -1.450 -11.446  14.810  0.00  0.00    -0.494 OA
ATOM     20  C   UNL     1      -1.127 -10.297  15.590  0.00  0.00    +0.277 C 
ENDBRANCH  15   3
ENDBRANCH  13  14
TORSDOF 2
ENDMDL
MODEL 10
REMARK VINA RESULT:      -5.4      4.234      6.868
REMARK  Name = 75368407
REMARK  3 active torsions:
REMARK  status: ('A' for Active; 'I' for Inactive)
REMARK    1  A    between atoms: O_3  and  C_15
REMARK    2  A    between atoms: O_3  and  C_20
REMARK    3  A    between atoms: C_13  and  C_14
REMARK                            x       y       z     vdW  Elec       q    Type
REMARK                         _______ _______ _______ _____ _____    ______ ____
ROOT
ATOM      1  O   UNL     1      10.711  14.609  25.064  0.00  0.00    -0.253 OA
ATOM      2  O   UNL     1      13.102  11.376  19.343  0.00  0.00    -0.270 OA
ATOM      4  N   UNL     1      11.528  12.899  23.668  0.00  0.00    -0.278 N 
ATOM      5  N   UNL     1      11.892  11.427  21.341  0.00  0.00    -0.294 N 
ATOM      6  N   UNL     1      10.693  12.346  25.680  0.00  0.00    -0.297 N 
ATOM      7  C   UNL     1      11.773  11.472  23.790  0.00  0.00    +0.112 C 
ATOM      8  C   UNL     1      11.324  10.750  22.524  0.00  0.00    +0.132 C 
ATOM      9  C   UNL     1      11.012  11.083  25.054  0.00  0.00    +0.129 C 
ATOM     10  C   UNL     1      11.971  13.611  22.483  0.00  0.00    +0.128 C 
ATOM     11  C   UNL     1      11.547  12.850  21.228  0.00  0.00    +0.127 C 
ATOM     12  C   UNL     1      10.954  13.434  24.827  0.00  0.00    +0.303 C 
ATOM     13  C   UNL     1      12.661  10.819  20.347  0.00  0.00    +0.250 C 
ATOM     21  H   UNL     1      10.258  12.437  26.593  0.00  0.00    +0.150 HD
ENDROOT
BRANCH  13  14
ATOM     14  C   UNL     1      12.996   9.398  20.504  0.00  0.00    +0.078 A 
ATOM     15  C   UNL     1      12.265   8.413  19.842  0.00  0.00    +0.132 A 
ATOM     16  C   UNL     1      14.060   9.038  21.332  0.00  0.00    +0.017 A 
ATOM     17  C   UNL     1      12.598   7.068  20.006  0.00  0.00    +0.046 A 
ATOM     18  C   UNL     1      14.393   7.694  21.497  0.00  0.00    +0.001 A 
ATOM     19  C   UNL     1      13.662   6.709  20.833  0.00  0.00    +0.004 A 
BRANCH  15   3
ATOM      3  O   UNL     1      11.220   8.742  19.031  0.00  0.00    -0.494 OA
ATOM     20  C   UNL     1      11.362   8.455  17.643  0.00  0.00    +0.277 C 
ENDBRANCH  15   3
ENDBRANCH  13  14
TORSDOF 2
ENDMDL
