MODEL 1
REMARK VINA RESULT:      -7.1      0.000      0.000
REMARK  Name = 75536663
REMARK  10 active torsions:
REMARK  status: ('A' for Active; 'I' for Inactive)
REMARK    1  A    between atoms: S_1  and  N_8
REMARK    2  A    between atoms: S_1  and  C_19
REMARK    3  A    between atoms: O_3  and  C_11
REMARK    4  A    between atoms: N_7  and  C_10
REMARK    5  A    between atoms: N_7  and  C_15
REMARK    6  A    between atoms: N_8  and  C_14
REMARK    7  A    between atoms: N_9  and  C_22
REMARK    8  A    between atoms: C_12  and  C_14
REMARK    9  A    between atoms: C_15  and  C_16
REMARK   10  A    between atoms: C_23  and  C_24
REMARK                            x       y       z     vdW  Elec       q    Type
REMARK                         _______ _______ _______ _____ _____    ______ ____
ROOT
ATOM      7  N   UNL     1      13.952   6.670  19.380  0.00  0.00    -0.305 NA
ATOM     25  H   UNL     1      14.163   6.853  18.399  0.00  0.00    +0.123 HD
ENDROOT
BRANCH   7  10
ATOM      2  O   UNL     1      10.948   8.665  19.860  0.00  0.00    -0.371 OA
ATOM     10  C   UNL     1      12.538   6.918  19.616  0.00  0.00    +0.111 C 
ATOM     11  C   UNL     1      12.183   7.062  21.084  0.00  0.00    +0.164 C 
ATOM     12  C   UNL     1      10.847   7.785  20.993  0.00  0.00    +0.164 C 
ATOM     13  C   UNL     1      12.071   8.254  19.061  0.00  0.00    +0.181 C 
BRANCH  11   3
ATOM      3  O   UNL     1      12.063   5.815  21.742  0.00  0.00    -0.388 OA
ATOM     26  H   UNL     1      12.863   5.294  21.558  0.00  0.00    +0.210 HD
ENDBRANCH  11   3
BRANCH  12  14
ATOM     14  C   UNL     1      10.511   8.588  22.237  0.00  0.00    +0.139 C 
BRANCH  14   8
ATOM      8  N   UNL     1      11.754   9.098  22.848  0.00  0.00    -0.192 NA
ATOM     27  H   UNL     1      12.541   8.439  22.783  0.00  0.00    +0.148 HD
BRANCH   8   1
ATOM      1  S   UNL     1      12.140  10.752  22.689  0.00  0.00    +0.027 S 
ATOM      4  O   UNL     1      12.631  11.267  23.952  0.00  0.00    -0.158 OA
ATOM      5  O   UNL     1      11.052  11.413  21.992  0.00  0.00    -0.158 OA
ATOM     19  C   UNL     1      13.513  10.661  21.564  0.00  0.00    +0.214 C 
ENDBRANCH   8   1
ENDBRANCH  14   8
ENDBRANCH  12  14
ENDBRANCH   7  10
BRANCH   7  15
ATOM     15  C   UNL     1      14.783   7.533  20.211  0.00  0.00    +0.116 C 
BRANCH  15  16
ATOM     16  C   UNL     1      16.220   7.086  20.222  0.00  0.00    -0.033 A 
ATOM     17  C   UNL     1      17.113   7.630  21.146  0.00  0.00    +0.007 A 
ATOM     18  C   UNL     1      16.661   6.128  19.308  0.00  0.00    +0.007 A 
ATOM     20  C   UNL     1      18.445   7.217  21.156  0.00  0.00    +0.023 A 
ATOM     21  C   UNL     1      17.993   5.715  19.318  0.00  0.00    +0.023 A 
ATOM     22  C   UNL     1      18.885   6.260  20.242  0.00  0.00    +0.033 A 
BRANCH  22   9
ATOM      6  O   UNL     1      20.663   5.445  22.531  0.00  0.00    -0.276 OA
ATOM      9  N   UNL     1      20.217   5.847  20.252  0.00  0.00    -0.286 N 
ATOM     23  C   UNL     1      21.002   5.478  21.353  0.00  0.00    +0.214 C 
ATOM     24  C   UNL     1      22.400   5.093  20.939  0.00  0.00    +0.109 C 
ATOM     28  H   UNL     1      20.667   5.812  19.339  0.00  0.00    +0.155 HD
ENDBRANCH  22   9
ENDBRANCH  15  16
ENDBRANCH   7  15
TORSDOF 8
ENDMDL
MODEL 2
REMARK VINA RESULT:      -6.6      2.566      4.331
REMARK  Name = 75536663
REMARK  10 active torsions:
REMARK  status: ('A' for Active; 'I' for Inactive)
REMARK    1  A    between atoms: S_1  and  N_8
REMARK    2  A    between atoms: S_1  and  C_19
REMARK    3  A    between atoms: O_3  and  C_11
REMARK    4  A    between atoms: N_7  and  C_10
REMARK    5  A    between atoms: N_7  and  C_15
REMARK    6  A    between atoms: N_8  and  C_14
REMARK    7  A    between atoms: N_9  and  C_22
REMARK    8  A    between atoms: C_12  and  C_14
REMARK    9  A    between atoms: C_15  and  C_16
REMARK   10  A    between atoms: C_23  and  C_24
REMARK                            x       y       z     vdW  Elec       q    Type
REMARK                         _______ _______ _______ _____ _____    ______ ____
ROOT
ATOM      7  N   UNL     1      18.060   6.972  21.699  0.00  0.00    -0.305 NA
ATOM     25  H   UNL     1      18.273   6.456  22.554  0.00  0.00    +0.123 HD
ENDROOT
BRANCH   7  10
ATOM      2  O   UNL     1      15.694   6.314  19.016  0.00  0.00    -0.371 OA
ATOM     10  C   UNL     1      16.895   6.378  21.064  0.00  0.00    +0.111 C 
ATOM     11  C   UNL     1      15.635   7.211  21.204  0.00  0.00    +0.164 C 
ATOM     12  C   UNL     1      14.782   6.643  20.078  0.00  0.00    +0.164 C 
ATOM     13  C   UNL     1      17.028   6.284  19.553  0.00  0.00    +0.181 C 
BRANCH  11   3
ATOM      3  O   UNL     1      15.014   7.054  22.466  0.00  0.00    -0.388 OA
ATOM     26  H   UNL     1      14.127   6.681  22.326  0.00  0.00    +0.210 HD
ENDBRANCH  11   3
BRANCH  12  14
ATOM     14  C   UNL     1      13.733   7.616  19.570  0.00  0.00    +0.139 C 
BRANCH  14   8
ATOM      8  N   UNL     1      13.061   8.264  20.713  0.00  0.00    -0.192 NA
ATOM     27  H   UNL     1      13.534   9.118  21.034  0.00  0.00    +0.148 HD
BRANCH   8   1
ATOM      1  S   UNL     1      11.356   8.277  20.774  0.00  0.00    +0.027 S 
ATOM      4  O   UNL     1      10.814   8.242  19.430  0.00  0.00    -0.158 OA
ATOM      5  O   UNL     1      10.938   9.300  21.714  0.00  0.00    -0.158 OA
ATOM     19  C   UNL     1      11.043   6.700  21.532  0.00  0.00    +0.214 C 
ENDBRANCH   8   1
ENDBRANCH  14   8
ENDBRANCH  12  14
ENDBRANCH   7  10
BRANCH   7  15
ATOM     15  C   UNL     1      19.220   6.926  20.817  0.00  0.00    +0.116 C 
BRANCH  15  16
ATOM     16  C   UNL     1      20.236   5.915  21.279  0.00  0.00    -0.033 A 
ATOM     17  C   UNL     1      20.962   6.141  22.449  0.00  0.00    +0.007 A 
ATOM     18  C   UNL     1      20.452   4.753  20.538  0.00  0.00    +0.007 A 
ATOM     20  C   UNL     1      21.904   5.206  22.878  0.00  0.00    +0.023 A 
ATOM     21  C   UNL     1      21.393   3.817  20.967  0.00  0.00    +0.023 A 
ATOM     22  C   UNL     1      22.119   4.045  22.137  0.00  0.00    +0.033 A 
BRANCH  22   9
ATOM      6  O   UNL     1      22.126   2.239  24.545  0.00  0.00    -0.276 OA
ATOM      9  N   UNL     1      23.062   3.109  22.565  0.00  0.00    -0.286 N 
ATOM     23  C   UNL     1      23.015   2.291  23.702  0.00  0.00    +0.214 C 
ATOM     24  C   UNL     1      24.236   1.412  23.809  0.00  0.00    +0.109 C 
ATOM     28  H   UNL     1      23.882   3.016  21.970  0.00  0.00    +0.155 HD
ENDBRANCH  22   9
ENDBRANCH  15  16
ENDBRANCH   7  15
TORSDOF 8
ENDMDL
MODEL 3
REMARK VINA RESULT:      -6.1      2.796      4.629
REMARK  Name = 75536663
REMARK  10 active torsions:
REMARK  status: ('A' for Active; 'I' for Inactive)
REMARK    1  A    between atoms: S_1  and  N_8
REMARK    2  A    between atoms: S_1  and  C_19
REMARK    3  A    between atoms: O_3  and  C_11
REMARK    4  A    between atoms: N_7  and  C_10
REMARK    5  A    between atoms: N_7  and  C_15
REMARK    6  A    between atoms: N_8  and  C_14
REMARK    7  A    between atoms: N_9  and  C_22
REMARK    8  A    between atoms: C_12  and  C_14
REMARK    9  A    between atoms: C_15  and  C_16
REMARK   10  A    between atoms: C_23  and  C_24
REMARK                            x       y       z     vdW  Elec       q    Type
REMARK                         _______ _______ _______ _____ _____    ______ ____
ROOT
ATOM      7  N   UNL     1      18.062   6.479  21.202  0.00  0.00    -0.305 NA
ATOM     25  H   UNL     1      18.036   5.479  21.005  0.00  0.00    +0.123 HD
ENDROOT
BRANCH   7  10
ATOM      2  O   UNL     1      15.405   8.553  19.833  0.00  0.00    -0.371 OA
ATOM     10  C   UNL     1      17.318   7.186  20.172  0.00  0.00    +0.111 C 
ATOM     11  C   UNL     1      16.222   6.354  19.533  0.00  0.00    +0.164 C 
ATOM     12  C   UNL     1      15.346   7.440  18.925  0.00  0.00    +0.164 C 
ATOM     13  C   UNL     1      16.523   8.362  20.717  0.00  0.00    +0.181 C 
BRANCH  11   3
ATOM      3  O   UNL     1      16.716   5.464  18.550  0.00  0.00    -0.388 OA
ATOM     26  H   UNL     1      16.051   5.388  17.844  0.00  0.00    +0.210 HD
ENDBRANCH  11   3
BRANCH  12  14
ATOM     14  C   UNL     1      13.902   7.011  18.734  0.00  0.00    +0.139 C 
BRANCH  14   8
ATOM      8  N   UNL     1      13.009   7.945  19.446  0.00  0.00    -0.192 NA
ATOM     27  H   UNL     1      12.488   8.571  18.817  0.00  0.00    +0.148 HD
BRANCH   8   1
ATOM      1  S   UNL     1      12.173   7.403  20.831  0.00  0.00    +0.027 S 
ATOM      4  O   UNL     1      13.035   7.495  21.993  0.00  0.00    -0.158 OA
ATOM      5  O   UNL     1      11.501   6.160  20.505  0.00  0.00    -0.158 OA
ATOM     19  C   UNL     1      10.926   8.661  20.975  0.00  0.00    +0.214 C 
ENDBRANCH   8   1
ENDBRANCH  14   8
ENDBRANCH  12  14
ENDBRANCH   7  10
BRANCH   7  15
ATOM     15  C   UNL     1      19.452   6.917  21.240  0.00  0.00    +0.116 C 
BRANCH  15  16
ATOM     16  C   UNL     1      20.398   5.764  21.436  0.00  0.00    -0.033 A 
ATOM     17  C   UNL     1      21.295   5.771  22.505  0.00  0.00    +0.007 A 
ATOM     18  C   UNL     1      20.381   4.686  20.550  0.00  0.00    +0.007 A 
ATOM     20  C   UNL     1      22.173   4.703  22.688  0.00  0.00    +0.023 A 
ATOM     21  C   UNL     1      21.258   3.618  20.733  0.00  0.00    +0.023 A 
ATOM     22  C   UNL     1      22.154   3.626  21.802  0.00  0.00    +0.033 A 
BRANCH  22   9
ATOM      6  O   UNL     1      24.390   2.616  20.058  0.00  0.00    -0.276 OA
ATOM      9  N   UNL     1      23.033   2.558  21.983  0.00  0.00    -0.286 N 
ATOM     23  C   UNL     1      24.060   2.128  21.133  0.00  0.00    +0.214 C 
ATOM     24  C   UNL     1      24.785   0.929  21.693  0.00  0.00    +0.109 C 
ATOM     28  H   UNL     1      22.902   2.030  22.844  0.00  0.00    +0.155 HD
ENDBRANCH  22   9
ENDBRANCH  15  16
ENDBRANCH   7  15
TORSDOF 8
ENDMDL
MODEL 4
REMARK VINA RESULT:      -6.0      2.782      4.422
REMARK  Name = 75536663
REMARK  10 active torsions:
REMARK  status: ('A' for Active; 'I' for Inactive)
REMARK    1  A    between atoms: S_1  and  N_8
REMARK    2  A    between atoms: S_1  and  C_19
REMARK    3  A    between atoms: O_3  and  C_11
REMARK    4  A    between atoms: N_7  and  C_10
REMARK    5  A    between atoms: N_7  and  C_15
REMARK    6  A    between atoms: N_8  and  C_14
REMARK    7  A    between atoms: N_9  and  C_22
REMARK    8  A    between atoms: C_12  and  C_14
REMARK    9  A    between atoms: C_15  and  C_16
REMARK   10  A    between atoms: C_23  and  C_24
REMARK                            x       y       z     vdW  Elec       q    Type
REMARK                         _______ _______ _______ _____ _____    ______ ____
ROOT
ATOM      7  N   UNL     1      17.833   8.053  20.698  0.00  0.00    -0.305 NA
ATOM     25  H   UNL     1      17.541   9.030  20.727  0.00  0.00    +0.123 HD
ENDROOT
BRANCH   7  10
ATOM      2  O   UNL     1      14.870   6.190  19.706  0.00  0.00    -0.371 OA
ATOM     10  C   UNL     1      16.667   7.204  20.882  0.00  0.00    +0.111 C 
ATOM     11  C   UNL     1      15.392   7.975  21.168  0.00  0.00    +0.164 C 
ATOM     12  C   UNL     1      14.336   6.936  20.813  0.00  0.00    +0.164 C 
ATOM     13  C   UNL     1      16.284   6.442  19.624  0.00  0.00    +0.181 C 
BRANCH  11   3
ATOM      3  O   UNL     1      15.292   8.385  22.518  0.00  0.00    -0.388 OA
ATOM     26  H   UNL     1      16.024   7.983  23.015  0.00  0.00    +0.210 HD
ENDBRANCH  11   3
BRANCH  12  14
ATOM     14  C   UNL     1      13.001   7.545  20.423  0.00  0.00    +0.139 C 
BRANCH  14   8
ATOM      8  N   UNL     1      12.510   6.912  19.184  0.00  0.00    -0.192 NA
ATOM     27  H   UNL     1      11.714   6.279  19.337  0.00  0.00    +0.148 HD
BRANCH   8   1
ATOM      1  S   UNL     1      12.482   7.822  17.741  0.00  0.00    +0.027 S 
ATOM      4  O   UNL     1      11.154   7.782  17.159  0.00  0.00    -0.158 OA
ATOM      5  O   UNL     1      13.647   7.469  16.952  0.00  0.00    -0.158 OA
ATOM     19  C   UNL     1      12.749   9.459  18.381  0.00  0.00    +0.214 C 
ENDBRANCH   8   1
ENDBRANCH  14   8
ENDBRANCH  12  14
ENDBRANCH   7  10
BRANCH   7  15
ATOM     15  C   UNL     1      18.821   7.823  21.746  0.00  0.00    +0.116 C 
BRANCH  15  16
ATOM     16  C   UNL     1      19.955   6.957  21.267  0.00  0.00    -0.033 A 
ATOM     17  C   UNL     1      19.707   5.647  20.857  0.00  0.00    +0.007 A 
ATOM     18  C   UNL     1      21.254   7.463  21.231  0.00  0.00    +0.007 A 
ATOM     20  C   UNL     1      20.756   4.843  20.414  0.00  0.00    +0.023 A 
ATOM     21  C   UNL     1      22.304   6.660  20.787  0.00  0.00    +0.023 A 
ATOM     22  C   UNL     1      22.055   5.350  20.379  0.00  0.00    +0.033 A 
BRANCH  22   9
ATOM      6  O   UNL     1      24.034   3.691  21.926  0.00  0.00    -0.276 OA
ATOM      9  N   UNL     1      23.106   4.546  19.935  0.00  0.00    -0.286 N 
ATOM     23  C   UNL     1      24.003   3.792  20.704  0.00  0.00    +0.214 C 
ATOM     24  C   UNL     1      24.998   3.057  19.842  0.00  0.00    +0.109 C 
ATOM     28  H   UNL     1      23.228   4.509  18.925  0.00  0.00    +0.155 HD
ENDBRANCH  22   9
ENDBRANCH  15  16
ENDBRANCH   7  15
TORSDOF 8
ENDMDL
MODEL 5
REMARK VINA RESULT:      -6.0      2.273      3.584
REMARK  Name = 75536663
REMARK  10 active torsions:
REMARK  status: ('A' for Active; 'I' for Inactive)
REMARK    1  A    between atoms: S_1  and  N_8
REMARK    2  A    between atoms: S_1  and  C_19
REMARK    3  A    between atoms: O_3  and  C_11
REMARK    4  A    between atoms: N_7  and  C_10
REMARK    5  A    between atoms: N_7  and  C_15
REMARK    6  A    between atoms: N_8  and  C_14
REMARK    7  A    between atoms: N_9  and  C_22
REMARK    8  A    between atoms: C_12  and  C_14
REMARK    9  A    between atoms: C_15  and  C_16
REMARK   10  A    between atoms: C_23  and  C_24
REMARK                            x       y       z     vdW  Elec       q    Type
REMARK                         _______ _______ _______ _____ _____    ______ ____
ROOT
ATOM      7  N   UNL     1      16.340   8.028  21.938  0.00  0.00    -0.305 NA
ATOM     25  H   UNL     1      16.793   7.609  22.751  0.00  0.00    +0.123 HD
ENDROOT
BRANCH   7  10
ATOM      2  O   UNL     1      13.126   6.985  20.591  0.00  0.00    -0.371 OA
ATOM     10  C   UNL     1      14.922   7.708  21.967  0.00  0.00    +0.111 C 
ATOM     11  C   UNL     1      14.024   8.893  21.663  0.00  0.00    +0.164 C 
ATOM     12  C   UNL     1      12.732   8.188  21.272  0.00  0.00    +0.164 C 
ATOM     13  C   UNL     1      14.513   6.732  20.876  0.00  0.00    +0.181 C 
BRANCH  11   3
ATOM      3  O   UNL     1      13.844   9.742  22.780  0.00  0.00    -0.388 OA
ATOM     26  H   UNL     1      13.580  10.620  22.457  0.00  0.00    +0.210 HD
ENDBRANCH  11   3
BRANCH  12  14
ATOM     14  C   UNL     1      11.843   9.022  20.367  0.00  0.00    +0.139 C 
BRANCH  14   8
ATOM      8  N   UNL     1      12.452   9.117  19.026  0.00  0.00    -0.192 NA
ATOM     27  H   UNL     1      13.476   9.029  19.035  0.00  0.00    +0.148 HD
BRANCH   8   1
ATOM      1  S   UNL     1      11.647   8.413  17.697  0.00  0.00    +0.027 S 
ATOM      4  O   UNL     1      10.221   8.654  17.801  0.00  0.00    -0.158 OA
ATOM      5  O   UNL     1      12.159   7.069  17.509  0.00  0.00    -0.158 OA
ATOM     19  C   UNL     1      12.274   9.411  16.367  0.00  0.00    +0.214 C 
ENDBRANCH   8   1
ENDBRANCH  14   8
ENDBRANCH  12  14
ENDBRANCH   7  10
BRANCH   7  15
ATOM     15  C   UNL     1      16.970   7.514  20.728  0.00  0.00    +0.116 C 
BRANCH  15  16
ATOM     16  C   UNL     1      18.369   7.025  20.989  0.00  0.00    -0.033 A 
ATOM     17  C   UNL     1      19.166   7.665  21.940  0.00  0.00    +0.007 A 
ATOM     18  C   UNL     1      18.872   5.933  20.281  0.00  0.00    +0.007 A 
ATOM     20  C   UNL     1      20.462   7.213  22.182  0.00  0.00    +0.023 A 
ATOM     21  C   UNL     1      20.169   5.481  20.523  0.00  0.00    +0.023 A 
ATOM     22  C   UNL     1      20.964   6.121  21.474  0.00  0.00    +0.033 A 
BRANCH  22   9
ATOM      6  O   UNL     1      21.951   3.801  23.118  0.00  0.00    -0.276 OA
ATOM      9  N   UNL     1      22.262   5.669  21.715  0.00  0.00    -0.286 N 
ATOM     23  C   UNL     1      22.667   4.578  22.495  0.00  0.00    +0.214 C 
ATOM     24  C   UNL     1      24.167   4.422  22.502  0.00  0.00    +0.109 C 
ATOM     28  H   UNL     1      23.000   6.207  21.264  0.00  0.00    +0.155 HD
ENDBRANCH  22   9
ENDBRANCH  15  16
ENDBRANCH   7  15
TORSDOF 8
ENDMDL
MODEL 6
REMARK VINA RESULT:      -6.0     25.839     28.425
REMARK  Name = 75536663
REMARK  10 active torsions:
REMARK  status: ('A' for Active; 'I' for Inactive)
REMARK    1  A    between atoms: S_1  and  N_8
REMARK    2  A    between atoms: S_1  and  C_19
REMARK    3  A    between atoms: O_3  and  C_11
REMARK    4  A    between atoms: N_7  and  C_10
REMARK    5  A    between atoms: N_7  and  C_15
REMARK    6  A    between atoms: N_8  and  C_14
REMARK    7  A    between atoms: N_9  and  C_22
REMARK    8  A    between atoms: C_12  and  C_14
REMARK    9  A    between atoms: C_15  and  C_16
REMARK   10  A    between atoms: C_23  and  C_24
REMARK                            x       y       z     vdW  Elec       q    Type
REMARK                         _______ _______ _______ _____ _____    ______ ____
ROOT
ATOM      7  N   UNL     1      -9.810   9.381  18.717  0.00  0.00    -0.305 NA
ATOM     25  H   UNL     1      -8.996   9.878  19.078  0.00  0.00    +0.123 HD
ENDROOT
BRANCH   7  10
ATOM      2  O   UNL     1     -11.016  10.579  15.501  0.00  0.00    -0.371 OA
ATOM     10  C   UNL     1      -9.844   9.512  17.269  0.00  0.00    +0.111 C 
ATOM     11  C   UNL     1     -10.741   8.496  16.587  0.00  0.00    +0.164 C 
ATOM     12  C   UNL     1     -10.970   9.166  15.239  0.00  0.00    +0.164 C 
ATOM     13  C   UNL     1     -10.464  10.820  16.806  0.00  0.00    +0.181 C 
BRANCH  11   3
ATOM      3  O   UNL     1     -10.125   7.230  16.448  0.00  0.00    -0.388 OA
ATOM     26  H   UNL     1     -10.817   6.571  16.265  0.00  0.00    +0.210 HD
ENDBRANCH  11   3
BRANCH  12  14
ATOM     14  C   UNL     1     -12.256   8.728  14.561  0.00  0.00    +0.139 C 
BRANCH  14   8
ATOM      8  N   UNL     1     -13.096   7.987  15.522  0.00  0.00    -0.192 NA
ATOM     27  H   UNL     1     -12.559   7.355  16.130  0.00  0.00    +0.148 HD
BRANCH   8   1
ATOM      1  S   UNL     1     -14.429   8.773  16.240  0.00  0.00    +0.027 S 
ATOM      4  O   UNL     1     -13.969   9.666  17.285  0.00  0.00    -0.158 OA
ATOM      5  O   UNL     1     -15.455   7.784  16.508  0.00  0.00    -0.158 OA
ATOM     19  C   UNL     1     -14.993   9.768  14.880  0.00  0.00    +0.214 C 
ENDBRANCH   8   1
ENDBRANCH  14   8
ENDBRANCH  12  14
ENDBRANCH   7  10
BRANCH   7  15
ATOM     15  C   UNL     1     -11.013   9.940  19.323  0.00  0.00    +0.116 C 
BRANCH  15  16
ATOM     16  C   UNL     1     -11.773   8.910  20.114  0.00  0.00    -0.033 A 
ATOM     17  C   UNL     1     -11.329   7.588  20.145  0.00  0.00    +0.007 A 
ATOM     18  C   UNL     1     -12.921   9.276  20.817  0.00  0.00    +0.007 A 
ATOM     20  C   UNL     1     -12.032   6.632  20.877  0.00  0.00    +0.023 A 
ATOM     21  C   UNL     1     -13.624   8.320  21.551  0.00  0.00    +0.023 A 
ATOM     22  C   UNL     1     -13.180   6.998  21.580  0.00  0.00    +0.033 A 
BRANCH  22   9
ATOM      6  O   UNL     1     -15.529   5.282  20.805  0.00  0.00    -0.276 OA
ATOM      9  N   UNL     1     -13.884   6.043  22.313  0.00  0.00    -0.286 N 
ATOM     23  C   UNL     1     -14.978   5.269  21.901  0.00  0.00    +0.214 C 
ATOM     24  C   UNL     1     -15.456   4.348  22.995  0.00  0.00    +0.109 C 
ATOM     28  H   UNL     1     -13.555   5.896  23.265  0.00  0.00    +0.155 HD
ENDBRANCH  22   9
ENDBRANCH  15  16
ENDBRANCH   7  15
TORSDOF 8
ENDMDL
MODEL 7
REMARK VINA RESULT:      -6.0     26.042     28.503
REMARK  Name = 75536663
REMARK  10 active torsions:
REMARK  status: ('A' for Active; 'I' for Inactive)
REMARK    1  A    between atoms: S_1  and  N_8
REMARK    2  A    between atoms: S_1  and  C_19
REMARK    3  A    between atoms: O_3  and  C_11
REMARK    4  A    between atoms: N_7  and  C_10
REMARK    5  A    between atoms: N_7  and  C_15
REMARK    6  A    between atoms: N_8  and  C_14
REMARK    7  A    between atoms: N_9  and  C_22
REMARK    8  A    between atoms: C_12  and  C_14
REMARK    9  A    between atoms: C_15  and  C_16
REMARK   10  A    between atoms: C_23  and  C_24
REMARK                            x       y       z     vdW  Elec       q    Type
REMARK                         _______ _______ _______ _____ _____    ______ ____
ROOT
ATOM      7  N   UNL     1      -2.138 -11.249  13.017  0.00  0.00    -0.305 NA
ATOM     25  H   UNL     1      -2.984 -11.746  12.738  0.00  0.00    +0.123 HD
ENDROOT
BRANCH   7  10
ATOM      2  O   UNL     1      -1.985 -10.870  16.632  0.00  0.00    -0.371 OA
ATOM     10  C   UNL     1      -2.365 -10.608  14.302  0.00  0.00    +0.111 C 
ATOM     11  C   UNL     1      -3.661 -11.027  14.970  0.00  0.00    +0.164 C 
ATOM     12  C   UNL     1      -3.386 -10.633  16.415  0.00  0.00    +0.164 C 
ATOM     13  C   UNL     1      -1.342 -11.006  15.353  0.00  0.00    +0.181 C 
BRANCH  11   3
ATOM      3  O   UNL     1      -4.789 -10.353  14.447  0.00  0.00    -0.388 OA
ATOM     26  H   UNL     1      -5.538 -10.972  14.434  0.00  0.00    +0.210 HD
ENDBRANCH  11   3
BRANCH  12  14
ATOM     14  C   UNL     1      -4.201 -11.427  17.420  0.00  0.00    +0.139 C 
BRANCH  14   8
ATOM      8  N   UNL     1      -5.552 -11.673  16.880  0.00  0.00    -0.192 NA
ATOM     27  H   UNL     1      -5.774 -12.672  16.775  0.00  0.00    +0.148 HD
BRANCH   8   1
ATOM      1  S   UNL     1      -6.837 -10.662  17.366  0.00  0.00    +0.027 S 
ATOM      4  O   UNL     1      -8.086 -11.397  17.322  0.00  0.00    -0.158 OA
ATOM      5  O   UNL     1      -6.703  -9.388  16.684  0.00  0.00    -0.158 OA
ATOM     19  C   UNL     1      -6.419 -10.398  19.073  0.00  0.00    +0.214 C 
ENDBRANCH   8   1
ENDBRANCH  14   8
ENDBRANCH  12  14
ENDBRANCH   7  10
BRANCH   7  15
ATOM     15  C   UNL     1      -1.806 -10.267  11.992  0.00  0.00    +0.116 C 
BRANCH  15  16
ATOM     16  C   UNL     1      -2.825 -10.247  10.884  0.00  0.00    -0.033 A 
ATOM     17  C   UNL     1      -3.082  -9.062  10.194  0.00  0.00    +0.007 A 
ATOM     18  C   UNL     1      -3.514 -11.413  10.547  0.00  0.00    +0.007 A 
ATOM     20  C   UNL     1      -4.026  -9.042   9.168  0.00  0.00    +0.023 A 
ATOM     21  C   UNL     1      -4.458 -11.393   9.520  0.00  0.00    +0.023 A 
ATOM     22  C   UNL     1      -4.714 -10.207   8.831  0.00  0.00    +0.033 A 
BRANCH  22   9
ATOM      6  O   UNL     1      -4.571 -11.279   6.022  0.00  0.00    -0.276 OA
ATOM      9  N   UNL     1      -5.659 -10.188   7.805  0.00  0.00    -0.286 N 
ATOM     23  C   UNL     1      -5.539 -10.704   6.508  0.00  0.00    +0.214 C 
ATOM     24  C   UNL     1      -6.792 -10.480   5.698  0.00  0.00    +0.109 C 
ATOM     28  H   UNL     1      -6.544  -9.741   8.038  0.00  0.00    +0.155 HD
ENDBRANCH  22   9
ENDBRANCH  15  16
ENDBRANCH   7  15
TORSDOF 8
ENDMDL
MODEL 8
REMARK VINA RESULT:      -5.9     16.705     18.857
REMARK  Name = 75536663
REMARK  10 active torsions:
REMARK  status: ('A' for Active; 'I' for Inactive)
REMARK    1  A    between atoms: S_1  and  N_8
REMARK    2  A    between atoms: S_1  and  C_19
REMARK    3  A    between atoms: O_3  and  C_11
REMARK    4  A    between atoms: N_7  and  C_10
REMARK    5  A    between atoms: N_7  and  C_15
REMARK    6  A    between atoms: N_8  and  C_14
REMARK    7  A    between atoms: N_9  and  C_22
REMARK    8  A    between atoms: C_12  and  C_14
REMARK    9  A    between atoms: C_15  and  C_16
REMARK   10  A    between atoms: C_23  and  C_24
REMARK                            x       y       z     vdW  Elec       q    Type
REMARK                         _______ _______ _______ _____ _____    ______ ____
ROOT
ATOM      7  N   UNL     1       8.449   8.059   2.939  0.00  0.00    -0.305 NA
ATOM     25  H   UNL     1       8.337   8.851   2.306  0.00  0.00    +0.123 HD
ENDROOT
BRANCH   7  10
ATOM      2  O   UNL     1       8.777   9.731   6.153  0.00  0.00    -0.371 OA
ATOM     10  C   UNL     1       8.055   8.464   4.279  0.00  0.00    +0.111 C 
ATOM     11  C   UNL     1       8.527   7.515   5.365  0.00  0.00    +0.164 C 
ATOM     12  C   UNL     1       8.432   8.407   6.595  0.00  0.00    +0.164 C 
ATOM     13  C   UNL     1       8.699   9.768   4.718  0.00  0.00    +0.181 C 
BRANCH  11   3
ATOM      3  O   UNL     1       7.708   6.367   5.482  0.00  0.00    -0.388 OA
ATOM     26  H   UNL     1       7.645   6.130   6.423  0.00  0.00    +0.210 HD
ENDBRANCH  11   3
BRANCH  12  14
ATOM     14  C   UNL     1       9.361   7.983   7.718  0.00  0.00    +0.139 C 
BRANCH  14   8
ATOM      8  N   UNL     1       8.909   6.693   8.276  0.00  0.00    -0.192 NA
ATOM     27  H   UNL     1       7.913   6.502   8.108  0.00  0.00    +0.148 HD
BRANCH   8   1
ATOM      1  S   UNL     1       9.956   5.347   8.209  0.00  0.00    +0.027 S 
ATOM      4  O   UNL     1      11.300   5.751   8.572  0.00  0.00    -0.158 OA
ATOM      5  O   UNL     1       9.706   4.632   6.972  0.00  0.00    -0.158 OA
ATOM     19  C   UNL     1       9.304   4.359   9.535  0.00  0.00    +0.214 C 
ENDBRANCH   8   1
ENDBRANCH  14   8
ENDBRANCH  12  14
ENDBRANCH   7  10
BRANCH   7  15
ATOM     15  C   UNL     1       9.840   7.623   2.910  0.00  0.00    +0.116 C 
BRANCH  15  16
ATOM     16  C   UNL     1      10.077   6.578   1.854  0.00  0.00    -0.033 A 
ATOM     17  C   UNL     1      10.029   6.926   0.504  0.00  0.00    +0.007 A 
ATOM     18  C   UNL     1      10.346   5.259   2.223  0.00  0.00    +0.007 A 
ATOM     20  C   UNL     1      10.249   5.959  -0.476  0.00  0.00    +0.023 A 
ATOM     21  C   UNL     1      10.566   4.291   1.244  0.00  0.00    +0.023 A 
ATOM     22  C   UNL     1      10.517   4.641  -0.106  0.00  0.00    +0.033 A 
BRANCH  22   9
ATOM      6  O   UNL     1      13.084   3.480  -1.166  0.00  0.00    -0.276 OA
ATOM      9  N   UNL     1      10.736   3.672  -1.085  0.00  0.00    -0.286 N 
ATOM     23  C   UNL     1      11.960   3.167  -1.544  0.00  0.00    +0.214 C 
ATOM     24  C   UNL     1      11.768   2.124  -2.618  0.00  0.00    +0.109 C 
ATOM     28  H   UNL     1       9.896   3.291  -1.515  0.00  0.00    +0.155 HD
ENDBRANCH  22   9
ENDBRANCH  15  16
ENDBRANCH   7  15
TORSDOF 8
ENDMDL
MODEL 9
REMARK VINA RESULT:      -5.9      1.686      2.243
REMARK  Name = 75536663
REMARK  10 active torsions:
REMARK  status: ('A' for Active; 'I' for Inactive)
REMARK    1  A    between atoms: S_1  and  N_8
REMARK    2  A    between atoms: S_1  and  C_19
REMARK    3  A    between atoms: O_3  and  C_11
REMARK    4  A    between atoms: N_7  and  C_10
REMARK    5  A    between atoms: N_7  and  C_15
REMARK    6  A    between atoms: N_8  and  C_14
REMARK    7  A    between atoms: N_9  and  C_22
REMARK    8  A    between atoms: C_12  and  C_14
REMARK    9  A    between atoms: C_15  and  C_16
REMARK   10  A    between atoms: C_23  and  C_24
REMARK                            x       y       z     vdW  Elec       q    Type
REMARK                         _______ _______ _______ _____ _____    ______ ____
ROOT
ATOM      7  N   UNL     1      15.743   6.595  20.553  0.00  0.00    -0.305 NA
ATOM     25  H   UNL     1      15.806   5.732  21.094  0.00  0.00    +0.123 HD
ENDROOT
BRANCH   7  10
ATOM      2  O   UNL     1      13.198   7.901  18.306  0.00  0.00    -0.371 OA
ATOM     10  C   UNL     1      14.520   6.574  19.767  0.00  0.00    +0.111 C 
ATOM     11  C   UNL     1      13.303   7.077  20.521  0.00  0.00    +0.164 C 
ATOM     12  C   UNL     1      12.364   7.412  19.371  0.00  0.00    +0.164 C 
ATOM     13  C   UNL     1      14.559   7.531  18.586  0.00  0.00    +0.181 C 
BRANCH  11   3
ATOM      3  O   UNL     1      12.752   6.099  21.383  0.00  0.00    -0.388 OA
ATOM     26  H   UNL     1      12.776   6.443  22.292  0.00  0.00    +0.210 HD
ENDBRANCH  11   3
BRANCH  12  14
ATOM     14  C   UNL     1      11.325   8.460  19.729  0.00  0.00    +0.139 C 
BRANCH  14   8
ATOM      8  N   UNL     1      11.629   9.026  21.058  0.00  0.00    -0.192 NA
ATOM     27  H   UNL     1      12.026   8.340  21.713  0.00  0.00    +0.148 HD
BRANCH   8   1
ATOM      1  S   UNL     1      12.246  10.613  21.163  0.00  0.00    +0.027 S 
ATOM      4  O   UNL     1      11.310  11.459  21.877  0.00  0.00    -0.158 OA
ATOM      5  O   UNL     1      12.745  10.999  19.856  0.00  0.00    -0.158 OA
ATOM     19  C   UNL     1      13.655  10.348  22.213  0.00  0.00    +0.214 C 
ENDBRANCH   8   1
ENDBRANCH  14   8
ENDBRANCH  12  14
ENDBRANCH   7  10
BRANCH   7  15
ATOM     15  C   UNL     1      16.917   6.702  19.696  0.00  0.00    +0.116 C 
BRANCH  15  16
ATOM     16  C   UNL     1      18.196   6.547  20.474  0.00  0.00    -0.033 A 
ATOM     17  C   UNL     1      18.426   7.335  21.602  0.00  0.00    +0.007 A 
ATOM     18  C   UNL     1      19.152   5.615  20.069  0.00  0.00    +0.007 A 
ATOM     20  C   UNL     1      19.610   7.193  22.324  0.00  0.00    +0.023 A 
ATOM     21  C   UNL     1      20.336   5.471  20.792  0.00  0.00    +0.023 A 
ATOM     22  C   UNL     1      20.566   6.261  21.919  0.00  0.00    +0.033 A 
BRANCH  22   9
ATOM      6  O   UNL     1      21.817   3.819  23.158  0.00  0.00    -0.276 OA
ATOM      9  N   UNL     1      21.751   6.117  22.640  0.00  0.00    -0.286 N 
ATOM     23  C   UNL     1      22.289   4.950  23.200  0.00  0.00    +0.214 C 
ATOM     24  C   UNL     1      23.595   5.218  23.905  0.00  0.00    +0.109 C 
ATOM     28  H   UNL     1      22.285   6.974  22.772  0.00  0.00    +0.155 HD
ENDBRANCH  22   9
ENDBRANCH  15  16
ENDBRANCH   7  15
TORSDOF 8
ENDMDL
MODEL 10
REMARK VINA RESULT:      -5.9     26.806     28.402
REMARK  Name = 75536663
REMARK  10 active torsions:
REMARK  status: ('A' for Active; 'I' for Inactive)
REMARK    1  A    between atoms: S_1  and  N_8
REMARK    2  A    between atoms: S_1  and  C_19
REMARK    3  A    between atoms: O_3  and  C_11
REMARK    4  A    between atoms: N_7  and  C_10
REMARK    5  A    between atoms: N_7  and  C_15
REMARK    6  A    between atoms: N_8  and  C_14
REMARK    7  A    between atoms: N_9  and  C_22
REMARK    8  A    between atoms: C_12  and  C_14
REMARK    9  A    between atoms: C_15  and  C_16
REMARK   10  A    between atoms: C_23  and  C_24
REMARK                            x       y       z     vdW  Elec       q    Type
REMARK                         _______ _______ _______ _____ _____    ______ ____
ROOT
ATOM      7  N   UNL     1      -3.445 -11.803  16.803  0.00  0.00    -0.305 NA
ATOM     25  H   UNL     1      -4.180 -12.100  16.161  0.00  0.00    +0.123 HD
ENDROOT
BRANCH   7  10
ATOM      2  O   UNL     1      -4.889 -11.875  20.141  0.00  0.00    -0.371 OA
ATOM     10  C   UNL     1      -4.056 -11.257  18.005  0.00  0.00    +0.111 C 
ATOM     11  C   UNL     1      -5.573 -11.248  17.965  0.00  0.00    +0.164 C 
ATOM     12  C   UNL     1      -5.903 -11.129  19.447  0.00  0.00    +0.164 C 
ATOM     13  C   UNL     1      -3.792 -12.103  19.240  0.00  0.00    +0.181 C 
BRANCH  11   3
ATOM      3  O   UNL     1      -6.093 -10.163  17.221  0.00  0.00    -0.388 OA
ATOM     26  H   UNL     1      -6.535 -10.518  16.431  0.00  0.00    +0.210 HD
ENDBRANCH  11   3
BRANCH  12  14
ATOM     14  C   UNL     1      -7.275 -11.675  19.802  0.00  0.00    +0.139 C 
BRANCH  14   8
ATOM      8  N   UNL     1      -8.276 -10.595  19.716  0.00  0.00    -0.192 NA
ATOM     27  H   UNL     1      -7.877  -9.656  19.850  0.00  0.00    +0.148 HD
BRANCH   8   1
ATOM      1  S   UNL     1      -9.539 -10.722  18.575  0.00  0.00    +0.027 S 
ATOM      4  O   UNL     1      -8.987 -10.943  17.253  0.00  0.00    -0.158 OA
ATOM      5  O   UNL     1     -10.483  -9.646  18.813  0.00  0.00    -0.158 OA
ATOM     19  C   UNL     1     -10.309 -12.233  19.106  0.00  0.00    +0.214 C 
ENDBRANCH   8   1
ENDBRANCH  14   8
ENDBRANCH  12  14
ENDBRANCH   7  10
BRANCH   7  15
ATOM     15  C   UNL     1      -2.611 -10.808  16.140  0.00  0.00    +0.116 C 
BRANCH  15  16
ATOM     16  C   UNL     1      -2.956 -10.669  14.682  0.00  0.00    -0.033 A 
ATOM     17  C   UNL     1      -4.290 -10.709  14.274  0.00  0.00    +0.007 A 
ATOM     18  C   UNL     1      -1.944 -10.501  13.736  0.00  0.00    +0.007 A 
ATOM     20  C   UNL     1      -4.612 -10.581  12.923  0.00  0.00    +0.023 A 
ATOM     21  C   UNL     1      -2.265 -10.372  12.385  0.00  0.00    +0.023 A 
ATOM     22  C   UNL     1      -3.599 -10.413  11.979  0.00  0.00    +0.033 A 
BRANCH  22   9
ATOM      6  O   UNL     1      -4.802  -8.105  10.464  0.00  0.00    -0.276 OA
ATOM      9  N   UNL     1      -3.920 -10.285  10.627  0.00  0.00    -0.286 N 
ATOM     23  C   UNL     1      -4.483  -9.182   9.971  0.00  0.00    +0.214 C 
ATOM     24  C   UNL     1      -4.675  -9.445   8.498  0.00  0.00    +0.109 C 
ATOM     28  H   UNL     1      -3.716 -11.101  10.054  0.00  0.00    +0.155 HD
ENDBRANCH  22   9
ENDBRANCH  15  16
ENDBRANCH   7  15
TORSDOF 8
ENDMDL
