MODEL 1
REMARK VINA RESULT:      -7.9      0.000      0.000
REMARK  Name = 45783575
REMARK  6 active torsions:
REMARK  status: ('A' for Active; 'I' for Inactive)
REMARK    1  A    between atoms: O_2  and  C_20
REMARK    2  A    between atoms: O_2  and  C_29
REMARK    3  A    between atoms: N_4  and  C_9
REMARK    4  A    between atoms: C_10  and  C_18
REMARK    5  A    between atoms: C_19  and  C_27
REMARK    6  A    between atoms: C_26  and  C_28
REMARK                            x       y       z     vdW  Elec       q    Type
REMARK                         _______ _______ _______ _____ _____    ______ ____
ROOT
ATOM      1  O   UNL     1     -16.426   2.474  24.102  0.00  0.00    -0.336 OA
ATOM      6  N   UNL     1     -16.347   4.625  24.719  0.00  0.00    -0.190 NA
ATOM      7  N   UNL     1     -15.734   3.145  23.087  0.00  0.00    -0.056 NA
ATOM     18  C   UNL     1     -16.751   3.418  25.023  0.00  0.00    +0.245 A 
ATOM     26  C   UNL     1     -15.728   4.407  23.522  0.00  0.00    +0.204 A 
ENDROOT
BRANCH  26  28
ATOM      8  N   UNL     1     -15.280   7.698  21.848  0.00  0.00    -0.221 NA
ATOM     28  C   UNL     1     -15.115   5.476  22.786  0.00  0.00    +0.041 A 
ATOM     29  C   UNL     1     -14.016   7.548  21.392  0.00  0.00    +0.215 A 
ATOM     30  C   UNL     1     -13.818   5.359  22.299  0.00  0.00    +0.018 A 
ATOM     31  C   UNL     1     -15.797   6.655  22.536  0.00  0.00    +0.126 A 
ATOM     32  C   UNL     1     -13.250   6.409  21.589  0.00  0.00    +0.068 A 
BRANCH  29   2
ATOM      2  O   UNL     1     -13.479   8.598  20.694  0.00  0.00    -0.473 OA
BRANCH   2  20
ATOM     20  C   UNL     1     -12.231   8.367  20.050  0.00  0.00    +0.175 C 
ATOM     21  C   UNL     1     -12.473   7.894  18.617  0.00  0.00    +0.044 C 
ATOM     22  C   UNL     1     -11.392   9.644  20.086  0.00  0.00    +0.044 C 
ATOM     23  C   UNL     1     -11.164   7.727  17.853  0.00  0.00    +0.004 C 
ATOM     24  C   UNL     1     -10.083   9.477  19.322  0.00  0.00    +0.004 C 
ATOM     25  C   UNL     1     -10.324   9.002  17.891  0.00  0.00    +0.000 C 
ENDBRANCH   2  20
ENDBRANCH  29   2
ENDBRANCH  26  28
BRANCH  18  10
ATOM      4  N   UNL     1     -17.073   3.601  27.484  0.00  0.00    -0.288 NA
ATOM     10  C   UNL     1     -17.515   2.939  26.240  0.00  0.00    +0.146 C 
ATOM     11  C   UNL     1     -18.236   3.632  28.371  0.00  0.00    +0.085 C 
ATOM     12  C   UNL     1     -19.022   3.240  26.152  0.00  0.00    +0.030 C 
ATOM     15  C   UNL     1     -19.348   4.021  27.416  0.00  0.00    +0.017 C 
BRANCH   4   9
ATOM      3  O   UNL     1     -14.958  -0.327  31.716  0.00  0.00    -0.276 OA
ATOM      5  N   UNL     1     -14.743   1.533  30.340  0.00  0.00    -0.302 N 
ATOM      9  C   UNL     1     -15.924   2.947  28.107  0.00  0.00    +0.060 C 
ATOM     13  C   UNL     1     -16.245   1.473  28.386  0.00  0.00    +0.038 C 
ATOM     14  C   UNL     1     -15.549   3.670  29.408  0.00  0.00    +0.038 C 
ATOM     16  C   UNL     1     -15.093   0.795  29.125  0.00  0.00    +0.109 C 
ATOM     17  C   UNL     1     -14.411   2.947  30.127  0.00  0.00    +0.109 C 
ATOM     19  C   UNL     1     -14.709   0.873  31.568  0.00  0.00    +0.212 C 
ATOM     27  C   UNL     1     -14.344   1.703  32.772  0.00  0.00    +0.109 C 
ENDBRANCH   4   9
ENDBRANCH  18  10
TORSDOF 5
ENDMDL
MODEL 2
REMARK VINA RESULT:      -7.8     28.610     33.236
REMARK  Name = 45783575
REMARK  6 active torsions:
REMARK  status: ('A' for Active; 'I' for Inactive)
REMARK    1  A    between atoms: O_2  and  C_20
REMARK    2  A    between atoms: O_2  and  C_29
REMARK    3  A    between atoms: N_4  and  C_9
REMARK    4  A    between atoms: C_10  and  C_18
REMARK    5  A    between atoms: C_19  and  C_27
REMARK    6  A    between atoms: C_26  and  C_28
REMARK                            x       y       z     vdW  Elec       q    Type
REMARK                         _______ _______ _______ _____ _____    ______ ____
ROOT
ATOM      1  O   UNL     1      14.425   6.868  19.282  0.00  0.00    -0.336 OA
ATOM      6  N   UNL     1      15.609   7.774  20.953  0.00  0.00    -0.190 NA
ATOM      7  N   UNL     1      15.703   6.304  19.203  0.00  0.00    -0.056 NA
ATOM     18  C   UNL     1      14.454   7.722  20.338  0.00  0.00    +0.245 A 
ATOM     26  C   UNL     1      16.343   6.886  20.220  0.00  0.00    +0.204 A 
ENDROOT
BRANCH  26  28
ATOM      8  N   UNL     1      19.664   7.077  21.884  0.00  0.00    -0.221 NA
ATOM     28  C   UNL     1      17.716   6.607  20.532  0.00  0.00    +0.041 A 
ATOM     29  C   UNL     1      20.324   6.131  21.178  0.00  0.00    +0.215 A 
ATOM     30  C   UNL     1      18.428   5.642  19.828  0.00  0.00    +0.018 A 
ATOM     31  C   UNL     1      18.373   7.290  21.541  0.00  0.00    +0.126 A 
ATOM     32  C   UNL     1      19.756   5.393  20.151  0.00  0.00    +0.068 A 
BRANCH  29   2
ATOM      2  O   UNL     1      21.632   5.906  21.515  0.00  0.00    -0.473 OA
BRANCH   2  20
ATOM     20  C   UNL     1      22.293   4.841  20.840  0.00  0.00    +0.175 C 
ATOM     21  C   UNL     1      23.719   5.263  20.487  0.00  0.00    +0.044 C 
ATOM     22  C   UNL     1      22.277   3.590  21.718  0.00  0.00    +0.044 C 
ATOM     23  C   UNL     1      24.500   4.120  19.848  0.00  0.00    +0.004 C 
ATOM     24  C   UNL     1      23.059   2.447  21.078  0.00  0.00    +0.004 C 
ATOM     25  C   UNL     1      24.483   2.869  20.724  0.00  0.00    +0.000 C 
ENDBRANCH   2  20
ENDBRANCH  29   2
ENDBRANCH  26  28
BRANCH  18  10
ATOM      4  N   UNL     1      12.158   8.306  19.579  0.00  0.00    -0.288 NA
ATOM     10  C   UNL     1      13.172   8.469  20.639  0.00  0.00    +0.146 C 
ATOM     11  C   UNL     1      10.854   8.419  20.234  0.00  0.00    +0.085 C 
ATOM     12  C   UNL     1      12.481   7.970  21.921  0.00  0.00    +0.030 C 
ATOM     15  C   UNL     1      11.066   7.607  21.496  0.00  0.00    +0.017 C 
BRANCH   4   9
ATOM      3  O   UNL     1      15.202  10.027  14.522  0.00  0.00    -0.276 OA
ATOM      5  N   UNL     1      13.919  10.473  16.406  0.00  0.00    -0.302 N 
ATOM      9  C   UNL     1      12.308   9.264  18.486  0.00  0.00    +0.060 C 
ATOM     13  C   UNL     1      12.619   8.525  17.178  0.00  0.00    +0.038 C 
ATOM     14  C   UNL     1      13.423  10.266  18.814  0.00  0.00    +0.038 C 
ATOM     16  C   UNL     1      12.875   9.514  16.041  0.00  0.00    +0.109 C 
ATOM     17  C   UNL     1      13.663  11.220  17.644  0.00  0.00    +0.109 C 
ATOM     19  C   UNL     1      15.027  10.643  15.577  0.00  0.00    +0.212 C 
ATOM     27  C   UNL     1      16.060  11.646  16.024  0.00  0.00    +0.109 C 
ENDBRANCH   4   9
ENDBRANCH  18  10
TORSDOF 5
ENDMDL
MODEL 3
REMARK VINA RESULT:      -7.8     29.342     34.230
REMARK  Name = 45783575
REMARK  6 active torsions:
REMARK  status: ('A' for Active; 'I' for Inactive)
REMARK    1  A    between atoms: O_2  and  C_20
REMARK    2  A    between atoms: O_2  and  C_29
REMARK    3  A    between atoms: N_4  and  C_9
REMARK    4  A    between atoms: C_10  and  C_18
REMARK    5  A    between atoms: C_19  and  C_27
REMARK    6  A    between atoms: C_26  and  C_28
REMARK                            x       y       z     vdW  Elec       q    Type
REMARK                         _______ _______ _______ _____ _____    ______ ____
ROOT
ATOM      1  O   UNL     1      15.332   6.600  18.742  0.00  0.00    -0.336 OA
ATOM      6  N   UNL     1      16.545   7.748  20.234  0.00  0.00    -0.190 NA
ATOM      7  N   UNL     1      16.499   5.855  18.951  0.00  0.00    -0.056 NA
ATOM     18  C   UNL     1      15.439   7.698  19.534  0.00  0.00    +0.245 A 
ATOM     26  C   UNL     1      17.162   6.596  19.843  0.00  0.00    +0.204 A 
ENDROOT
BRANCH  26  28
ATOM      8  N   UNL     1      20.354   4.735  20.269  0.00  0.00    -0.221 NA
ATOM     28  C   UNL     1      18.445   6.215  20.361  0.00  0.00    +0.041 A 
ATOM     29  C   UNL     1      20.886   5.433  21.297  0.00  0.00    +0.215 A 
ATOM     30  C   UNL     1      19.024   6.907  21.419  0.00  0.00    +0.018 A 
ATOM     31  C   UNL     1      19.144   5.147  19.826  0.00  0.00    +0.126 A 
ATOM     32  C   UNL     1      20.267   6.516  21.902  0.00  0.00    +0.068 A 
BRANCH  29   2
ATOM      2  O   UNL     1      22.112   5.027  21.755  0.00  0.00    -0.473 OA
BRANCH   2  20
ATOM     20  C   UNL     1      22.798   4.056  20.973  0.00  0.00    +0.175 C 
ATOM     21  C   UNL     1      24.086   4.663  20.416  0.00  0.00    +0.044 C 
ATOM     22  C   UNL     1      23.081   2.819  21.824  0.00  0.00    +0.044 C 
ATOM     23  C   UNL     1      24.906   3.630  19.650  0.00  0.00    +0.004 C 
ATOM     24  C   UNL     1      23.902   1.787  21.058  0.00  0.00    +0.004 C 
ATOM     25  C   UNL     1      25.188   2.393  20.500  0.00  0.00    +0.000 C 
ENDBRANCH   2  20
ENDBRANCH  29   2
ENDBRANCH  26  28
BRANCH  18  10
ATOM      4  N   UNL     1      13.740   8.852  18.130  0.00  0.00    -0.288 NA
ATOM     10  C   UNL     1      14.286   8.677  19.491  0.00  0.00    +0.146 C 
ATOM     11  C   UNL     1      12.325   9.186  18.291  0.00  0.00    +0.085 C 
ATOM     12  C   UNL     1      13.084   8.219  20.337  0.00  0.00    +0.030 C 
ATOM     15  C   UNL     1      11.899   8.225  19.383  0.00  0.00    +0.017 C 
BRANCH   4   9
ATOM      3  O   UNL     1      13.521  14.042  14.840  0.00  0.00    -0.276 OA
ATOM      5  N   UNL     1      14.453  11.985  15.384  0.00  0.00    -0.302 N 
ATOM      9  C   UNL     1      14.456   9.857  17.347  0.00  0.00    +0.060 C 
ATOM     13  C   UNL     1      13.927  11.258  17.681  0.00  0.00    +0.038 C 
ATOM     14  C   UNL     1      14.299   9.568  15.848  0.00  0.00    +0.038 C 
ATOM     16  C   UNL     1      14.595  12.316  16.803  0.00  0.00    +0.109 C 
ATOM     17  C   UNL     1      14.959  10.659  15.007  0.00  0.00    +0.109 C 
ATOM     19  C   UNL     1      13.906  12.919  14.505  0.00  0.00    +0.212 C 
ATOM     27  C   UNL     1      13.790  12.502  13.061  0.00  0.00    +0.109 C 
ENDBRANCH   4   9
ENDBRANCH  18  10
TORSDOF 5
ENDMDL
MODEL 4
REMARK VINA RESULT:      -7.7     32.084     35.917
REMARK  Name = 45783575
REMARK  6 active torsions:
REMARK  status: ('A' for Active; 'I' for Inactive)
REMARK    1  A    between atoms: O_2  and  C_20
REMARK    2  A    between atoms: O_2  and  C_29
REMARK    3  A    between atoms: N_4  and  C_9
REMARK    4  A    between atoms: C_10  and  C_18
REMARK    5  A    between atoms: C_19  and  C_27
REMARK    6  A    between atoms: C_26  and  C_28
REMARK                            x       y       z     vdW  Elec       q    Type
REMARK                         _______ _______ _______ _____ _____    ______ ____
ROOT
ATOM      1  O   UNL     1      21.145   5.964  23.153  0.00  0.00    -0.336 OA
ATOM      6  N   UNL     1      20.907   6.043  20.927  0.00  0.00    -0.190 NA
ATOM      7  N   UNL     1      19.791   6.230  22.915  0.00  0.00    -0.056 NA
ATOM     18  C   UNL     1      21.730   5.869  21.931  0.00  0.00    +0.245 A 
ATOM     26  C   UNL     1      19.730   6.261  21.581  0.00  0.00    +0.204 A 
ENDROOT
BRANCH  26  28
ATOM      8  N   UNL     1      16.451   7.764  20.673  0.00  0.00    -0.221 NA
ATOM     28  C   UNL     1      18.509   6.510  20.869  0.00  0.00    +0.041 A 
ATOM     29  C   UNL     1      16.168   7.036  19.570  0.00  0.00    +0.215 A 
ATOM     30  C   UNL     1      18.181   5.780  19.732  0.00  0.00    +0.018 A 
ATOM     31  C   UNL     1      17.618   7.481  21.295  0.00  0.00    +0.126 A 
ATOM     32  C   UNL     1      16.992   6.042  19.063  0.00  0.00    +0.068 A 
BRANCH  29   2
ATOM      2  O   UNL     1      14.989   7.312  18.929  0.00  0.00    -0.473 OA
BRANCH   2  20
ATOM     20  C   UNL     1      13.931   7.829  19.730  0.00  0.00    +0.175 C 
ATOM     21  C   UNL     1      13.388   9.110  19.099  0.00  0.00    +0.044 C 
ATOM     22  C   UNL     1      12.839   6.770  19.882  0.00  0.00    +0.044 C 
ATOM     23  C   UNL     1      12.187   9.650  19.869  0.00  0.00    +0.004 C 
ATOM     24  C   UNL     1      11.638   7.309  20.652  0.00  0.00    +0.004 C 
ATOM     25  C   UNL     1      11.097   8.591  20.022  0.00  0.00    +0.000 C 
ENDBRANCH   2  20
ENDBRANCH  29   2
ENDBRANCH  26  28
BRANCH  18  10
ATOM      4  N   UNL     1      23.582   4.536  20.937  0.00  0.00    -0.288 NA
ATOM     10  C   UNL     1      23.217   5.581  21.915  0.00  0.00    +0.146 C 
ATOM     11  C   UNL     1      24.948   4.833  20.506  0.00  0.00    +0.085 C 
ATOM     12  C   UNL     1      24.056   6.806  21.509  0.00  0.00    +0.030 C 
ATOM     15  C   UNL     1      24.904   6.338  20.336  0.00  0.00    +0.017 C 
BRANCH   4   9
ATOM      3  O   UNL     1      25.801   0.134  24.611  0.00  0.00    -0.276 OA
ATOM      5  N   UNL     1      24.624   0.861  22.745  0.00  0.00    -0.302 N 
ATOM      9  C   UNL     1      23.454   3.181  21.467  0.00  0.00    +0.060 C 
ATOM     13  C   UNL     1      23.785   3.169  22.965  0.00  0.00    +0.038 C 
ATOM     14  C   UNL     1      24.385   2.228  20.705  0.00  0.00    +0.038 C 
ATOM     16  C   UNL     1      23.752   1.745  23.519  0.00  0.00    +0.109 C 
ATOM     17  C   UNL     1      24.340   0.823  21.304  0.00  0.00    +0.109 C 
ATOM     19  C   UNL     1      25.605   0.111  23.393  0.00  0.00    +0.212 C 
ATOM     27  C   UNL     1      26.465  -0.772  22.525  0.00  0.00    +0.109 C 
ENDBRANCH   4   9
ENDBRANCH  18  10
TORSDOF 5
ENDMDL
MODEL 5
REMARK VINA RESULT:      -7.6     28.678     32.944
REMARK  Name = 45783575
REMARK  6 active torsions:
REMARK  status: ('A' for Active; 'I' for Inactive)
REMARK    1  A    between atoms: O_2  and  C_20
REMARK    2  A    between atoms: O_2  and  C_29
REMARK    3  A    between atoms: N_4  and  C_9
REMARK    4  A    between atoms: C_10  and  C_18
REMARK    5  A    between atoms: C_19  and  C_27
REMARK    6  A    between atoms: C_26  and  C_28
REMARK                            x       y       z     vdW  Elec       q    Type
REMARK                         _______ _______ _______ _____ _____    ______ ____
ROOT
ATOM      1  O   UNL     1      14.763   6.687  19.045  0.00  0.00    -0.336 OA
ATOM      6  N   UNL     1      16.191   8.084  20.058  0.00  0.00    -0.190 NA
ATOM      7  N   UNL     1      15.905   5.932  19.339  0.00  0.00    -0.056 NA
ATOM     18  C   UNL     1      15.014   7.942  19.501  0.00  0.00    +0.245 A 
ATOM     26  C   UNL     1      16.700   6.824  19.935  0.00  0.00    +0.204 A 
ENDROOT
BRANCH  26  28
ATOM      8  N   UNL     1      19.991   5.118  20.233  0.00  0.00    -0.221 NA
ATOM     28  C   UNL     1      18.010   6.491  20.417  0.00  0.00    +0.041 A 
ATOM     29  C   UNL     1      20.504   5.801  21.281  0.00  0.00    +0.215 A 
ATOM     30  C   UNL     1      18.571   7.169  21.493  0.00  0.00    +0.018 A 
ATOM     31  C   UNL     1      18.754   5.482  19.827  0.00  0.00    +0.126 A 
ATOM     32  C   UNL     1      19.841   6.825  21.939  0.00  0.00    +0.068 A 
BRANCH  29   2
ATOM      2  O   UNL     1      21.757   5.441  21.702  0.00  0.00    -0.473 OA
BRANCH   2  20
ATOM     20  C   UNL     1      22.446   4.476  20.914  0.00  0.00    +0.175 C 
ATOM     21  C   UNL     1      23.799   5.038  20.480  0.00  0.00    +0.044 C 
ATOM     22  C   UNL     1      22.604   3.182  21.712  0.00  0.00    +0.044 C 
ATOM     23  C   UNL     1      24.616   4.003  19.714  0.00  0.00    +0.004 C 
ATOM     24  C   UNL     1      23.422   2.147  20.946  0.00  0.00    +0.004 C 
ATOM     25  C   UNL     1      24.773   2.709  20.510  0.00  0.00    +0.000 C 
ENDBRANCH   2  20
ENDBRANCH  29   2
ENDBRANCH  26  28
BRANCH  18  10
ATOM      4  N   UNL     1      14.139  10.196  20.086  0.00  0.00    -0.288 NA
ATOM     10  C   UNL     1      13.917   8.965  19.302  0.00  0.00    +0.146 C 
ATOM     11  C   UNL     1      13.510  11.284  19.336  0.00  0.00    +0.085 C 
ATOM     12  C   UNL     1      13.810   9.446  17.843  0.00  0.00    +0.030 C 
ATOM     15  C   UNL     1      13.922  10.962  17.914  0.00  0.00    +0.017 C 
BRANCH   4   9
ATOM      3  O   UNL     1      10.167  12.209  24.327  0.00  0.00    -0.276 OA
ATOM      5  N   UNL     1      12.189  11.266  23.681  0.00  0.00    -0.302 N 
ATOM      9  C   UNL     1      13.631  10.107  21.454  0.00  0.00    +0.060 C 
ATOM     13  C   UNL     1      12.100  10.210  21.454  0.00  0.00    +0.038 C 
ATOM     14  C   UNL     1      14.244  11.218  22.317  0.00  0.00    +0.038 C 
ATOM     16  C   UNL     1      11.555  10.216  22.882  0.00  0.00    +0.109 C 
ATOM     17  C   UNL     1      13.656  11.204  23.727  0.00  0.00    +0.109 C 
ATOM     19  C   UNL     1      11.401  12.199  24.353  0.00  0.00    +0.212 C 
ATOM     27  C   UNL     1      12.129  13.251  25.151  0.00  0.00    +0.109 C 
ENDBRANCH   4   9
ENDBRANCH  18  10
TORSDOF 5
ENDMDL
MODEL 6
REMARK VINA RESULT:      -7.3     29.959     34.068
REMARK  Name = 45783575
REMARK  6 active torsions:
REMARK  status: ('A' for Active; 'I' for Inactive)
REMARK    1  A    between atoms: O_2  and  C_20
REMARK    2  A    between atoms: O_2  and  C_29
REMARK    3  A    between atoms: N_4  and  C_9
REMARK    4  A    between atoms: C_10  and  C_18
REMARK    5  A    between atoms: C_19  and  C_27
REMARK    6  A    between atoms: C_26  and  C_28
REMARK                            x       y       z     vdW  Elec       q    Type
REMARK                         _______ _______ _______ _____ _____    ______ ____
ROOT
ATOM      1  O   UNL     1      19.102   5.683  19.912  0.00  0.00    -0.336 OA
ATOM      6  N   UNL     1      17.739   6.802  21.293  0.00  0.00    -0.190 NA
ATOM      7  N   UNL     1      17.864   5.755  19.263  0.00  0.00    -0.056 NA
ATOM     18  C   UNL     1      18.942   6.323  21.100  0.00  0.00    +0.245 A 
ATOM     26  C   UNL     1      17.113   6.429  20.139  0.00  0.00    +0.204 A 
ENDROOT
BRANCH  26  28
ATOM      8  N   UNL     1      13.466   6.864  20.719  0.00  0.00    -0.221 NA
ATOM     28  C   UNL     1      15.735   6.744  19.894  0.00  0.00    +0.041 A 
ATOM     29  C   UNL     1      13.097   7.320  19.501  0.00  0.00    +0.215 A 
ATOM     30  C   UNL     1      15.317   7.214  18.654  0.00  0.00    +0.018 A 
ATOM     31  C   UNL     1      14.779   6.588  20.884  0.00  0.00    +0.126 A 
ATOM     32  C   UNL     1      13.975   7.511  18.445  0.00  0.00    +0.068 A 
BRANCH  29   2
ATOM      2  O   UNL     1      11.769   7.604  19.320  0.00  0.00    -0.473 OA
BRANCH   2  20
ATOM     20  C   UNL     1      11.223   8.648  20.119  0.00  0.00    +0.175 C 
ATOM     21  C   UNL     1      10.833   8.096  21.489  0.00  0.00    +0.044 C 
ATOM     22  C   UNL     1      12.237   9.786  20.238  0.00  0.00    +0.044 C 
ATOM     23  C   UNL     1      10.332   9.199  22.416  0.00  0.00    +0.004 C 
ATOM     24  C   UNL     1      11.737  10.888  21.165  0.00  0.00    +0.004 C 
ATOM     25  C   UNL     1      11.345  10.337  22.534  0.00  0.00    +0.000 C 
ENDBRANCH   2  20
ENDBRANCH  29   2
ENDBRANCH  26  28
BRANCH  18  10
ATOM      4  N   UNL     1      21.407   6.630  21.256  0.00  0.00    -0.288 NA
ATOM     10  C   UNL     1      20.156   6.385  22.002  0.00  0.00    +0.146 C 
ATOM     11  C   UNL     1      22.300   7.344  22.168  0.00  0.00    +0.085 C 
ATOM     12  C   UNL     1      20.080   7.535  23.023  0.00  0.00    +0.030 C 
ATOM     15  C   UNL     1      21.356   8.336  22.817  0.00  0.00    +0.017 C 
BRANCH   4   9
ATOM      3  O   UNL     1      24.560   1.473  22.386  0.00  0.00    -0.276 OA
ATOM      5  N   UNL     1      23.894   3.222  21.009  0.00  0.00    -0.302 N 
ATOM      9  C   UNL     1      22.015   5.407  20.736  0.00  0.00    +0.060 C 
ATOM     13  C   UNL     1      21.757   4.241  21.698  0.00  0.00    +0.038 C 
ATOM     14  C   UNL     1      23.522   5.614  20.535  0.00  0.00    +0.038 C 
ATOM     16  C   UNL     1      22.467   2.974  21.222  0.00  0.00    +0.109 C 
ATOM     17  C   UNL     1      24.197   4.320  20.082  0.00  0.00    +0.109 C 
ATOM     19  C   UNL     1      24.841   2.414  21.638  0.00  0.00    +0.212 C 
ATOM     27  C   UNL     1      26.289   2.735  21.371  0.00  0.00    +0.109 C 
ENDBRANCH   4   9
ENDBRANCH  18  10
TORSDOF 5
ENDMDL
MODEL 7
REMARK VINA RESULT:      -7.3     17.120     18.981
REMARK  Name = 45783575
REMARK  6 active torsions:
REMARK  status: ('A' for Active; 'I' for Inactive)
REMARK    1  A    between atoms: O_2  and  C_20
REMARK    2  A    between atoms: O_2  and  C_29
REMARK    3  A    between atoms: N_4  and  C_9
REMARK    4  A    between atoms: C_10  and  C_18
REMARK    5  A    between atoms: C_19  and  C_27
REMARK    6  A    between atoms: C_26  and  C_28
REMARK                            x       y       z     vdW  Elec       q    Type
REMARK                         _______ _______ _______ _____ _____    ______ ____
ROOT
ATOM      1  O   UNL     1      -9.810 -11.393  16.766  0.00  0.00    -0.336 OA
ATOM      6  N   UNL     1      -8.955  -9.323  16.783  0.00  0.00    -0.190 NA
ATOM      7  N   UNL     1     -10.774 -10.569  16.173  0.00  0.00    -0.056 NA
ATOM     18  C   UNL     1      -8.772 -10.581  17.096  0.00  0.00    +0.245 A 
ATOM     26  C   UNL     1     -10.197  -9.365  16.219  0.00  0.00    +0.204 A 
ENDROOT
BRANCH  26  28
ATOM      8  N   UNL     1     -11.242  -5.809  15.916  0.00  0.00    -0.221 NA
ATOM     28  C   UNL     1     -10.834  -8.183  15.713  0.00  0.00    +0.041 A 
ATOM     29  C   UNL     1     -12.015  -5.894  14.810  0.00  0.00    +0.215 A 
ATOM     30  C   UNL     1     -11.637  -8.231  14.579  0.00  0.00    +0.018 A 
ATOM     31  C   UNL     1     -10.669  -6.959  16.339  0.00  0.00    +0.126 A 
ATOM     32  C   UNL     1     -12.242  -7.070  14.112  0.00  0.00    +0.068 A 
BRANCH  29   2
ATOM      2  O   UNL     1     -12.600  -4.737  14.371  0.00  0.00    -0.473 OA
BRANCH   2  20
ATOM     20  C   UNL     1     -13.056  -4.721  13.023  0.00  0.00    +0.175 C 
ATOM     21  C   UNL     1     -14.535  -4.337  12.984  0.00  0.00    +0.044 C 
ATOM     22  C   UNL     1     -12.202  -3.752  12.205  0.00  0.00    +0.044 C 
ATOM     23  C   UNL     1     -15.045  -4.212  11.553  0.00  0.00    +0.004 C 
ATOM     24  C   UNL     1     -12.712  -3.626  10.773  0.00  0.00    +0.004 C 
ATOM     25  C   UNL     1     -14.191  -3.245  10.735  0.00  0.00    +0.000 C 
ENDBRANCH   2  20
ENDBRANCH  29   2
ENDBRANCH  26  28
BRANCH  18  10
ATOM      4  N   UNL     1      -6.296 -10.663  17.329  0.00  0.00    -0.288 NA
ATOM     10  C   UNL     1      -7.583 -11.242  17.761  0.00  0.00    +0.146 C 
ATOM     11  C   UNL     1      -5.372 -10.825  18.451  0.00  0.00    +0.085 C 
ATOM     12  C   UNL     1      -7.591 -11.077  19.292  0.00  0.00    +0.030 C 
ATOM     15  C   UNL     1      -6.246 -10.454  19.633  0.00  0.00    +0.017 C 
BRANCH   4   9
ATOM      3  O   UNL     1      -1.416 -12.411  14.021  0.00  0.00    -0.276 OA
ATOM      5  N   UNL     1      -3.612 -11.680  14.227  0.00  0.00    -0.302 N 
ATOM      9  C   UNL     1      -5.779 -11.262  16.100  0.00  0.00    +0.060 C 
ATOM     13  C   UNL     1      -4.604 -12.194  16.424  0.00  0.00    +0.038 C 
ATOM     14  C   UNL     1      -5.338 -10.163  15.124  0.00  0.00    +0.038 C 
ATOM     16  C   UNL     1      -3.986 -12.757  15.144  0.00  0.00    +0.109 C 
ATOM     17  C   UNL     1      -4.705 -10.766  13.871  0.00  0.00    +0.109 C 
ATOM     19  C   UNL     1      -2.309 -11.609  13.734  0.00  0.00    +0.212 C 
ATOM     27  C   UNL     1      -2.001 -10.469  12.797  0.00  0.00    +0.109 C 
ENDBRANCH   4   9
ENDBRANCH  18  10
TORSDOF 5
ENDMDL
MODEL 8
REMARK VINA RESULT:      -7.3      2.353     10.048
REMARK  Name = 45783575
REMARK  6 active torsions:
REMARK  status: ('A' for Active; 'I' for Inactive)
REMARK    1  A    between atoms: O_2  and  C_20
REMARK    2  A    between atoms: O_2  and  C_29
REMARK    3  A    between atoms: N_4  and  C_9
REMARK    4  A    between atoms: C_10  and  C_18
REMARK    5  A    between atoms: C_19  and  C_27
REMARK    6  A    between atoms: C_26  and  C_28
REMARK                            x       y       z     vdW  Elec       q    Type
REMARK                         _______ _______ _______ _____ _____    ______ ____
ROOT
ATOM      1  O   UNL     1     -16.883   1.887  23.721  0.00  0.00    -0.336 OA
ATOM      6  N   UNL     1     -17.497   3.467  25.185  0.00  0.00    -0.190 NA
ATOM      7  N   UNL     1     -16.372   1.488  24.961  0.00  0.00    -0.056 NA
ATOM     18  C   UNL     1     -17.531   3.061  23.940  0.00  0.00    +0.245 A 
ATOM     26  C   UNL     1     -16.775   2.469  25.773  0.00  0.00    +0.204 A 
ENDROOT
BRANCH  26  28
ATOM      8  N   UNL     1     -16.296   1.280  29.264  0.00  0.00    -0.221 NA
ATOM     28  C   UNL     1     -16.474   2.485  27.175  0.00  0.00    +0.041 A 
ATOM     29  C   UNL     1     -15.918   2.440  29.847  0.00  0.00    +0.215 A 
ATOM     30  C   UNL     1     -16.084   3.659  27.811  0.00  0.00    +0.018 A 
ATOM     31  C   UNL     1     -16.563   1.333  27.939  0.00  0.00    +0.126 A 
ATOM     32  C   UNL     1     -15.798   3.645  29.171  0.00  0.00    +0.068 A 
BRANCH  29   2
ATOM      2  O   UNL     1     -15.644   2.400  31.188  0.00  0.00    -0.473 OA
BRANCH   2  20
ATOM     20  C   UNL     1     -15.502   3.652  31.851  0.00  0.00    +0.175 C 
ATOM     21  C   UNL     1     -16.430   3.700  33.063  0.00  0.00    +0.044 C 
ATOM     22  C   UNL     1     -14.041   3.856  32.252  0.00  0.00    +0.044 C 
ATOM     23  C   UNL     1     -16.243   4.985  33.863  0.00  0.00    +0.004 C 
ATOM     24  C   UNL     1     -13.854   5.141  33.052  0.00  0.00    +0.004 C 
ATOM     25  C   UNL     1     -14.783   5.190  34.263  0.00  0.00    +0.000 C 
ENDBRANCH   2  20
ENDBRANCH  29   2
ENDBRANCH  26  28
BRANCH  18  10
ATOM      4  N   UNL     1     -17.230   3.938  21.631  0.00  0.00    -0.288 NA
ATOM     10  C   UNL     1     -18.182   3.708  22.736  0.00  0.00    +0.146 C 
ATOM     11  C   UNL     1     -18.009   3.871  20.394  0.00  0.00    +0.085 C 
ATOM     12  C   UNL     1     -19.292   2.837  22.120  0.00  0.00    +0.030 C 
ATOM     15  C   UNL     1     -18.911   2.682  20.656  0.00  0.00    +0.017 C 
BRANCH   4   9
ATOM      3  O   UNL     1     -13.266   7.940  19.164  0.00  0.00    -0.276 OA
ATOM      5  N   UNL     1     -14.305   6.917  20.973  0.00  0.00    -0.302 N 
ATOM      9  C   UNL     1     -16.500   5.199  21.753  0.00  0.00    +0.060 C 
ATOM     13  C   UNL     1     -16.495   5.935  20.407  0.00  0.00    +0.038 C 
ATOM     14  C   UNL     1     -15.065   4.932  22.224  0.00  0.00    +0.038 C 
ATOM     16  C   UNL     1     -15.654   7.210  20.487  0.00  0.00    +0.109 C 
ATOM     17  C   UNL     1     -14.253   6.226  22.268  0.00  0.00    +0.109 C 
ATOM     19  C   UNL     1     -13.196   7.328  20.234  0.00  0.00    +0.212 C 
ATOM     27  C   UNL     1     -11.842   6.986  20.799  0.00  0.00    +0.109 C 
ENDBRANCH   4   9
ENDBRANCH  18  10
TORSDOF 5
ENDMDL
MODEL 9
REMARK VINA RESULT:      -7.3     19.003     22.651
REMARK  Name = 45783575
REMARK  6 active torsions:
REMARK  status: ('A' for Active; 'I' for Inactive)
REMARK    1  A    between atoms: O_2  and  C_20
REMARK    2  A    between atoms: O_2  and  C_29
REMARK    3  A    between atoms: N_4  and  C_9
REMARK    4  A    between atoms: C_10  and  C_18
REMARK    5  A    between atoms: C_19  and  C_27
REMARK    6  A    between atoms: C_26  and  C_28
REMARK                            x       y       z     vdW  Elec       q    Type
REMARK                         _______ _______ _______ _____ _____    ______ ____
ROOT
ATOM      1  O   UNL     1      -2.483 -10.594  14.720  0.00  0.00    -0.336 OA
ATOM      6  N   UNL     1      -4.699 -10.851  14.528  0.00  0.00    -0.190 NA
ATOM      7  N   UNL     1      -2.993 -10.557  16.023  0.00  0.00    -0.056 NA
ATOM     18  C   UNL     1      -3.552 -10.769  13.901  0.00  0.00    +0.245 A 
ATOM     26  C   UNL     1      -4.305 -10.715  15.827  0.00  0.00    +0.204 A 
ENDROOT
BRANCH  26  28
ATOM      8  N   UNL     1      -7.543 -10.547  17.649  0.00  0.00    -0.221 NA
ATOM     28  C   UNL     1      -5.250 -10.740  16.907  0.00  0.00    +0.041 A 
ATOM     29  C   UNL     1      -7.104 -10.771  18.908  0.00  0.00    +0.215 A 
ATOM     30  C   UNL     1      -4.838 -10.966  18.215  0.00  0.00    +0.018 A 
ATOM     31  C   UNL     1      -6.601 -10.538  16.678  0.00  0.00    +0.126 A 
ATOM     32  C   UNL     1      -5.775 -10.984  19.241  0.00  0.00    +0.068 A 
BRANCH  29   2
ATOM      2  O   UNL     1      -8.048 -10.783  19.901  0.00  0.00    -0.473 OA
BRANCH   2  20
ATOM     20  C   UNL     1      -9.343 -11.256  19.548  0.00  0.00    +0.175 C 
ATOM     21  C   UNL     1      -9.538 -12.672  20.089  0.00  0.00    +0.044 C 
ATOM     22  C   UNL     1     -10.404 -10.297  20.089  0.00  0.00    +0.044 C 
ATOM     23  C   UNL     1     -10.949 -13.186  19.820  0.00  0.00    +0.004 C 
ATOM     24  C   UNL     1     -11.814 -10.811  19.819  0.00  0.00    +0.004 C 
ATOM     25  C   UNL     1     -12.008 -12.226  20.358  0.00  0.00    +0.000 C 
ENDBRANCH   2  20
ENDBRANCH  29   2
ENDBRANCH  26  28
BRANCH  18  10
ATOM      4  N   UNL     1      -3.919  -9.764  11.655  0.00  0.00    -0.288 NA
ATOM     10  C   UNL     1      -3.261 -10.844  12.417  0.00  0.00    +0.146 C 
ATOM     11  C   UNL     1      -3.070  -9.503  10.492  0.00  0.00    +0.085 C 
ATOM     12  C   UNL     1      -1.763 -10.692  12.096  0.00  0.00    +0.030 C 
ATOM     15  C   UNL     1      -1.683  -9.544  11.101  0.00  0.00    +0.017 C 
BRANCH   4   9
ATOM      3  O   UNL     1      -8.435  -9.275   7.510  0.00  0.00    -0.276 OA
ATOM      5  N   UNL     1      -7.649  -9.540   9.680  0.00  0.00    -0.302 N 
ATOM      9  C   UNL     1      -5.292 -10.083  11.271  0.00  0.00    +0.060 C 
ATOM     13  C   UNL     1      -5.354 -10.435   9.779  0.00  0.00    +0.038 C 
ATOM     14  C   UNL     1      -6.215  -8.898  11.582  0.00  0.00    +0.038 C 
ATOM     16  C   UNL     1      -6.796 -10.678   9.336  0.00  0.00    +0.109 C 
ATOM     17  C   UNL     1      -7.640  -9.172  11.102  0.00  0.00    +0.109 C 
ATOM     19  C   UNL     1      -8.417  -8.923   8.693  0.00  0.00    +0.212 C 
ATOM     27  C   UNL     1      -9.267  -7.756   9.127  0.00  0.00    +0.109 C 
ENDBRANCH   4   9
ENDBRANCH  18  10
TORSDOF 5
ENDMDL
MODEL 10
REMARK VINA RESULT:      -7.2     32.238     35.827
REMARK  Name = 45783575
REMARK  6 active torsions:
REMARK  status: ('A' for Active; 'I' for Inactive)
REMARK    1  A    between atoms: O_2  and  C_20
REMARK    2  A    between atoms: O_2  and  C_29
REMARK    3  A    between atoms: N_4  and  C_9
REMARK    4  A    between atoms: C_10  and  C_18
REMARK    5  A    between atoms: C_19  and  C_27
REMARK    6  A    between atoms: C_26  and  C_28
REMARK                            x       y       z     vdW  Elec       q    Type
REMARK                         _______ _______ _______ _____ _____    ______ ____
ROOT
ATOM      1  O   UNL     1      22.375   5.944  22.368  0.00  0.00    -0.336 OA
ATOM      6  N   UNL     1      21.501   4.916  20.581  0.00  0.00    -0.190 NA
ATOM      7  N   UNL     1      21.066   6.424  22.244  0.00  0.00    -0.056 NA
ATOM     18  C   UNL     1      22.551   5.062  21.351  0.00  0.00    +0.245 A 
ATOM     26  C   UNL     1      20.616   5.771  21.169  0.00  0.00    +0.204 A 
ENDROOT
BRANCH  26  28
ATOM      8  N   UNL     1      17.648   5.449  18.952  0.00  0.00    -0.221 NA
ATOM     28  C   UNL     1      19.289   5.952  20.655  0.00  0.00    +0.041 A 
ATOM     29  C   UNL     1      16.783   6.249  19.615  0.00  0.00    +0.215 A 
ATOM     30  C   UNL     1      18.372   6.768  21.308  0.00  0.00    +0.018 A 
ATOM     31  C   UNL     1      18.881   5.321  19.491  0.00  0.00    +0.126 A 
ATOM     32  C   UNL     1      17.093   6.924  20.786  0.00  0.00    +0.068 A 
BRANCH  29   2
ATOM      2  O   UNL     1      15.530   6.388  19.080  0.00  0.00    -0.473 OA
BRANCH   2  20
ATOM     20  C   UNL     1      14.730   7.449  19.589  0.00  0.00    +0.175 C 
ATOM     21  C   UNL     1      14.665   8.581  18.564  0.00  0.00    +0.044 C 
ATOM     22  C   UNL     1      13.337   6.921  19.932  0.00  0.00    +0.044 C 
ATOM     23  C   UNL     1      13.738   9.702  19.024  0.00  0.00    +0.004 C 
ATOM     24  C   UNL     1      12.410   8.042  20.392  0.00  0.00    +0.004 C 
ATOM     25  C   UNL     1      12.347   9.174  19.369  0.00  0.00    +0.000 C 
ENDBRANCH   2  20
ENDBRANCH  29   2
ENDBRANCH  26  28
BRANCH  18  10
ATOM      4  N   UNL     1      23.832   2.932  21.461  0.00  0.00    -0.288 NA
ATOM     10  C   UNL     1      23.906   4.393  21.263  0.00  0.00    +0.146 C 
ATOM     11  C   UNL     1      24.939   2.354  20.698  0.00  0.00    +0.085 C 
ATOM     12  C   UNL     1      24.567   4.567  19.883  0.00  0.00    +0.030 C 
ATOM     15  C   UNL     1      24.883   3.155  19.412  0.00  0.00    +0.017 C 
BRANCH   4   9
ATOM      3  O   UNL     1      23.383  -1.547  25.650  0.00  0.00    -0.276 OA
ATOM      5  N   UNL     1      23.207   0.669  24.976  0.00  0.00    -0.302 N 
ATOM      9  C   UNL     1      23.872   2.539  22.868  0.00  0.00    +0.060 C 
ATOM     13  C   UNL     1      24.611   1.203  23.021  0.00  0.00    +0.038 C 
ATOM     14  C   UNL     1      22.447   2.430  23.425  0.00  0.00    +0.038 C 
ATOM     16  C   UNL     1      24.580   0.726  24.472  0.00  0.00    +0.109 C 
ATOM     17  C   UNL     1      22.459   1.928  24.868  0.00  0.00    +0.109 C 
ATOM     19  C   UNL     1      22.722  -0.511  25.539  0.00  0.00    +0.212 C 
ATOM     27  C   UNL     1      21.297  -0.491  26.031  0.00  0.00    +0.109 C 
ENDBRANCH   4   9
ENDBRANCH  18  10
TORSDOF 5
ENDMDL
