MODEL 1
REMARK VINA RESULT:      -6.9      0.000      0.000
REMARK  Name = 26743010
REMARK  9 active torsions:
REMARK  status: ('A' for Active; 'I' for Inactive)
REMARK    1  A    between atoms: O_3  and  C_19
REMARK    2  A    between atoms: O_3  and  C_26
REMARK    3  A    between atoms: N_5  and  C_18
REMARK    4  A    between atoms: C_7  and  C_13
REMARK    5  A    between atoms: C_8  and  C_12
REMARK    6  A    between atoms: C_12  and  C_14
REMARK    7  A    between atoms: C_13  and  C_15
REMARK    8  A    between atoms: C_17  and  C_19
REMARK    9  A    between atoms: C_18  and  C_20
REMARK                            x       y       z     vdW  Elec       q    Type
REMARK                         _______ _______ _______ _____ _____    ______ ____
ROOT
ATOM      4  N   UNL     1      13.973   8.575  15.878  0.00  0.00    -0.316 NA
ATOM      7  C   UNL     1      13.064   9.094  18.637  0.00  0.00    +0.004 C 
ATOM      8  C   UNL     1      14.216   8.116  18.306  0.00  0.00    +0.012 C 
ATOM      9  C   UNL     1      12.938  10.123  17.501  0.00  0.00    +0.019 C 
ATOM     10  C   UNL     1      14.073   7.526  16.894  0.00  0.00    +0.085 C 
ATOM     11  C   UNL     1      12.841   9.464  16.125  0.00  0.00    +0.081 C 
ATOM     27  H   UNL     1      13.872   8.146  14.959  0.00  0.00    +0.122 HD
ENDROOT
BRANCH   8  12
ATOM     12  C   UNL     1      14.371   7.001  19.342  0.00  0.00    +0.064 C 
BRANCH  12  14
ATOM      2  O   UNL     1      17.765   5.802  19.392  0.00  0.00    -0.357 OA
ATOM      6  N   UNL     1      16.476   5.826  18.873  0.00  0.00    -0.083 NA
ATOM     14  C   UNL     1      15.816   6.712  19.624  0.00  0.00    +0.084 A 
ATOM     16  C   UNL     1      16.629   7.274  20.624  0.00  0.00    +0.073 A 
ATOM     17  C   UNL     1      17.843   6.668  20.435  0.00  0.00    +0.163 A 
BRANCH  17  19
ATOM     19  C   UNL     1      19.145   6.769  21.106  0.00  0.00    +0.236 C 
BRANCH  19   3
ATOM      3  O   UNL     1      20.151   6.100  20.341  0.00  0.00    -0.375 OA
ATOM     26  C   UNL     1      21.450   6.445  20.790  0.00  0.00    +0.194 C 
ENDBRANCH  19   3
ENDBRANCH  17  19
ENDBRANCH  12  14
ENDBRANCH   8  12
BRANCH   7  13
ATOM     13  C   UNL     1      11.719   8.408  18.902  0.00  0.00    +0.099 C 
BRANCH  13  15
ATOM      1  O   UNL     1      10.567   7.628  20.881  0.00  0.00    -0.276 OA
ATOM      5  N   UNL     1      11.975   9.473  21.031  0.00  0.00    -0.311 N 
ATOM     15  C   UNL     1      11.340   8.433  20.367  0.00  0.00    +0.214 C 
ATOM     28  H   UNL     1      12.583  10.097  20.510  0.00  0.00    +0.149 HD
BRANCH   5  18
ATOM     18  C   UNL     1      11.794   9.734  22.441  0.00  0.00    +0.139 C 
BRANCH  18  20
ATOM     20  C   UNL     1      11.309  11.131  22.696  0.00  0.00    -0.030 A 
ATOM     21  C   UNL     1      10.866  11.496  23.967  0.00  0.00    +0.005 A 
ATOM     22  C   UNL     1      11.301  12.067  21.661  0.00  0.00    +0.005 A 
ATOM     23  C   UNL     1      10.416  12.795  24.204  0.00  0.00    +0.000 A 
ATOM     24  C   UNL     1      10.850  13.366  21.897  0.00  0.00    +0.000 A 
ATOM     25  C   UNL     1      10.408  13.729  23.169  0.00  0.00    +0.000 A 
ENDBRANCH  18  20
ENDBRANCH   5  18
ENDBRANCH  13  15
ENDBRANCH   7  13
TORSDOF 8
ENDMDL
MODEL 2
REMARK VINA RESULT:      -6.3      2.671      6.585
REMARK  Name = 26743010
REMARK  9 active torsions:
REMARK  status: ('A' for Active; 'I' for Inactive)
REMARK    1  A    between atoms: O_3  and  C_19
REMARK    2  A    between atoms: O_3  and  C_26
REMARK    3  A    between atoms: N_5  and  C_18
REMARK    4  A    between atoms: C_7  and  C_13
REMARK    5  A    between atoms: C_8  and  C_12
REMARK    6  A    between atoms: C_12  and  C_14
REMARK    7  A    between atoms: C_13  and  C_15
REMARK    8  A    between atoms: C_17  and  C_19
REMARK    9  A    between atoms: C_18  and  C_20
REMARK                            x       y       z     vdW  Elec       q    Type
REMARK                         _______ _______ _______ _____ _____    ______ ____
ROOT
ATOM      4  N   UNL     1      12.111  10.299  14.999  0.00  0.00    -0.316 NA
ATOM      7  C   UNL     1      12.170   8.992  17.644  0.00  0.00    +0.004 C 
ATOM      8  C   UNL     1      13.067  10.201  17.289  0.00  0.00    +0.012 C 
ATOM      9  C   UNL     1      10.926   9.007  16.740  0.00  0.00    +0.019 C 
ATOM     10  C   UNL     1      13.349  10.275  15.779  0.00  0.00    +0.085 C 
ATOM     11  C   UNL     1      11.284   9.123  15.258  0.00  0.00    +0.081 C 
ATOM     27  H   UNL     1      12.339  10.339  14.006  0.00  0.00    +0.122 HD
ENDROOT
BRANCH   8  12
ATOM     12  C   UNL     1      14.374  10.231  18.082  0.00  0.00    +0.064 C 
BRANCH  12  14
ATOM      2  O   UNL     1      14.364  10.644  21.659  0.00  0.00    -0.357 OA
ATOM      6  N   UNL     1      14.808  10.033  20.493  0.00  0.00    -0.083 NA
ATOM     14  C   UNL     1      14.141  10.640  19.508  0.00  0.00    +0.084 A 
ATOM     16  C   UNL     1      13.268  11.633  19.987  0.00  0.00    +0.073 A 
ATOM     17  C   UNL     1      13.446  11.595  21.344  0.00  0.00    +0.163 A 
BRANCH  17  19
ATOM     19  C   UNL     1      12.869  12.344  22.467  0.00  0.00    +0.236 C 
BRANCH  19   3
ATOM      3  O   UNL     1      12.841  11.532  23.644  0.00  0.00    -0.375 OA
ATOM     26  C   UNL     1      13.214  12.278  24.790  0.00  0.00    +0.194 C 
ENDBRANCH  19   3
ENDBRANCH  17  19
ENDBRANCH  12  14
ENDBRANCH   8  12
BRANCH   7  13
ATOM     13  C   UNL     1      12.886   7.638  17.564  0.00  0.00    +0.099 C 
BRANCH  13  15
ATOM      1  O   UNL     1      12.230   6.588  19.641  0.00  0.00    -0.276 OA
ATOM      5  N   UNL     1      14.475   7.058  19.259  0.00  0.00    -0.311 N 
ATOM     15  C   UNL     1      13.127   7.034  18.930  0.00  0.00    +0.214 C 
ATOM     28  H   UNL     1      15.138   7.468  18.607  0.00  0.00    +0.149 HD
BRANCH   5  18
ATOM     18  C   UNL     1      14.991   6.547  20.508  0.00  0.00    +0.139 C 
BRANCH  18  20
ATOM     20  C   UNL     1      16.480   6.366  20.469  0.00  0.00    -0.030 A 
ATOM     21  C   UNL     1      17.266   6.815  21.530  0.00  0.00    +0.005 A 
ATOM     22  C   UNL     1      17.079   5.749  19.370  0.00  0.00    +0.005 A 
ATOM     23  C   UNL     1      18.651   6.647  21.493  0.00  0.00    +0.000 A 
ATOM     24  C   UNL     1      18.464   5.580  19.334  0.00  0.00    +0.000 A 
ATOM     25  C   UNL     1      19.248   6.030  20.395  0.00  0.00    +0.000 A 
ENDBRANCH  18  20
ENDBRANCH   5  18
ENDBRANCH  13  15
ENDBRANCH   7  13
TORSDOF 8
ENDMDL
MODEL 3
REMARK VINA RESULT:      -6.2     14.182     18.635
REMARK  Name = 26743010
REMARK  9 active torsions:
REMARK  status: ('A' for Active; 'I' for Inactive)
REMARK    1  A    between atoms: O_3  and  C_19
REMARK    2  A    between atoms: O_3  and  C_26
REMARK    3  A    between atoms: N_5  and  C_18
REMARK    4  A    between atoms: C_7  and  C_13
REMARK    5  A    between atoms: C_8  and  C_12
REMARK    6  A    between atoms: C_12  and  C_14
REMARK    7  A    between atoms: C_13  and  C_15
REMARK    8  A    between atoms: C_17  and  C_19
REMARK    9  A    between atoms: C_18  and  C_20
REMARK                            x       y       z     vdW  Elec       q    Type
REMARK                         _______ _______ _______ _____ _____    ______ ____
ROOT
ATOM      4  N   UNL     1      11.175   9.112   3.591  0.00  0.00    -0.316 NA
ATOM      7  C   UNL     1       9.782   6.712   2.588  0.00  0.00    +0.004 C 
ATOM      8  C   UNL     1       9.131   7.703   3.580  0.00  0.00    +0.012 C 
ATOM      9  C   UNL     1      10.877   7.444   1.793  0.00  0.00    +0.019 C 
ATOM     10  C   UNL     1      10.185   8.434   4.428  0.00  0.00    +0.085 C 
ATOM     11  C   UNL     1      11.863   8.180   2.701  0.00  0.00    +0.081 C 
ATOM     27  H   UNL     1      11.859   9.576   4.187  0.00  0.00    +0.122 HD
ENDROOT
BRANCH   8  12
ATOM     12  C   UNL     1       8.079   7.048   4.477  0.00  0.00    +0.064 C 
BRANCH  12  14
ATOM      2  O   UNL     1       8.755   7.311   8.003  0.00  0.00    -0.357 OA
ATOM      6  N   UNL     1       8.101   7.709   6.843  0.00  0.00    -0.083 NA
ATOM     14  C   UNL     1       8.574   6.905   5.887  0.00  0.00    +0.084 A 
ATOM     16  C   UNL     1       9.519   5.989   6.379  0.00  0.00    +0.073 A 
ATOM     17  C   UNL     1       9.598   6.287   7.713  0.00  0.00    +0.163 A 
BRANCH  17  19
ATOM     19  C   UNL     1      10.374   5.741   8.834  0.00  0.00    +0.236 C 
BRANCH  19   3
ATOM      3  O   UNL     1       9.920   4.424   9.158  0.00  0.00    -0.375 OA
ATOM     26  C   UNL     1       8.941   4.457  10.183  0.00  0.00    +0.194 C 
ENDBRANCH  19   3
ENDBRANCH  17  19
ENDBRANCH  12  14
ENDBRANCH   8  12
BRANCH   7  13
ATOM     13  C   UNL     1      10.342   5.446   3.247  0.00  0.00    +0.099 C 
BRANCH  13  15
ATOM      1  O   UNL     1       9.968   4.023   1.327  0.00  0.00    -0.276 OA
ATOM      5  N   UNL     1      11.991   3.895   2.465  0.00  0.00    -0.311 N 
ATOM     15  C   UNL     1      10.715   4.387   2.232  0.00  0.00    +0.214 C 
ATOM     28  H   UNL     1      12.523   4.250   3.254  0.00  0.00    +0.149 HD
BRANCH   5  18
ATOM     18  C   UNL     1      12.603   2.872   1.649  0.00  0.00    +0.139 C 
BRANCH  18  20
ATOM     20  C   UNL     1      13.612   3.443   0.695  0.00  0.00    -0.030 A 
ATOM     21  C   UNL     1      14.918   3.683   1.121  0.00  0.00    +0.005 A 
ATOM     22  C   UNL     1      13.243   3.734  -0.618  0.00  0.00    +0.005 A 
ATOM     23  C   UNL     1      15.855   4.214   0.235  0.00  0.00    +0.000 A 
ATOM     24  C   UNL     1      14.180   4.265  -1.505  0.00  0.00    +0.000 A 
ATOM     25  C   UNL     1      15.486   4.505  -1.078  0.00  0.00    +0.000 A 
ENDBRANCH  18  20
ENDBRANCH   5  18
ENDBRANCH  13  15
ENDBRANCH   7  13
TORSDOF 8
ENDMDL
MODEL 4
REMARK VINA RESULT:      -5.8     26.021     28.525
REMARK  Name = 26743010
REMARK  9 active torsions:
REMARK  status: ('A' for Active; 'I' for Inactive)
REMARK    1  A    between atoms: O_3  and  C_19
REMARK    2  A    between atoms: O_3  and  C_26
REMARK    3  A    between atoms: N_5  and  C_18
REMARK    4  A    between atoms: C_7  and  C_13
REMARK    5  A    between atoms: C_8  and  C_12
REMARK    6  A    between atoms: C_12  and  C_14
REMARK    7  A    between atoms: C_13  and  C_15
REMARK    8  A    between atoms: C_17  and  C_19
REMARK    9  A    between atoms: C_18  and  C_20
REMARK                            x       y       z     vdW  Elec       q    Type
REMARK                         _______ _______ _______ _____ _____    ______ ____
ROOT
ATOM      4  N   UNL     1      -6.626  -9.023   8.018  0.00  0.00    -0.316 NA
ATOM      7  C   UNL     1      -4.675 -10.104   9.950  0.00  0.00    +0.004 C 
ATOM      8  C   UNL     1      -5.973  -9.384  10.386  0.00  0.00    +0.012 C 
ATOM      9  C   UNL     1      -4.872 -10.683   8.539  0.00  0.00    +0.019 C 
ATOM     10  C   UNL     1      -6.453  -8.383   9.323  0.00  0.00    +0.085 C 
ATOM     11  C   UNL     1      -5.388  -9.640   7.548  0.00  0.00    +0.081 C 
ATOM     27  H   UNL     1      -6.936  -8.328   7.340  0.00  0.00    +0.122 HD
ENDROOT
BRANCH   8  12
ATOM     12  C   UNL     1      -5.850  -8.703  11.750  0.00  0.00    +0.064 C 
BRANCH  12  14
ATOM      2  O   UNL     1      -8.240 -10.488  13.765  0.00  0.00    -0.357 OA
ATOM      6  N   UNL     1      -7.867  -9.809  12.612  0.00  0.00    -0.083 NA
ATOM     14  C   UNL     1      -6.593  -9.462  12.811  0.00  0.00    +0.084 A 
ATOM     16  C   UNL     1      -6.112  -9.890  14.060  0.00  0.00    +0.073 A 
ATOM     17  C   UNL     1      -7.186 -10.529  14.621  0.00  0.00    +0.163 A 
BRANCH  17  19
ATOM     19  C   UNL     1      -7.408 -11.215  15.900  0.00  0.00    +0.236 C 
BRANCH  19   3
ATOM      3  O   UNL     1      -7.019 -10.373  16.989  0.00  0.00    -0.375 OA
ATOM     26  C   UNL     1      -7.866  -9.241  17.090  0.00  0.00    +0.194 C 
ENDBRANCH  19   3
ENDBRANCH  17  19
ENDBRANCH  12  14
ENDBRANCH   8  12
BRANCH   7  13
ATOM     13  C   UNL     1      -3.422  -9.221  10.006  0.00  0.00    +0.099 C 
BRANCH  13  15
ATOM      1  O   UNL     1      -1.274  -9.249  11.118  0.00  0.00    -0.276 OA
ATOM      5  N   UNL     1      -2.795 -10.958  11.530  0.00  0.00    -0.311 N 
ATOM     15  C   UNL     1      -2.366  -9.781  10.933  0.00  0.00    +0.214 C 
ATOM     28  H   UNL     1      -3.712 -11.328  11.297  0.00  0.00    +0.149 HD
BRANCH   5  18
ATOM     18  C   UNL     1      -1.986 -11.710  12.462  0.00  0.00    +0.139 C 
BRANCH  18  20
ATOM     20  C   UNL     1      -2.427 -11.506  13.882  0.00  0.00    -0.030 A 
ATOM     21  C   UNL     1      -1.841 -10.506  14.658  0.00  0.00    +0.005 A 
ATOM     22  C   UNL     1      -3.424 -12.315  14.426  0.00  0.00    +0.005 A 
ATOM     23  C   UNL     1      -2.251 -10.316  15.978  0.00  0.00    +0.000 A 
ATOM     24  C   UNL     1      -3.835 -12.125  15.746  0.00  0.00    +0.000 A 
ATOM     25  C   UNL     1      -3.247 -11.126  16.521  0.00  0.00    +0.000 A 
ENDBRANCH  18  20
ENDBRANCH   5  18
ENDBRANCH  13  15
ENDBRANCH   7  13
TORSDOF 8
ENDMDL
MODEL 5
REMARK VINA RESULT:      -5.8     28.528     31.636
REMARK  Name = 26743010
REMARK  9 active torsions:
REMARK  status: ('A' for Active; 'I' for Inactive)
REMARK    1  A    between atoms: O_3  and  C_19
REMARK    2  A    between atoms: O_3  and  C_26
REMARK    3  A    between atoms: N_5  and  C_18
REMARK    4  A    between atoms: C_7  and  C_13
REMARK    5  A    between atoms: C_8  and  C_12
REMARK    6  A    between atoms: C_12  and  C_14
REMARK    7  A    between atoms: C_13  and  C_15
REMARK    8  A    between atoms: C_17  and  C_19
REMARK    9  A    between atoms: C_18  and  C_20
REMARK                            x       y       z     vdW  Elec       q    Type
REMARK                         _______ _______ _______ _____ _____    ______ ____
ROOT
ATOM      4  N   UNL     1     -19.186   3.875  26.927  0.00  0.00    -0.316 NA
ATOM      7  C   UNL     1     -16.600   2.807  27.864  0.00  0.00    +0.004 C 
ATOM      8  C   UNL     1     -16.810   3.353  26.432  0.00  0.00    +0.012 C 
ATOM      9  C   UNL     1     -17.636   3.449  28.803  0.00  0.00    +0.019 C 
ATOM     10  C   UNL     1     -18.275   3.226  25.984  0.00  0.00    +0.085 C 
ATOM     11  C   UNL     1     -19.063   3.319  28.272  0.00  0.00    +0.081 C 
ATOM     27  H   UNL     1     -20.145   3.763  26.602  0.00  0.00    +0.122 HD
ENDROOT
BRANCH   8  12
ATOM     12  C   UNL     1     -15.875   2.712  25.404  0.00  0.00    +0.064 C 
BRANCH  12  14
ATOM      2  O   UNL     1     -16.322   3.905  22.037  0.00  0.00    -0.357 OA
ATOM      6  N   UNL     1     -16.504   2.964  23.042  0.00  0.00    -0.083 NA
ATOM     14  C   UNL     1     -15.882   3.472  24.110  0.00  0.00    +0.084 A 
ATOM     16  C   UNL     1     -15.294   4.720  23.840  0.00  0.00    +0.073 A 
ATOM     17  C   UNL     1     -15.599   4.946  22.524  0.00  0.00    +0.163 A 
BRANCH  17  19
ATOM     19  C   UNL     1     -15.312   6.039  21.587  0.00  0.00    +0.236 C 
BRANCH  19   3
ATOM      3  O   UNL     1     -13.923   6.380  21.632  0.00  0.00    -0.375 OA
ATOM     26  C   UNL     1     -13.734   7.777  21.479  0.00  0.00    +0.194 C 
ENDBRANCH  19   3
ENDBRANCH  17  19
ENDBRANCH  12  14
ENDBRANCH   8  12
BRANCH   7  13
ATOM     13  C   UNL     1     -16.650   1.278  27.963  0.00  0.00    +0.099 C 
BRANCH  13  15
ATOM      1  O   UNL     1     -16.261  -0.195  29.842  0.00  0.00    -0.276 OA
ATOM      5  N   UNL     1     -14.725   1.486  29.372  0.00  0.00    -0.311 N 
ATOM     15  C   UNL     1     -15.885   0.755  29.159  0.00  0.00    +0.214 C 
ATOM     28  H   UNL     1     -14.512   2.268  28.760  0.00  0.00    +0.149 HD
BRANCH   5  18
ATOM     18  C   UNL     1     -13.803   1.206  30.449  0.00  0.00    +0.139 C 
BRANCH  18  20
ATOM     20  C   UNL     1     -14.035   2.099  31.633  0.00  0.00    -0.030 A 
ATOM     21  C   UNL     1     -14.572   1.575  32.809  0.00  0.00    +0.005 A 
ATOM     22  C   UNL     1     -13.713   3.454  31.558  0.00  0.00    +0.005 A 
ATOM     23  C   UNL     1     -14.787   2.405  33.909  0.00  0.00    +0.000 A 
ATOM     24  C   UNL     1     -13.928   4.285  32.659  0.00  0.00    +0.000 A 
ATOM     25  C   UNL     1     -14.465   3.759  33.833  0.00  0.00    +0.000 A 
ENDBRANCH  18  20
ENDBRANCH   5  18
ENDBRANCH  13  15
ENDBRANCH   7  13
TORSDOF 8
ENDMDL
MODEL 6
REMARK VINA RESULT:      -5.8      3.345      5.240
REMARK  Name = 26743010
REMARK  9 active torsions:
REMARK  status: ('A' for Active; 'I' for Inactive)
REMARK    1  A    between atoms: O_3  and  C_19
REMARK    2  A    between atoms: O_3  and  C_26
REMARK    3  A    between atoms: N_5  and  C_18
REMARK    4  A    between atoms: C_7  and  C_13
REMARK    5  A    between atoms: C_8  and  C_12
REMARK    6  A    between atoms: C_12  and  C_14
REMARK    7  A    between atoms: C_13  and  C_15
REMARK    8  A    between atoms: C_17  and  C_19
REMARK    9  A    between atoms: C_18  and  C_20
REMARK                            x       y       z     vdW  Elec       q    Type
REMARK                         _______ _______ _______ _____ _____    ______ ____
ROOT
ATOM      4  N   UNL     1      16.900  11.077  14.458  0.00  0.00    -0.316 NA
ATOM      7  C   UNL     1      15.018  12.044  16.515  0.00  0.00    +0.004 C 
ATOM      8  C   UNL     1      14.775  10.751  15.700  0.00  0.00    +0.012 C 
ATOM      9  C   UNL     1      16.527  12.339  16.550  0.00  0.00    +0.019 C 
ATOM     10  C   UNL     1      15.468  10.806  14.328  0.00  0.00    +0.085 C 
ATOM     11  C   UNL     1      17.154  12.336  15.155  0.00  0.00    +0.081 C 
ATOM     27  H   UNL     1      17.322  11.114  13.531  0.00  0.00    +0.122 HD
ENDROOT
BRANCH   8  12
ATOM     12  C   UNL     1      13.291  10.415  15.539  0.00  0.00    +0.064 C 
BRANCH  12  14
ATOM      2  O   UNL     1      11.654   7.716  17.271  0.00  0.00    -0.357 OA
ATOM      6  N   UNL     1      11.722   8.668  16.260  0.00  0.00    -0.083 NA
ATOM     14  C   UNL     1      12.879   9.304  16.461  0.00  0.00    +0.084 A 
ATOM     16  C   UNL     1      13.577   8.804  17.573  0.00  0.00    +0.073 A 
ATOM     17  C   UNL     1      12.765   7.808  18.047  0.00  0.00    +0.163 A 
BRANCH  17  19
ATOM     19  C   UNL     1      12.857   6.869  19.171  0.00  0.00    +0.236 C 
BRANCH  19   3
ATOM      3  O   UNL     1      14.205   6.790  19.643  0.00  0.00    -0.375 OA
ATOM     26  C   UNL     1      14.299   7.205  20.995  0.00  0.00    +0.194 C 
ENDBRANCH  19   3
ENDBRANCH  17  19
ENDBRANCH  12  14
ENDBRANCH   8  12
BRANCH   7  13
ATOM     13  C   UNL     1      14.237  13.260  16.005  0.00  0.00    +0.099 C 
BRANCH  13  15
ATOM      1  O   UNL     1      13.340  15.254  17.041  0.00  0.00    -0.276 OA
ATOM      5  N   UNL     1      13.429  13.276  18.259  0.00  0.00    -0.311 N 
ATOM     15  C   UNL     1      13.622  14.061  17.132  0.00  0.00    +0.214 C 
ATOM     28  H   UNL     1      13.714  12.301  18.240  0.00  0.00    +0.149 HD
BRANCH   5  18
ATOM     18  C   UNL     1      12.859  13.784  19.487  0.00  0.00    +0.139 C 
BRANCH  18  20
ATOM     20  C   UNL     1      12.354  12.681  20.370  0.00  0.00    -0.030 A 
ATOM     21  C   UNL     1      12.652  11.352  20.067  0.00  0.00    +0.005 A 
ATOM     22  C   UNL     1      11.585  12.984  21.494  0.00  0.00    +0.005 A 
ATOM     23  C   UNL     1      12.182  10.327  20.888  0.00  0.00    +0.000 A 
ATOM     24  C   UNL     1      11.116  11.958  22.315  0.00  0.00    +0.000 A 
ATOM     25  C   UNL     1      11.414  10.630  22.011  0.00  0.00    +0.000 A 
ENDBRANCH  18  20
ENDBRANCH   5  18
ENDBRANCH  13  15
ENDBRANCH   7  13
TORSDOF 8
ENDMDL
MODEL 7
REMARK VINA RESULT:      -5.8     26.422     28.557
REMARK  Name = 26743010
REMARK  9 active torsions:
REMARK  status: ('A' for Active; 'I' for Inactive)
REMARK    1  A    between atoms: O_3  and  C_19
REMARK    2  A    between atoms: O_3  and  C_26
REMARK    3  A    between atoms: N_5  and  C_18
REMARK    4  A    between atoms: C_7  and  C_13
REMARK    5  A    between atoms: C_8  and  C_12
REMARK    6  A    between atoms: C_12  and  C_14
REMARK    7  A    between atoms: C_13  and  C_15
REMARK    8  A    between atoms: C_17  and  C_19
REMARK    9  A    between atoms: C_18  and  C_20
REMARK                            x       y       z     vdW  Elec       q    Type
REMARK                         _______ _______ _______ _____ _____    ______ ____
ROOT
ATOM      4  N   UNL     1      -3.169 -13.891  11.094  0.00  0.00    -0.316 NA
ATOM      7  C   UNL     1      -3.258 -12.610  13.751  0.00  0.00    +0.004 C 
ATOM      8  C   UNL     1      -3.895 -11.973  12.493  0.00  0.00    +0.012 C 
ATOM      9  C   UNL     1      -3.172 -14.133  13.553  0.00  0.00    +0.019 C 
ATOM     10  C   UNL     1      -3.192 -12.432  11.205  0.00  0.00    +0.085 C 
ATOM     11  C   UNL     1      -2.499 -14.512  12.234  0.00  0.00    +0.081 C 
ATOM     27  H   UNL     1      -2.690 -14.157  10.235  0.00  0.00    +0.122 HD
ENDROOT
BRANCH   8  12
ATOM     12  C   UNL     1      -3.952 -10.446  12.559  0.00  0.00    +0.064 C 
BRANCH  12  14
ATOM      2  O   UNL     1      -7.331  -9.295  12.091  0.00  0.00    -0.357 OA
ATOM      6  N   UNL     1      -6.301  -9.797  12.876  0.00  0.00    -0.083 NA
ATOM     14  C   UNL     1      -5.262  -9.924  12.045  0.00  0.00    +0.084 A 
ATOM     16  C   UNL     1      -5.575  -9.521  10.735  0.00  0.00    +0.073 A 
ATOM     17  C   UNL     1      -6.886  -9.135  10.818  0.00  0.00    +0.163 A 
BRANCH  17  19
ATOM     19  C   UNL     1      -7.855  -8.609   9.847  0.00  0.00    +0.236 C 
BRANCH  19   3
ATOM      3  O   UNL     1      -7.174  -8.021   8.735  0.00  0.00    -0.375 OA
ATOM     26  C   UNL     1      -7.954  -6.998   8.140  0.00  0.00    +0.194 C 
ENDBRANCH  19   3
ENDBRANCH  17  19
ENDBRANCH  12  14
ENDBRANCH   8  12
BRANCH   7  13
ATOM     13  C   UNL     1      -1.887 -12.030  14.118  0.00  0.00    +0.099 C 
BRANCH  13  15
ATOM      1  O   UNL     1      -1.026 -10.522  15.802  0.00  0.00    -0.276 OA
ATOM      5  N   UNL     1      -3.049 -11.608  16.169  0.00  0.00    -0.311 N 
ATOM     15  C   UNL     1      -1.911 -11.294  15.440  0.00  0.00    +0.214 C 
ATOM     28  H   UNL     1      -3.714 -12.274  15.788  0.00  0.00    +0.149 HD
BRANCH   5  18
ATOM     18  C   UNL     1      -3.329 -11.049  17.472  0.00  0.00    +0.139 C 
BRANCH  18  20
ATOM     20  C   UNL     1      -4.753 -10.589  17.591  0.00  0.00    -0.030 A 
ATOM     21  C   UNL     1      -5.392 -10.006  16.497  0.00  0.00    +0.005 A 
ATOM     22  C   UNL     1      -5.438 -10.744  18.796  0.00  0.00    +0.005 A 
ATOM     23  C   UNL     1      -6.715  -9.578  16.607  0.00  0.00    +0.000 A 
ATOM     24  C   UNL     1      -6.761 -10.317  18.907  0.00  0.00    +0.000 A 
ATOM     25  C   UNL     1      -7.399  -9.733  17.812  0.00  0.00    +0.000 A 
ENDBRANCH  18  20
ENDBRANCH   5  18
ENDBRANCH  13  15
ENDBRANCH   7  13
TORSDOF 8
ENDMDL
MODEL 8
REMARK VINA RESULT:      -5.8      2.188      7.345
REMARK  Name = 26743010
REMARK  9 active torsions:
REMARK  status: ('A' for Active; 'I' for Inactive)
REMARK    1  A    between atoms: O_3  and  C_19
REMARK    2  A    between atoms: O_3  and  C_26
REMARK    3  A    between atoms: N_5  and  C_18
REMARK    4  A    between atoms: C_7  and  C_13
REMARK    5  A    between atoms: C_8  and  C_12
REMARK    6  A    between atoms: C_12  and  C_14
REMARK    7  A    between atoms: C_13  and  C_15
REMARK    8  A    between atoms: C_17  and  C_19
REMARK    9  A    between atoms: C_18  and  C_20
REMARK                            x       y       z     vdW  Elec       q    Type
REMARK                         _______ _______ _______ _____ _____    ______ ____
ROOT
ATOM      4  N   UNL     1      11.721   8.580  17.399  0.00  0.00    -0.316 NA
ATOM      7  C   UNL     1      14.360   8.516  18.718  0.00  0.00    +0.004 C 
ATOM      8  C   UNL     1      13.214   7.547  19.093  0.00  0.00    +0.012 C 
ATOM      9  C   UNL     1      14.151   9.005  17.274  0.00  0.00    +0.019 C 
ATOM     10  C   UNL     1      11.834   8.157  18.795  0.00  0.00    +0.085 C 
ATOM     11  C   UNL     1      12.746   9.559  17.043  0.00  0.00    +0.081 C 
ATOM     27  H   UNL     1      10.799   8.985  17.242  0.00  0.00    +0.122 HD
ENDROOT
BRANCH   8  12
ATOM     12  C   UNL     1      13.288   7.066  20.543  0.00  0.00    +0.064 C 
BRANCH  12  14
ATOM      2  O   UNL     1      10.504   8.141  22.558  0.00  0.00    -0.357 OA
ATOM      6  N   UNL     1      11.162   7.207  21.767  0.00  0.00    -0.083 NA
ATOM     14  C   UNL     1      12.307   7.797  21.413  0.00  0.00    +0.084 A 
ATOM     16  C   UNL     1      12.426   9.092  21.946  0.00  0.00    +0.073 A 
ATOM     17  C   UNL     1      11.267   9.260  22.656  0.00  0.00    +0.163 A 
BRANCH  17  19
ATOM     19  C   UNL     1      10.719  10.358  23.462  0.00  0.00    +0.236 C 
BRANCH  19   3
ATOM      3  O   UNL     1      11.757  11.269  23.833  0.00  0.00    -0.375 OA
ATOM     26  C   UNL     1      11.516  12.563  23.307  0.00  0.00    +0.194 C 
ENDBRANCH  19   3
ENDBRANCH  17  19
ENDBRANCH  12  14
ENDBRANCH   8  12
BRANCH   7  13
ATOM     13  C   UNL     1      14.514   9.702  19.677  0.00  0.00    +0.099 C 
BRANCH  13  15
ATOM      1  O   UNL     1      16.618  10.838  20.049  0.00  0.00    -0.276 OA
ATOM      5  N   UNL     1      16.322   8.684  20.873  0.00  0.00    -0.311 N 
ATOM     15  C   UNL     1      15.926   9.834  20.204  0.00  0.00    +0.214 C 
ATOM     28  H   UNL     1      15.681   7.899  20.931  0.00  0.00    +0.149 HD
BRANCH   5  18
ATOM     18  C   UNL     1      17.626   8.532  21.477  0.00  0.00    +0.139 C 
BRANCH  18  20
ATOM     20  C   UNL     1      18.333   7.304  20.985  0.00  0.00    -0.030 A 
ATOM     21  C   UNL     1      19.582   6.962  21.506  0.00  0.00    +0.005 A 
ATOM     22  C   UNL     1      17.744   6.504  20.006  0.00  0.00    +0.005 A 
ATOM     23  C   UNL     1      20.240   5.820  21.048  0.00  0.00    +0.000 A 
ATOM     24  C   UNL     1      18.402   5.361  19.549  0.00  0.00    +0.000 A 
ATOM     25  C   UNL     1      19.649   5.021  20.070  0.00  0.00    +0.000 A 
ENDBRANCH  18  20
ENDBRANCH   5  18
ENDBRANCH  13  15
ENDBRANCH   7  13
TORSDOF 8
ENDMDL
MODEL 9
REMARK VINA RESULT:      -5.8     30.685     32.376
REMARK  Name = 26743010
REMARK  9 active torsions:
REMARK  status: ('A' for Active; 'I' for Inactive)
REMARK    1  A    between atoms: O_3  and  C_19
REMARK    2  A    between atoms: O_3  and  C_26
REMARK    3  A    between atoms: N_5  and  C_18
REMARK    4  A    between atoms: C_7  and  C_13
REMARK    5  A    between atoms: C_8  and  C_12
REMARK    6  A    between atoms: C_12  and  C_14
REMARK    7  A    between atoms: C_13  and  C_15
REMARK    8  A    between atoms: C_17  and  C_19
REMARK    9  A    between atoms: C_18  and  C_20
REMARK                            x       y       z     vdW  Elec       q    Type
REMARK                         _______ _______ _______ _____ _____    ______ ____
ROOT
ATOM      4  N   UNL     1     -14.471   9.243  32.508  0.00  0.00    -0.316 NA
ATOM      7  C   UNL     1     -14.685   6.300  32.476  0.00  0.00    +0.004 C 
ATOM      8  C   UNL     1     -15.528   7.210  31.552  0.00  0.00    +0.012 C 
ATOM      9  C   UNL     1     -13.403   7.047  32.882  0.00  0.00    +0.019 C 
ATOM     10  C   UNL     1     -15.742   8.603  32.167  0.00  0.00    +0.085 C 
ATOM     11  C   UNL     1     -13.692   8.438  33.446  0.00  0.00    +0.081 C 
ATOM     27  H   UNL     1     -14.654  10.157  32.920  0.00  0.00    +0.122 HD
ENDROOT
BRANCH   8  12
ATOM     12  C   UNL     1     -16.867   6.585  31.156  0.00  0.00    +0.064 C 
BRANCH  12  14
ATOM      2  O   UNL     1     -16.861   5.210  27.829  0.00  0.00    -0.357 OA
ATOM      6  N   UNL     1     -17.119   6.228  28.739  0.00  0.00    -0.083 NA
ATOM     14  C   UNL     1     -16.734   5.741  29.922  0.00  0.00    +0.084 A 
ATOM     16  C   UNL     1     -16.231   4.433  29.822  0.00  0.00    +0.073 A 
ATOM     17  C   UNL     1     -16.333   4.146  28.487  0.00  0.00    +0.163 A 
BRANCH  17  19
ATOM     19  C   UNL     1     -15.998   2.972  27.671  0.00  0.00    +0.236 C 
BRANCH  19   3
ATOM      3  O   UNL     1     -17.117   2.084  27.596  0.00  0.00    -0.375 OA
ATOM     26  C   UNL     1     -16.888   1.049  26.655  0.00  0.00    +0.194 C 
ENDBRANCH  19   3
ENDBRANCH  17  19
ENDBRANCH  12  14
ENDBRANCH   8  12
BRANCH   7  13
ATOM     13  C   UNL     1     -15.437   5.798  33.714  0.00  0.00    +0.099 C 
BRANCH  13  15
ATOM      1  O   UNL     1     -16.902   3.897  33.417  0.00  0.00    -0.276 OA
ATOM      5  N   UNL     1     -14.639   3.543  33.811  0.00  0.00    -0.311 N 
ATOM     15  C   UNL     1     -15.770   4.325  33.626  0.00  0.00    +0.214 C 
ATOM     28  H   UNL     1     -13.748   3.994  33.996  0.00  0.00    +0.149 HD
BRANCH   5  18
ATOM     18  C   UNL     1     -14.665   2.098  33.780  0.00  0.00    +0.139 C 
BRANCH  18  20
ATOM     20  C   UNL     1     -14.455   1.563  32.393  0.00  0.00    -0.030 A 
ATOM     21  C   UNL     1     -14.958   0.309  32.046  0.00  0.00    +0.005 A 
ATOM     22  C   UNL     1     -13.757   2.319  31.452  0.00  0.00    +0.005 A 
ATOM     23  C   UNL     1     -14.763  -0.189  30.757  0.00  0.00    +0.000 A 
ATOM     24  C   UNL     1     -13.562   1.821  30.163  0.00  0.00    +0.000 A 
ATOM     25  C   UNL     1     -14.065   0.567  29.817  0.00  0.00    +0.000 A 
ENDBRANCH  18  20
ENDBRANCH   5  18
ENDBRANCH  13  15
ENDBRANCH   7  13
TORSDOF 8
ENDMDL
MODEL 10
REMARK VINA RESULT:      -5.7      4.155     11.705
REMARK  Name = 26743010
REMARK  9 active torsions:
REMARK  status: ('A' for Active; 'I' for Inactive)
REMARK    1  A    between atoms: O_3  and  C_19
REMARK    2  A    between atoms: O_3  and  C_26
REMARK    3  A    between atoms: N_5  and  C_18
REMARK    4  A    between atoms: C_7  and  C_13
REMARK    5  A    between atoms: C_8  and  C_12
REMARK    6  A    between atoms: C_12  and  C_14
REMARK    7  A    between atoms: C_13  and  C_15
REMARK    8  A    between atoms: C_17  and  C_19
REMARK    9  A    between atoms: C_18  and  C_20
REMARK                            x       y       z     vdW  Elec       q    Type
REMARK                         _______ _______ _______ _____ _____    ______ ____
ROOT
ATOM      4  N   UNL     1      21.201   9.283  21.539  0.00  0.00    -0.316 NA
ATOM      7  C   UNL     1      21.530   6.555  20.462  0.00  0.00    +0.004 C 
ATOM      8  C   UNL     1      20.145   7.171  20.770  0.00  0.00    +0.012 C 
ATOM      9  C   UNL     1      22.538   7.688  20.207  0.00  0.00    +0.019 C 
ATOM     10  C   UNL     1      20.230   8.240  21.872  0.00  0.00    +0.085 C 
ATOM     11  C   UNL     1      22.537   8.732  21.324  0.00  0.00    +0.081 C 
ATOM     27  H   UNL     1      21.235   9.966  22.295  0.00  0.00    +0.122 HD
ENDROOT
BRANCH   8  12
ATOM     12  C   UNL     1      19.087   6.123  21.117  0.00  0.00    +0.064 C 
BRANCH  12  14
ATOM      2  O   UNL     1      16.579   5.819  18.552  0.00  0.00    -0.357 OA
ATOM      6  N   UNL     1      17.788   5.464  19.139  0.00  0.00    -0.083 NA
ATOM     14  C   UNL     1      17.887   6.238  20.223  0.00  0.00    +0.084 A 
ATOM     16  C   UNL     1      16.782   7.094  20.370  0.00  0.00    +0.073 A 
ATOM     17  C   UNL     1      15.990   6.791  19.294  0.00  0.00    +0.163 A 
BRANCH  17  19
ATOM     19  C   UNL     1      14.695   7.287  18.813  0.00  0.00    +0.236 C 
BRANCH  19   3
ATOM      3  O   UNL     1      13.635   6.782  19.630  0.00  0.00    -0.375 OA
ATOM     26  C   UNL     1      12.804   7.830  20.098  0.00  0.00    +0.194 C 
ENDBRANCH  19   3
ENDBRANCH  17  19
ENDBRANCH  12  14
ENDBRANCH   8  12
BRANCH   7  13
ATOM     13  C   UNL     1      22.045   5.603  21.548  0.00  0.00    +0.099 C 
BRANCH  13  15
ATOM      1  O   UNL     1      21.574   3.281  21.060  0.00  0.00    -0.276 OA
ATOM      5  N   UNL     1      23.626   4.184  20.445  0.00  0.00    -0.311 N 
ATOM     15  C   UNL     1      22.357   4.226  21.004  0.00  0.00    +0.214 C 
ATOM     28  H   UNL     1      24.206   5.018  20.464  0.00  0.00    +0.149 HD
BRANCH   5  18
ATOM     18  C   UNL     1      24.187   2.991  19.850  0.00  0.00    +0.139 C 
BRANCH  18  20
ATOM     20  C   UNL     1      25.058   2.239  20.814  0.00  0.00    -0.030 A 
ATOM     21  C   UNL     1      26.340   2.705  21.104  0.00  0.00    +0.005 A 
ATOM     22  C   UNL     1      24.586   1.075  21.419  0.00  0.00    +0.005 A 
ATOM     23  C   UNL     1      27.150   2.006  22.000  0.00  0.00    +0.000 A 
ATOM     24  C   UNL     1      25.395   0.376  22.315  0.00  0.00    +0.000 A 
ATOM     25  C   UNL     1      26.677   0.842  22.604  0.00  0.00    +0.000 A 
ENDBRANCH  18  20
ENDBRANCH   5  18
ENDBRANCH  13  15
ENDBRANCH   7  13
TORSDOF 8
ENDMDL
