MODEL 1
REMARK VINA RESULT:      -6.5      0.000      0.000
REMARK  Name = 11941648
REMARK  5 active torsions:
REMARK  status: ('A' for Active; 'I' for Inactive)
REMARK    1  A    between atoms: N_5  and  C_12
REMARK    2  A    between atoms: N_6  and  C_13
REMARK    3  A    between atoms: N_7  and  C_19
REMARK    4  A    between atoms: C_18  and  C_22
REMARK    5  A    between atoms: C_19  and  C_23
REMARK                            x       y       z     vdW  Elec       q    Type
REMARK                         _______ _______ _______ _____ _____    ______ ____
ROOT
ATOM      1  O   UNL     1      10.920  12.943  23.681  0.00  0.00    -0.370 OA
ATOM      2  O   UNL     1      13.897  12.037  23.452  0.00  0.00    -0.370 OA
ATOM     10  C   UNL     1      12.672  11.332  23.713  0.00  0.00    +0.171 C 
ATOM     11  C   UNL     1      11.806  12.238  24.567  0.00  0.00    +0.171 C 
ATOM     12  C   UNL     1      11.883  11.163  22.436  0.00  0.00    +0.130 C 
ATOM     13  C   UNL     1      12.788  13.196  25.200  0.00  0.00    +0.131 C 
ATOM     14  C   UNL     1      11.120  12.471  22.340  0.00  0.00    +0.185 C 
ATOM     15  C   UNL     1      13.873  13.295  24.143  0.00  0.00    +0.185 C 
ENDROOT
BRANCH  12   5
ATOM      5  N   UNL     1      10.961  10.055  22.567  0.00  0.00    -0.306 N 
ATOM      8  N   UNL     1      12.439   8.560  21.523  0.00  0.00    -0.211 NA
ATOM      9  N   UNL     1      10.281   7.826  22.307  0.00  0.00    -0.223 NA
ATOM     16  C   UNL     1      11.235   8.775  22.119  0.00  0.00    +0.216 A 
ATOM     18  C   UNL     1      12.672   7.301  21.099  0.00  0.00    +0.111 A 
ATOM     20  C   UNL     1      10.582   6.588  21.858  0.00  0.00    +0.116 A 
ATOM     21  C   UNL     1      11.772   6.265  21.241  0.00  0.00    +0.051 A 
ATOM     28  H   UNL     1      10.085  10.192  23.056  0.00  0.00    +0.149 HD
BRANCH  18  22
ATOM      4  O   UNL     1      13.993   7.370  19.142  0.00  0.00    -0.461 OA
ATOM     22  C   UNL     1      13.952   7.104  20.472  0.00  0.00    +0.153 A 
ATOM     24  C   UNL     1      15.183   6.696  20.926  0.00  0.00    +0.051 A 
ATOM     25  C   UNL     1      16.039   6.711  19.799  0.00  0.00    +0.042 A 
ATOM     27  C   UNL     1      15.268   7.128  18.738  0.00  0.00    +0.196 A 
ENDBRANCH  18  22
ENDBRANCH  12   5
BRANCH  13   6
ATOM      3  O   UNL     1      13.924  14.695  27.391  0.00  0.00    -0.253 OA
ATOM      6  N   UNL     1      13.309  12.668  26.438  0.00  0.00    -0.292 N 
ATOM      7  N   UNL     1      14.271  12.702  28.528  0.00  0.00    -0.296 N 
ATOM     17  C   UNL     1      13.843  13.468  27.446  0.00  0.00    +0.300 C 
ATOM     29  H   UNL     1      13.227  11.671  26.611  0.00  0.00    +0.151 HD
ATOM     30  H   UNL     1      14.145  11.695  28.493  0.00  0.00    +0.151 HD
BRANCH   7  19
ATOM     19  C   UNL     1      14.865  13.280  29.710  0.00  0.00    +0.132 C 
BRANCH  19  23
ATOM     23  C   UNL     1      13.917  13.132  30.854  0.00  0.00    -0.016 C 
ATOM     26  C   UNL     1      12.999  14.047  31.186  0.00  0.00    +0.005 C 
ENDBRANCH  19  23
ENDBRANCH   7  19
ENDBRANCH  13   6
TORSDOF 5
ENDMDL
MODEL 2
REMARK VINA RESULT:      -6.5     27.188     29.727
REMARK  Name = 11941648
REMARK  5 active torsions:
REMARK  status: ('A' for Active; 'I' for Inactive)
REMARK    1  A    between atoms: N_5  and  C_12
REMARK    2  A    between atoms: N_6  and  C_13
REMARK    3  A    between atoms: N_7  and  C_19
REMARK    4  A    between atoms: C_18  and  C_22
REMARK    5  A    between atoms: C_19  and  C_23
REMARK                            x       y       z     vdW  Elec       q    Type
REMARK                         _______ _______ _______ _____ _____    ______ ____
ROOT
ATOM      1  O   UNL     1      -5.949 -11.549  19.241  0.00  0.00    -0.370 OA
ATOM      2  O   UNL     1      -7.106 -11.733  16.349  0.00  0.00    -0.370 OA
ATOM     10  C   UNL     1      -5.951 -11.084  16.907  0.00  0.00    +0.171 C 
ATOM     11  C   UNL     1      -6.346 -10.562  18.275  0.00  0.00    +0.171 C 
ATOM     12  C   UNL     1      -4.870 -12.098  17.197  0.00  0.00    +0.130 C 
ATOM     13  C   UNL     1      -7.853 -10.466  18.211  0.00  0.00    +0.131 C 
ATOM     14  C   UNL     1      -5.255 -12.613  18.571  0.00  0.00    +0.185 C 
ATOM     15  C   UNL     1      -8.210 -11.590  17.255  0.00  0.00    +0.185 C 
ENDROOT
BRANCH  12   5
ATOM      5  N   UNL     1      -3.580 -11.444  17.252  0.00  0.00    -0.306 N 
ATOM      8  N   UNL     1      -3.491 -11.184  14.921  0.00  0.00    -0.211 NA
ATOM      9  N   UNL     1      -1.698 -10.394  16.325  0.00  0.00    -0.223 NA
ATOM     16  C   UNL     1      -2.903 -10.994  16.132  0.00  0.00    +0.216 A 
ATOM     18  C   UNL     1      -2.802 -10.731  13.852  0.00  0.00    +0.111 A 
ATOM     20  C   UNL     1      -1.065  -9.967  15.212  0.00  0.00    +0.116 A 
ATOM     21  C   UNL     1      -1.574 -10.110  13.938  0.00  0.00    +0.051 A 
ATOM     28  H   UNL     1      -3.157 -11.250  18.152  0.00  0.00    +0.149 HD
BRANCH  18  22
ATOM      4  O   UNL     1      -4.581 -10.228  12.382  0.00  0.00    -0.461 OA
ATOM     22  C   UNL     1      -3.449 -10.947  12.585  0.00  0.00    +0.153 A 
ATOM     24  C   UNL     1      -3.174 -11.740  11.498  0.00  0.00    +0.051 A 
ATOM     25  C   UNL     1      -4.207 -11.493  10.563  0.00  0.00    +0.042 A 
ATOM     27  C   UNL     1      -5.038 -10.566  11.147  0.00  0.00    +0.196 A 
ENDBRANCH  18  22
ENDBRANCH  12   5
BRANCH  13   6
ATOM      3  O   UNL     1     -10.562  -9.523  17.889  0.00  0.00    -0.253 OA
ATOM      6  N   UNL     1      -8.273  -9.186  17.694  0.00  0.00    -0.292 N 
ATOM      7  N   UNL     1      -9.731  -7.528  17.046  0.00  0.00    -0.296 N 
ATOM     17  C   UNL     1      -9.609  -8.812  17.572  0.00  0.00    +0.300 C 
ATOM     29  H   UNL     1      -7.561  -8.499  17.466  0.00  0.00    +0.151 HD
ATOM     30  H   UNL     1      -8.885  -7.006  16.831  0.00  0.00    +0.151 HD
BRANCH   7  19
ATOM     19  C   UNL     1     -11.007  -6.893  16.815  0.00  0.00    +0.132 C 
BRANCH  19  23
ATOM     23  C   UNL     1     -10.910  -6.032  15.601  0.00  0.00    -0.016 C 
ATOM     26  C   UNL     1     -11.941  -5.766  14.790  0.00  0.00    +0.005 C 
ENDBRANCH  19  23
ENDBRANCH   7  19
ENDBRANCH  13   6
TORSDOF 5
ENDMDL
MODEL 3
REMARK VINA RESULT:      -6.3      4.865      7.662
REMARK  Name = 11941648
REMARK  5 active torsions:
REMARK  status: ('A' for Active; 'I' for Inactive)
REMARK    1  A    between atoms: N_5  and  C_12
REMARK    2  A    between atoms: N_6  and  C_13
REMARK    3  A    between atoms: N_7  and  C_19
REMARK    4  A    between atoms: C_18  and  C_22
REMARK    5  A    between atoms: C_19  and  C_23
REMARK                            x       y       z     vdW  Elec       q    Type
REMARK                         _______ _______ _______ _____ _____    ______ ____
ROOT
ATOM      1  O   UNL     1      15.164   6.370  20.654  0.00  0.00    -0.370 OA
ATOM      2  O   UNL     1      15.901   9.393  20.422  0.00  0.00    -0.370 OA
ATOM     10  C   UNL     1      16.292   8.352  21.333  0.00  0.00    +0.171 C 
ATOM     11  C   UNL     1      15.075   7.478  21.566  0.00  0.00    +0.171 C 
ATOM     12  C   UNL     1      17.290   7.428  20.676  0.00  0.00    +0.130 C 
ATOM     13  C   UNL     1      13.908   8.366  21.201  0.00  0.00    +0.131 C 
ATOM     14  C   UNL     1      16.400   6.452  19.929  0.00  0.00    +0.185 C 
ATOM     15  C   UNL     1      14.502   9.258  20.126  0.00  0.00    +0.185 C 
ENDROOT
BRANCH  12   5
ATOM      5  N   UNL     1      18.060   6.733  21.685  0.00  0.00    -0.306 N 
ATOM      8  N   UNL     1      20.034   7.868  21.118  0.00  0.00    -0.211 NA
ATOM      9  N   UNL     1      20.011   6.229  22.885  0.00  0.00    -0.223 NA
ATOM     16  C   UNL     1      19.409   6.950  21.902  0.00  0.00    +0.216 A 
ATOM     18  C   UNL     1      21.349   8.054  21.358  0.00  0.00    +0.111 A 
ATOM     20  C   UNL     1      21.327   6.466  23.071  0.00  0.00    +0.116 A 
ATOM     21  C   UNL     1      22.054   7.375  22.330  0.00  0.00    +0.051 A 
ATOM     28  H   UNL     1      17.593   6.086  22.309  0.00  0.00    +0.149 HD
BRANCH  18  22
ATOM      4  O   UNL     1      22.783   8.523  19.541  0.00  0.00    -0.461 OA
ATOM     22  C   UNL     1      21.983   9.030  20.512  0.00  0.00    +0.153 A 
ATOM     24  C   UNL     1      21.964  10.402  20.461  0.00  0.00    +0.051 A 
ATOM     25  C   UNL     1      22.810  10.764  19.385  0.00  0.00    +0.042 A 
ATOM     27  C   UNL     1      23.283   9.585  18.858  0.00  0.00    +0.196 A 
ENDBRANCH  18  22
ENDBRANCH  12   5
BRANCH  13   6
ATOM      3  O   UNL     1      11.369   9.704  21.512  0.00  0.00    -0.253 OA
ATOM      6  N   UNL     1      13.465   9.139  22.336  0.00  0.00    -0.292 N 
ATOM      7  N   UNL     1      12.050  10.433  23.607  0.00  0.00    -0.296 N 
ATOM     17  C   UNL     1      12.217   9.755  22.402  0.00  0.00    +0.300 C 
ATOM     29  H   UNL     1      14.066   9.186  23.154  0.00  0.00    +0.151 HD
ATOM     30  H   UNL     1      12.799  10.403  24.293  0.00  0.00    +0.151 HD
BRANCH   7  19
ATOM     19  C   UNL     1      10.846  11.159  23.936  0.00  0.00    +0.132 C 
BRANCH  19  23
ATOM     23  C   UNL     1      11.042  11.865  25.236  0.00  0.00    -0.016 C 
ATOM     26  C   UNL     1      10.653  13.124  25.468  0.00  0.00    +0.005 C 
ENDBRANCH  19  23
ENDBRANCH   7  19
ENDBRANCH  13   6
TORSDOF 5
ENDMDL
MODEL 4
REMARK VINA RESULT:      -6.2     29.431     31.743
REMARK  Name = 11941648
REMARK  5 active torsions:
REMARK  status: ('A' for Active; 'I' for Inactive)
REMARK    1  A    between atoms: N_5  and  C_12
REMARK    2  A    between atoms: N_6  and  C_13
REMARK    3  A    between atoms: N_7  and  C_19
REMARK    4  A    between atoms: C_18  and  C_22
REMARK    5  A    between atoms: C_19  and  C_23
REMARK                            x       y       z     vdW  Elec       q    Type
REMARK                         _______ _______ _______ _____ _____    ______ ____
ROOT
ATOM      1  O   UNL     1     -10.994  -5.993  16.336  0.00  0.00    -0.370 OA
ATOM      2  O   UNL     1     -12.465  -8.279  14.805  0.00  0.00    -0.370 OA
ATOM     10  C   UNL     1     -11.090  -7.868  14.874  0.00  0.00    +0.171 C 
ATOM     11  C   UNL     1     -11.076  -6.353  14.947  0.00  0.00    +0.171 C 
ATOM     12  C   UNL     1     -10.478  -8.307  16.184  0.00  0.00    +0.130 C 
ATOM     13  C   UNL     1     -12.415  -5.946  14.376  0.00  0.00    +0.131 C 
ATOM     14  C   UNL     1     -10.870  -7.185  17.127  0.00  0.00    +0.185 C 
ATOM     15  C   UNL     1     -13.303  -7.114  14.763  0.00  0.00    +0.185 C 
ENDROOT
BRANCH  12   5
ATOM      5  N   UNL     1      -9.038  -8.376  16.059  0.00  0.00    -0.306 N 
ATOM      8  N   UNL     1      -8.880 -10.148  17.589  0.00  0.00    -0.211 NA
ATOM      9  N   UNL     1      -6.910  -9.240  16.538  0.00  0.00    -0.223 NA
ATOM     16  C   UNL     1      -8.253  -9.281  16.750  0.00  0.00    +0.216 A 
ATOM     18  C   UNL     1      -8.083 -11.017  18.246  0.00  0.00    +0.111 A 
ATOM     20  C   UNL     1      -6.175 -10.137  17.228  0.00  0.00    +0.116 A 
ATOM     21  C   UNL     1      -6.712 -11.058  18.103  0.00  0.00    +0.051 A 
ATOM     28  H   UNL     1      -8.566  -7.771  15.397  0.00  0.00    +0.149 HD
BRANCH  18  22
ATOM      4  O   UNL     1      -9.967 -11.471  19.597  0.00  0.00    -0.461 OA
ATOM     22  C   UNL     1      -8.775 -11.919  19.128  0.00  0.00    +0.153 A 
ATOM     24  C   UNL     1      -8.497 -13.171  19.619  0.00  0.00    +0.051 A 
ATOM     25  C   UNL     1      -9.591 -13.517  20.448  0.00  0.00    +0.042 A 
ATOM     27  C   UNL     1     -10.459 -12.450  20.401  0.00  0.00    +0.196 A 
ENDBRANCH  18  22
ENDBRANCH  12   5
BRANCH  13   6
ATOM      3  O   UNL     1     -12.411  -3.472  12.887  0.00  0.00    -0.253 OA
ATOM      6  N   UNL     1     -12.346  -5.793  12.942  0.00  0.00    -0.292 N 
ATOM      7  N   UNL     1     -12.275  -4.697  10.921  0.00  0.00    -0.296 N 
ATOM     17  C   UNL     1     -12.350  -4.555  12.305  0.00  0.00    +0.300 C 
ATOM     29  H   UNL     1     -12.226  -6.625  12.372  0.00  0.00    +0.151 HD
ATOM     30  H   UNL     1     -12.209  -5.631  10.529  0.00  0.00    +0.151 HD
BRANCH   7  19
ATOM     19  C   UNL     1     -12.263  -3.570  10.018  0.00  0.00    +0.132 C 
BRANCH  19  23
ATOM     23  C   UNL     1     -10.974  -3.562   9.266  0.00  0.00    -0.016 C 
ATOM     26  C   UNL     1     -10.304  -4.668   8.921  0.00  0.00    +0.005 C 
ENDBRANCH  19  23
ENDBRANCH   7  19
ENDBRANCH  13   6
TORSDOF 5
ENDMDL
MODEL 5
REMARK VINA RESULT:      -6.2      6.166      9.726
REMARK  Name = 11941648
REMARK  5 active torsions:
REMARK  status: ('A' for Active; 'I' for Inactive)
REMARK    1  A    between atoms: N_5  and  C_12
REMARK    2  A    between atoms: N_6  and  C_13
REMARK    3  A    between atoms: N_7  and  C_19
REMARK    4  A    between atoms: C_18  and  C_22
REMARK    5  A    between atoms: C_19  and  C_23
REMARK                            x       y       z     vdW  Elec       q    Type
REMARK                         _______ _______ _______ _____ _____    ______ ____
ROOT
ATOM      1  O   UNL     1      19.585   8.226  22.759  0.00  0.00    -0.370 OA
ATOM      2  O   UNL     1      19.936   6.557  20.147  0.00  0.00    -0.370 OA
ATOM     10  C   UNL     1      18.953   6.548  21.195  0.00  0.00    +0.171 C 
ATOM     11  C   UNL     1      19.682   6.816  22.498  0.00  0.00    +0.171 C 
ATOM     12  C   UNL     1      18.017   7.724  21.047  0.00  0.00    +0.130 C 
ATOM     13  C   UNL     1      21.114   6.434  22.202  0.00  0.00    +0.131 C 
ATOM     14  C   UNL     1      18.769   8.839  21.749  0.00  0.00    +0.185 C 
ATOM     15  C   UNL     1      21.236   6.749  20.723  0.00  0.00    +0.185 C 
ENDROOT
BRANCH  12   5
ATOM      5  N   UNL     1      16.770   7.455  21.729  0.00  0.00    -0.306 N 
ATOM      8  N   UNL     1      15.487   8.210  19.914  0.00  0.00    -0.211 NA
ATOM      9  N   UNL     1      14.433   7.392  21.921  0.00  0.00    -0.223 NA
ATOM     16  C   UNL     1      15.526   7.693  21.171  0.00  0.00    +0.216 A 
ATOM     18  C   UNL     1      14.258   8.429  19.402  0.00  0.00    +0.111 A 
ATOM     20  C   UNL     1      13.236   7.637  21.347  0.00  0.00    +0.116 A 
ATOM     21  C   UNL     1      13.087   8.159  20.079  0.00  0.00    +0.051 A 
ATOM     28  H   UNL     1      16.787   7.021  22.644  0.00  0.00    +0.149 HD
BRANCH  18  22
ATOM      4  O   UNL     1      13.923   8.103  17.087  0.00  0.00    -0.461 OA
ATOM     22  C   UNL     1      14.249   8.978  18.072  0.00  0.00    +0.153 A 
ATOM     24  C   UNL     1      14.503  10.224  17.554  0.00  0.00    +0.051 A 
ATOM     25  C   UNL     1      14.322  10.109  16.155  0.00  0.00    +0.042 A 
ATOM     27  C   UNL     1      13.969   8.800  15.921  0.00  0.00    +0.196 A 
ENDBRANCH  18  22
ENDBRANCH  12   5
BRANCH  13   6
ATOM      3  O   UNL     1      23.659   5.134  22.612  0.00  0.00    -0.253 OA
ATOM      6  N   UNL     1      21.344   5.032  22.461  0.00  0.00    -0.292 N 
ATOM      7  N   UNL     1      22.546   3.116  22.878  0.00  0.00    -0.296 N 
ATOM     17  C   UNL     1      22.612   4.487  22.646  0.00  0.00    +0.300 C 
ATOM     29  H   UNL     1      20.539   4.423  22.575  0.00  0.00    +0.151 HD
ATOM     30  H   UNL     1      21.634   2.669  22.908  0.00  0.00    +0.151 HD
BRANCH   7  19
ATOM     19  C   UNL     1      23.717   2.302  23.102  0.00  0.00    +0.132 C 
BRANCH  19  23
ATOM     23  C   UNL     1      23.984   1.485  21.882  0.00  0.00    -0.016 C 
ATOM     26  C   UNL     1      24.436   1.992  20.729  0.00  0.00    +0.005 C 
ENDBRANCH  19  23
ENDBRANCH   7  19
ENDBRANCH  13   6
TORSDOF 5
ENDMDL
MODEL 6
REMARK VINA RESULT:      -6.2     27.792     31.623
REMARK  Name = 11941648
REMARK  5 active torsions:
REMARK  status: ('A' for Active; 'I' for Inactive)
REMARK    1  A    between atoms: N_5  and  C_12
REMARK    2  A    between atoms: N_6  and  C_13
REMARK    3  A    between atoms: N_7  and  C_19
REMARK    4  A    between atoms: C_18  and  C_22
REMARK    5  A    between atoms: C_19  and  C_23
REMARK                            x       y       z     vdW  Elec       q    Type
REMARK                         _______ _______ _______ _____ _____    ______ ____
ROOT
ATOM      1  O   UNL     1      -4.446  -8.982  10.036  0.00  0.00    -0.370 OA
ATOM      2  O   UNL     1      -5.956 -11.712  10.038  0.00  0.00    -0.370 OA
ATOM     10  C   UNL     1      -4.615 -11.329  10.387  0.00  0.00    +0.171 C 
ATOM     11  C   UNL     1      -4.187 -10.250   9.411  0.00  0.00    +0.171 C 
ATOM     12  C   UNL     1      -4.600 -10.638  11.731  0.00  0.00    +0.130 C 
ATOM     13  C   UNL     1      -5.100 -10.447   8.223  0.00  0.00    +0.131 C 
ATOM     14  C   UNL     1      -4.927  -9.201  11.370  0.00  0.00    +0.185 C 
ATOM     15  C   UNL     1      -6.362 -10.987   8.868  0.00  0.00    +0.185 C 
ENDROOT
BRANCH  12   5
ATOM      5  N   UNL     1      -3.279 -10.720  12.315  0.00  0.00    -0.306 N 
ATOM      8  N   UNL     1      -4.117 -10.556  14.501  0.00  0.00    -0.211 NA
ATOM      9  N   UNL     1      -1.751 -10.769  14.094  0.00  0.00    -0.223 NA
ATOM     16  C   UNL     1      -3.042 -10.680  13.678  0.00  0.00    +0.216 A 
ATOM     18  C   UNL     1      -3.848 -10.521  15.824  0.00  0.00    +0.111 A 
ATOM     20  C   UNL     1      -1.556 -10.728  15.429  0.00  0.00    +0.116 A 
ATOM     21  C   UNL     1      -2.576 -10.603  16.350  0.00  0.00    +0.051 A 
ATOM     28  H   UNL     1      -2.477 -10.866  11.715  0.00  0.00    +0.149 HD
BRANCH  18  22
ATOM      4  O   UNL     1      -6.004  -9.620  16.167  0.00  0.00    -0.461 OA
ATOM     22  C   UNL     1      -5.005 -10.387  16.669  0.00  0.00    +0.153 A 
ATOM     24  C   UNL     1      -5.340 -10.874  17.909  0.00  0.00    +0.051 A 
ATOM     25  C   UNL     1      -6.633 -10.372  18.189  0.00  0.00    +0.042 A 
ATOM     27  C   UNL     1      -6.994  -9.615  17.099  0.00  0.00    +0.196 A 
ENDBRANCH  18  22
ENDBRANCH  12   5
BRANCH  13   6
ATOM      3  O   UNL     1      -5.619 -10.607   5.387  0.00  0.00    -0.253 OA
ATOM      6  N   UNL     1      -4.542 -11.395   7.288  0.00  0.00    -0.292 N 
ATOM      7  N   UNL     1      -4.175 -12.419   5.261  0.00  0.00    -0.296 N 
ATOM     17  C   UNL     1      -4.851 -11.401   5.930  0.00  0.00    +0.300 C 
ATOM     29  H   UNL     1      -3.844 -12.052   7.624  0.00  0.00    +0.151 HD
ATOM     30  H   UNL     1      -3.544 -13.015   5.789  0.00  0.00    +0.151 HD
BRANCH   7  19
ATOM     19  C   UNL     1      -4.314 -12.650   3.842  0.00  0.00    +0.132 C 
BRANCH  19  23
ATOM     23  C   UNL     1      -2.990 -12.448   3.184  0.00  0.00    -0.016 C 
ATOM     26  C   UNL     1      -2.090 -13.422   3.003  0.00  0.00    +0.005 C 
ENDBRANCH  19  23
ENDBRANCH   7  19
ENDBRANCH  13   6
TORSDOF 5
ENDMDL
MODEL 7
REMARK VINA RESULT:      -6.1     17.781     21.168
REMARK  Name = 11941648
REMARK  5 active torsions:
REMARK  status: ('A' for Active; 'I' for Inactive)
REMARK    1  A    between atoms: N_5  and  C_12
REMARK    2  A    between atoms: N_6  and  C_13
REMARK    3  A    between atoms: N_7  and  C_19
REMARK    4  A    between atoms: C_18  and  C_22
REMARK    5  A    between atoms: C_19  and  C_23
REMARK                            x       y       z     vdW  Elec       q    Type
REMARK                         _______ _______ _______ _____ _____    ______ ____
ROOT
ATOM      1  O   UNL     1      -0.425  11.009  38.246  0.00  0.00    -0.370 OA
ATOM      2  O   UNL     1      -2.688  10.507  36.158  0.00  0.00    -0.370 OA
ATOM     10  C   UNL     1      -1.511   9.770  36.529  0.00  0.00    +0.171 C 
ATOM     11  C   UNL     1      -0.422  10.783  36.827  0.00  0.00    +0.171 C 
ATOM     12  C   UNL     1      -1.729   9.065  37.847  0.00  0.00    +0.130 C 
ATOM     13  C   UNL     1      -0.867  12.027  36.095  0.00  0.00    +0.131 C 
ATOM     14  C   UNL     1      -1.387  10.139  38.862  0.00  0.00    +0.185 C 
ATOM     15  C   UNL     1      -2.379  11.909  36.143  0.00  0.00    +0.185 C 
ENDROOT
BRANCH  12   5
ATOM      5  N   UNL     1      -0.814   7.951  37.970  0.00  0.00    -0.306 N 
ATOM      8  N   UNL     1      -2.087   6.949  39.668  0.00  0.00    -0.211 NA
ATOM      9  N   UNL     1      -0.055   5.925  38.875  0.00  0.00    -0.223 NA
ATOM     16  C   UNL     1      -0.991   6.910  38.865  0.00  0.00    +0.216 A 
ATOM     18  C   UNL     1      -2.228   5.918  40.527  0.00  0.00    +0.111 A 
ATOM     20  C   UNL     1      -0.258   4.925  39.760  0.00  0.00    +0.116 A 
ATOM     21  C   UNL     1      -1.337   4.869  40.618  0.00  0.00    +0.051 A 
ATOM     28  H   UNL     1      -0.023   7.885  37.341  0.00  0.00    +0.149 HD
BRANCH  18  22
ATOM      4  O   UNL     1      -4.147   7.109  41.220  0.00  0.00    -0.461 OA
ATOM     22  C   UNL     1      -3.396   5.987  41.364  0.00  0.00    +0.153 A 
ATOM     24  C   UNL     1      -3.944   5.151  42.306  0.00  0.00    +0.051 A 
ATOM     25  C   UNL     1      -5.111   5.802  42.774  0.00  0.00    +0.042 A 
ATOM     27  C   UNL     1      -5.190   6.989  42.082  0.00  0.00    +0.196 A 
ENDBRANCH  18  22
ENDBRANCH  12   5
BRANCH  13   6
ATOM      3  O   UNL     1       0.015  14.316  34.572  0.00  0.00    -0.253 OA
ATOM      6  N   UNL     1      -0.385  12.034  34.735  0.00  0.00    -0.292 N 
ATOM      7  N   UNL     1       0.440  12.912  32.775  0.00  0.00    -0.296 N 
ATOM     17  C   UNL     1       0.022  13.191  34.074  0.00  0.00    +0.300 C 
ATOM     29  H   UNL     1      -0.277  11.145  34.255  0.00  0.00    +0.151 HD
ATOM     30  H   UNL     1       0.429  11.948  32.455  0.00  0.00    +0.151 HD
BRANCH   7  19
ATOM     19  C   UNL     1       0.913  13.932  31.869  0.00  0.00    +0.132 C 
BRANCH  19  23
ATOM     23  C   UNL     1       1.518  13.278  30.672  0.00  0.00    -0.016 C 
ATOM     26  C   UNL     1       2.430  13.860  29.885  0.00  0.00    +0.005 C 
ENDBRANCH  19  23
ENDBRANCH   7  19
ENDBRANCH  13   6
TORSDOF 5
ENDMDL
MODEL 8
REMARK VINA RESULT:      -6.0     28.477     30.356
REMARK  Name = 11941648
REMARK  5 active torsions:
REMARK  status: ('A' for Active; 'I' for Inactive)
REMARK    1  A    between atoms: N_5  and  C_12
REMARK    2  A    between atoms: N_6  and  C_13
REMARK    3  A    between atoms: N_7  and  C_19
REMARK    4  A    between atoms: C_18  and  C_22
REMARK    5  A    between atoms: C_19  and  C_23
REMARK                            x       y       z     vdW  Elec       q    Type
REMARK                         _______ _______ _______ _____ _____    ______ ____
ROOT
ATOM      1  O   UNL     1      -1.818  -9.962  12.680  0.00  0.00    -0.370 OA
ATOM      2  O   UNL     1      -2.737 -12.919  12.298  0.00  0.00    -0.370 OA
ATOM     10  C   UNL     1      -3.443 -11.668  12.344  0.00  0.00    +0.171 C 
ATOM     11  C   UNL     1      -2.753 -10.800  13.380  0.00  0.00    +0.171 C 
ATOM     12  C   UNL     1      -3.258 -10.914  11.049  0.00  0.00    +0.130 C 
ATOM     13  C   UNL     1      -2.019 -11.788  14.256  0.00  0.00    +0.131 C 
ATOM     14  C   UNL     1      -1.943 -10.190  11.268  0.00  0.00    +0.185 C 
ATOM     15  C   UNL     1      -1.694 -12.907  13.284  0.00  0.00    +0.185 C 
ENDROOT
BRANCH  12   5
ATOM      5  N   UNL     1      -4.332  -9.959  10.874  0.00  0.00    -0.306 N 
ATOM      8  N   UNL     1      -4.671 -10.584   8.637  0.00  0.00    -0.211 NA
ATOM      9  N   UNL     1      -6.015  -8.865   9.661  0.00  0.00    -0.223 NA
ATOM     16  C   UNL     1      -5.026  -9.798   9.688  0.00  0.00    +0.216 A 
ATOM     18  C   UNL     1      -5.370 -10.400   7.497  0.00  0.00    +0.111 A 
ATOM     20  C   UNL     1      -6.672  -8.734   8.489  0.00  0.00    +0.116 A 
ATOM     21  C   UNL     1      -6.390  -9.481   7.364  0.00  0.00    +0.051 A 
ATOM     28  H   UNL     1      -4.640  -9.407  11.665  0.00  0.00    +0.149 HD
BRANCH  18  22
ATOM      4  O   UNL     1      -5.603 -11.006   5.227  0.00  0.00    -0.461 OA
ATOM     22  C   UNL     1      -4.970 -11.244   6.403  0.00  0.00    +0.153 A 
ATOM     24  C   UNL     1      -4.065 -12.269   6.272  0.00  0.00    +0.051 A 
ATOM     25  C   UNL     1      -4.147 -12.691   4.924  0.00  0.00    +0.042 A 
ATOM     27  C   UNL     1      -5.096 -11.892   4.329  0.00  0.00    +0.196 A 
ENDBRANCH  18  22
ENDBRANCH  12   5
BRANCH  13   6
ATOM      3  O   UNL     1      -2.704 -10.367  16.674  0.00  0.00    -0.253 OA
ATOM      6  N   UNL     1      -2.859 -12.256  15.332  0.00  0.00    -0.292 N 
ATOM      7  N   UNL     1      -3.972 -12.191  17.345  0.00  0.00    -0.296 N 
ATOM     17  C   UNL     1      -3.137 -11.501  16.469  0.00  0.00    +0.300 C 
ATOM     29  H   UNL     1      -3.321 -13.155  15.230  0.00  0.00    +0.151 HD
ATOM     30  H   UNL     1      -4.297 -13.117  17.082  0.00  0.00    +0.151 HD
BRANCH   7  19
ATOM     19  C   UNL     1      -4.417 -11.637  18.602  0.00  0.00    +0.132 C 
BRANCH  19  23
ATOM     23  C   UNL     1      -5.667 -10.854  18.374  0.00  0.00    -0.016 C 
ATOM     26  C   UNL     1      -6.493 -10.464  19.352  0.00  0.00    +0.005 C 
ENDBRANCH  19  23
ENDBRANCH   7  19
ENDBRANCH  13   6
TORSDOF 5
ENDMDL
MODEL 9
REMARK VINA RESULT:      -5.8     17.340     21.475
REMARK  Name = 11941648
REMARK  5 active torsions:
REMARK  status: ('A' for Active; 'I' for Inactive)
REMARK    1  A    between atoms: N_5  and  C_12
REMARK    2  A    between atoms: N_6  and  C_13
REMARK    3  A    between atoms: N_7  and  C_19
REMARK    4  A    between atoms: C_18  and  C_22
REMARK    5  A    between atoms: C_19  and  C_23
REMARK                            x       y       z     vdW  Elec       q    Type
REMARK                         _______ _______ _______ _____ _____    ______ ____
ROOT
ATOM      1  O   UNL     1      10.530   4.795   5.187  0.00  0.00    -0.370 OA
ATOM      2  O   UNL     1       9.270   7.071   3.466  0.00  0.00    -0.370 OA
ATOM     10  C   UNL     1      10.626   6.697   3.760  0.00  0.00    +0.171 C 
ATOM     11  C   UNL     1      10.659   6.226   5.202  0.00  0.00    +0.171 C 
ATOM     12  C   UNL     1      11.016   5.474   2.963  0.00  0.00    +0.130 C 
ATOM     13  C   UNL     1       9.436   6.858   5.823  0.00  0.00    +0.131 C 
ATOM     14  C   UNL     1      10.504   4.336   3.827  0.00  0.00    +0.185 C 
ATOM     15  C   UNL     1       8.473   6.926   4.651  0.00  0.00    +0.185 C 
ENDROOT
BRANCH  12   5
ATOM      5  N   UNL     1      12.456   5.401   2.841  0.00  0.00    -0.306 N 
ATOM      8  N   UNL     1      12.335   4.431   0.707  0.00  0.00    -0.211 NA
ATOM      9  N   UNL     1      14.463   4.882   1.745  0.00  0.00    -0.223 NA
ATOM     16  C   UNL     1      13.104   4.889   1.731  0.00  0.00    +0.216 A 
ATOM     18  C   UNL     1      13.001   3.940  -0.359  0.00  0.00    +0.111 A 
ATOM     20  C   UNL     1      15.064   4.376   0.646  0.00  0.00    +0.116 A 
ATOM     21  C   UNL     1      14.377   3.887  -0.445  0.00  0.00    +0.051 A 
ATOM     28  H   UNL     1      13.038   5.787   3.574  0.00  0.00    +0.149 HD
BRANCH  18  22
ATOM      4  O   UNL     1      11.189   4.320  -1.825  0.00  0.00    -0.461 OA
ATOM     22  C   UNL     1      12.162   3.462  -1.425  0.00  0.00    +0.153 A 
ATOM     24  C   UNL     1      12.117   2.300  -2.154  0.00  0.00    +0.051 A 
ATOM     25  C   UNL     1      11.044   2.451  -3.065  0.00  0.00    +0.042 A 
ATOM     27  C   UNL     1      10.512   3.697  -2.825  0.00  0.00    +0.196 A 
ENDBRANCH  18  22
ENDBRANCH  12   5
BRANCH  13   6
ATOM      3  O   UNL     1       8.621   7.963   8.363  0.00  0.00    -0.253 OA
ATOM      6  N   UNL     1       9.731   8.175   6.334  0.00  0.00    -0.292 N 
ATOM      7  N   UNL     1       9.720   9.932   7.820  0.00  0.00    -0.296 N 
ATOM     17  C   UNL     1       9.295   8.628   7.577  0.00  0.00    +0.300 C 
ATOM     29  H   UNL     1      10.339   8.781   5.790  0.00  0.00    +0.151 HD
ATOM     30  H   UNL     1      10.291  10.398   7.120  0.00  0.00    +0.151 HD
BRANCH   7  19
ATOM     19  C   UNL     1       9.406  10.645   9.036  0.00  0.00    +0.132 C 
BRANCH  19  23
ATOM     23  C   UNL     1       9.463  12.112   8.769  0.00  0.00    -0.016 C 
ATOM     26  C   UNL     1       8.778  12.721   7.795  0.00  0.00    +0.005 C 
ENDBRANCH  19  23
ENDBRANCH   7  19
ENDBRANCH  13   6
TORSDOF 5
ENDMDL
MODEL 10
REMARK VINA RESULT:      -5.8     28.256     31.125
REMARK  Name = 11941648
REMARK  5 active torsions:
REMARK  status: ('A' for Active; 'I' for Inactive)
REMARK    1  A    between atoms: N_5  and  C_12
REMARK    2  A    between atoms: N_6  and  C_13
REMARK    3  A    between atoms: N_7  and  C_19
REMARK    4  A    between atoms: C_18  and  C_22
REMARK    5  A    between atoms: C_19  and  C_23
REMARK                            x       y       z     vdW  Elec       q    Type
REMARK                         _______ _______ _______ _____ _____    ______ ____
ROOT
ATOM      1  O   UNL     1     -10.228 -10.180  15.731  0.00  0.00    -0.370 OA
ATOM      2  O   UNL     1     -10.051  -7.072  15.942  0.00  0.00    -0.370 OA
ATOM     10  C   UNL     1      -9.973  -8.130  16.912  0.00  0.00    +0.171 C 
ATOM     11  C   UNL     1     -10.959  -9.202  16.489  0.00  0.00    +0.171 C 
ATOM     12  C   UNL     1      -8.628  -8.813  16.833  0.00  0.00    +0.130 C 
ATOM     13  C   UNL     1     -11.937  -8.471  15.599  0.00  0.00    +0.131 C 
ATOM     14  C   UNL     1      -8.835  -9.831  15.727  0.00  0.00    +0.185 C 
ATOM     15  C   UNL     1     -11.070  -7.390  14.981  0.00  0.00    +0.185 C 
ENDROOT
BRANCH  12   5
ATOM      5  N   UNL     1      -8.340  -9.484  18.083  0.00  0.00    -0.306 N 
ATOM      8  N   UNL     1      -6.203 -10.137  17.366  0.00  0.00    -0.211 NA
ATOM      9  N   UNL     1      -7.006 -10.722  19.562  0.00  0.00    -0.223 NA
ATOM     16  C   UNL     1      -7.147 -10.134  18.345  0.00  0.00    +0.216 A 
ATOM     18  C   UNL     1      -5.052 -10.779  17.657  0.00  0.00    +0.111 A 
ATOM     20  C   UNL     1      -5.829 -11.347  19.784  0.00  0.00    +0.116 A 
ATOM     21  C   UNL     1      -4.808 -11.408  18.860  0.00  0.00    +0.051 A 
ATOM     28  H   UNL     1      -9.015  -9.442  18.837  0.00  0.00    +0.149 HD
BRANCH  18  22
ATOM      4  O   UNL     1      -4.578 -10.721  15.343  0.00  0.00    -0.461 OA
ATOM     22  C   UNL     1      -4.073 -10.767  16.602  0.00  0.00    +0.153 A 
ATOM     24  C   UNL     1      -2.700 -10.792  16.576  0.00  0.00    +0.051 A 
ATOM     25  C   UNL     1      -2.335 -10.759  15.209  0.00  0.00    +0.042 A 
ATOM     27  C   UNL     1      -3.513 -10.716  14.499  0.00  0.00    +0.196 A 
ENDBRANCH  18  22
ENDBRANCH  12   5
BRANCH  13   6
ATOM      3  O   UNL     1     -14.565  -7.754  14.643  0.00  0.00    -0.253 OA
ATOM      6  N   UNL     1     -13.017  -7.900  16.368  0.00  0.00    -0.292 N 
ATOM      7  N   UNL     1     -15.113  -7.048  16.784  0.00  0.00    -0.296 N 
ATOM     17  C   UNL     1     -14.259  -7.582  15.823  0.00  0.00    +0.300 C 
ATOM     29  H   UNL     1     -12.888  -7.781  17.368  0.00  0.00    +0.151 HD
ATOM     30  H   UNL     1     -14.779  -6.961  17.740  0.00  0.00    +0.151 HD
BRANCH   7  19
ATOM     19  C   UNL     1     -16.463  -6.632  16.488  0.00  0.00    +0.132 C 
BRANCH  19  23
ATOM     23  C   UNL     1     -17.205  -6.438  17.768  0.00  0.00    -0.016 C 
ATOM     26  C   UNL     1     -17.566  -5.242  18.248  0.00  0.00    +0.005 C 
ENDBRANCH  19  23
ENDBRANCH   7  19
ENDBRANCH  13   6
TORSDOF 5
ENDMDL
