MODEL 1
REMARK VINA RESULT:      -6.7      0.000      0.000
REMARK  Name = 40777818
REMARK  10 active torsions:
REMARK  status: ('A' for Active; 'I' for Inactive)
REMARK    1  A    between atoms: O_3  and  C_9
REMARK    2  A    between atoms: O_4  and  C_10
REMARK    3  A    between atoms: N_7  and  C_14
REMARK    4  A    between atoms: N_8  and  C_16
REMARK    5  A    between atoms: C_11  and  C_13
REMARK    6  A    between atoms: C_12  and  C_14
REMARK    7  A    between atoms: C_13  and  C_15
REMARK    8  A    between atoms: C_16  and  C_18
REMARK    9  A    between atoms: C_16  and  C_19
REMARK   10  A    between atoms: C_17  and  C_20
REMARK                            x       y       z     vdW  Elec       q    Type
REMARK                         _______ _______ _______ _____ _____    ______ ____
ROOT
ATOM      2  O   UNL     1      11.512   8.903  21.040  0.00  0.00    -0.366 OA
ATOM      9  C   UNL     1      11.733   8.888  18.671  0.00  0.00    +0.175 C 
ATOM     10  C   UNL     1      12.354   7.629  19.243  0.00  0.00    +0.176 C 
ATOM     11  C   UNL     1      11.645   9.785  19.902  0.00  0.00    +0.158 C 
ATOM     12  C   UNL     1      11.675   7.543  20.599  0.00  0.00    +0.167 C 
ENDROOT
BRANCH   9   3
ATOM      3  O   UNL     1      10.405   8.624  18.220  0.00  0.00    -0.387 OA
ATOM     26  H   UNL     1       9.822   8.655  18.998  0.00  0.00    +0.210 HD
ENDBRANCH   9   3
BRANCH  10   4
ATOM      4  O   UNL     1      12.116   6.482  18.456  0.00  0.00    -0.387 OA
ATOM     27  H   UNL     1      12.475   6.656  17.570  0.00  0.00    +0.210 HD
ENDBRANCH  10   4
BRANCH  11  13
ATOM     13  C   UNL     1      12.892  10.633  20.113  0.00  0.00    +0.130 C 
BRANCH  13  15
ATOM      5  O   UNL     1      13.941  11.408  22.149  0.00  0.00    -0.276 OA
ATOM      8  N   UNL     1      11.663  11.754  21.846  0.00  0.00    -0.313 N 
ATOM     15  C   UNL     1      12.920  11.299  21.476  0.00  0.00    +0.216 C 
ATOM     29  H   UNL     1      10.887  11.650  21.198  0.00  0.00    +0.149 HD
BRANCH   8  16
ATOM     16  C   UNL     1      11.404  12.426  23.099  0.00  0.00    +0.067 C 
ATOM     18  C   UNL     1      10.821  11.450  24.112  0.00  0.00    +0.027 C 
ATOM     19  C   UNL     1      10.481  13.619  22.884  0.00  0.00    +0.027 C 
ENDBRANCH   8  16
ENDBRANCH  13  15
ENDBRANCH  11  13
BRANCH  12  14
ATOM     14  C   UNL     1      12.477   6.765  21.626  0.00  0.00    +0.138 C 
BRANCH  14   7
ATOM      6  O   UNL     1      14.933   8.138  22.198  0.00  0.00    -0.270 OA
ATOM      7  N   UNL     1      13.778   6.435  21.125  0.00  0.00    -0.309 N 
ATOM     17  C   UNL     1      14.920   7.159  21.456  0.00  0.00    +0.244 C 
ATOM     28  H   UNL     1      13.849   5.602  20.549  0.00  0.00    +0.149 HD
BRANCH  17  20
ATOM      1  F   UNL     1      19.723   6.427  21.652  0.00  0.00    -0.205 F 
ATOM     20  C   UNL     1      16.191   6.704  20.833  0.00  0.00    +0.039 A 
ATOM     21  C   UNL     1      17.385   6.780  21.549  0.00  0.00    +0.051 A 
ATOM     22  C   UNL     1      16.187   6.202  19.532  0.00  0.00    +0.013 A 
ATOM     23  C   UNL     1      18.577   6.353  20.964  0.00  0.00    +0.124 A 
ATOM     24  C   UNL     1      17.380   5.774  18.947  0.00  0.00    +0.004 A 
ATOM     25  C   UNL     1      18.574   5.850  19.664  0.00  0.00    +0.038 A 
ENDBRANCH  17  20
ENDBRANCH  14   7
ENDBRANCH  12  14
TORSDOF 8
ENDMDL
MODEL 2
REMARK VINA RESULT:      -6.5      3.361      4.689
REMARK  Name = 40777818
REMARK  10 active torsions:
REMARK  status: ('A' for Active; 'I' for Inactive)
REMARK    1  A    between atoms: O_3  and  C_9
REMARK    2  A    between atoms: O_4  and  C_10
REMARK    3  A    between atoms: N_7  and  C_14
REMARK    4  A    between atoms: N_8  and  C_16
REMARK    5  A    between atoms: C_11  and  C_13
REMARK    6  A    between atoms: C_12  and  C_14
REMARK    7  A    between atoms: C_13  and  C_15
REMARK    8  A    between atoms: C_16  and  C_18
REMARK    9  A    between atoms: C_16  and  C_19
REMARK   10  A    between atoms: C_17  and  C_20
REMARK                            x       y       z     vdW  Elec       q    Type
REMARK                         _______ _______ _______ _____ _____    ______ ____
ROOT
ATOM      2  O   UNL     1      12.627   9.684  18.927  0.00  0.00    -0.366 OA
ATOM      9  C   UNL     1      12.467   7.800  17.483  0.00  0.00    +0.175 C 
ATOM     10  C   UNL     1      12.804   7.333  18.884  0.00  0.00    +0.176 C 
ATOM     11  C   UNL     1      12.815   9.284  17.551  0.00  0.00    +0.158 C 
ATOM     12  C   UNL     1      12.345   8.516  19.719  0.00  0.00    +0.167 C 
ENDROOT
BRANCH   9   3
ATOM      3  O   UNL     1      11.064   7.686  17.247  0.00  0.00    -0.387 OA
ATOM     26  H   UNL     1      10.784   6.814  17.574  0.00  0.00    +0.210 HD
ENDBRANCH   9   3
BRANCH  10   4
ATOM      4  O   UNL     1      12.147   6.138  19.248  0.00  0.00    -0.387 OA
ATOM     27  H   UNL     1      12.805   5.424  19.226  0.00  0.00    +0.210 HD
ENDBRANCH  10   4
BRANCH  11  13
ATOM     13  C   UNL     1      14.263   9.574  17.176  0.00  0.00    +0.130 C 
BRANCH  13  15
ATOM      5  O   UNL     1      14.591   9.030  14.843  0.00  0.00    -0.276 OA
ATOM      8  N   UNL     1      14.378  11.258  15.466  0.00  0.00    -0.313 N 
ATOM     15  C   UNL     1      14.430   9.891  15.702  0.00  0.00    +0.216 C 
ATOM     29  H   UNL     1      14.200  11.889  16.243  0.00  0.00    +0.149 HD
BRANCH   8  16
ATOM     16  C   UNL     1      14.512  11.838  14.150  0.00  0.00    +0.067 C 
ATOM     18  C   UNL     1      15.970  12.173  13.865  0.00  0.00    +0.027 C 
ATOM     19  C   UNL     1      13.625  13.070  14.016  0.00  0.00    +0.027 C 
ENDBRANCH   8  16
ENDBRANCH  13  15
ENDBRANCH  11  13
BRANCH  12  14
ATOM     14  C   UNL     1      13.055   8.621  21.056  0.00  0.00    +0.138 C 
BRANCH  14   7
ATOM      6  O   UNL     1      15.559   9.929  20.539  0.00  0.00    -0.270 OA
ATOM      7  N   UNL     1      14.348   8.005  21.006  0.00  0.00    -0.309 N 
ATOM     17  C   UNL     1      15.515   8.719  20.747  0.00  0.00    +0.244 C 
ATOM     28  H   UNL     1      14.391   7.014  21.224  0.00  0.00    +0.149 HD
BRANCH  17  20
ATOM      1  F   UNL     1      18.144   5.013  19.015  0.00  0.00    -0.205 F 
ATOM     20  C   UNL     1      16.773   7.929  20.703  0.00  0.00    +0.039 A 
ATOM     21  C   UNL     1      16.871   6.819  19.863  0.00  0.00    +0.051 A 
ATOM     22  C   UNL     1      17.855   8.297  21.502  0.00  0.00    +0.013 A 
ATOM     23  C   UNL     1      18.051   6.078  19.822  0.00  0.00    +0.124 A 
ATOM     24  C   UNL     1      19.037   7.556  21.460  0.00  0.00    +0.004 A 
ATOM     25  C   UNL     1      19.134   6.446  20.619  0.00  0.00    +0.038 A 
ENDBRANCH  17  20
ENDBRANCH  14   7
ENDBRANCH  12  14
TORSDOF 8
ENDMDL
MODEL 3
REMARK VINA RESULT:      -6.3      1.744      2.470
REMARK  Name = 40777818
REMARK  10 active torsions:
REMARK  status: ('A' for Active; 'I' for Inactive)
REMARK    1  A    between atoms: O_3  and  C_9
REMARK    2  A    between atoms: O_4  and  C_10
REMARK    3  A    between atoms: N_7  and  C_14
REMARK    4  A    between atoms: N_8  and  C_16
REMARK    5  A    between atoms: C_11  and  C_13
REMARK    6  A    between atoms: C_12  and  C_14
REMARK    7  A    between atoms: C_13  and  C_15
REMARK    8  A    between atoms: C_16  and  C_18
REMARK    9  A    between atoms: C_16  and  C_19
REMARK   10  A    between atoms: C_17  and  C_20
REMARK                            x       y       z     vdW  Elec       q    Type
REMARK                         _______ _______ _______ _____ _____    ______ ____
ROOT
ATOM      2  O   UNL     1      13.250   7.815  21.078  0.00  0.00    -0.366 OA
ATOM      9  C   UNL     1      11.050   8.681  20.808  0.00  0.00    +0.175 C 
ATOM     10  C   UNL     1      11.740   8.629  19.460  0.00  0.00    +0.176 C 
ATOM     11  C   UNL     1      12.228   8.568  21.771  0.00  0.00    +0.158 C 
ATOM     12  C   UNL     1      12.834   7.607  19.716  0.00  0.00    +0.167 C 
ENDROOT
BRANCH   9   3
ATOM      3  O   UNL     1      10.222   7.533  20.985  0.00  0.00    -0.387 OA
ATOM     26  H   UNL     1      10.548   7.058  21.769  0.00  0.00    +0.210 HD
ENDBRANCH   9   3
BRANCH  10   4
ATOM      4  O   UNL     1      10.883   8.237  18.409  0.00  0.00    -0.387 OA
ATOM     27  H   UNL     1      10.769   9.004  17.823  0.00  0.00    +0.210 HD
ENDBRANCH  10   4
BRANCH  11  13
ATOM     13  C   UNL     1      12.821   9.919  22.149  0.00  0.00    +0.130 C 
BRANCH  13  15
ATOM      5  O   UNL     1      11.088  10.379  23.772  0.00  0.00    -0.276 OA
ATOM      8  N   UNL     1      11.892  12.114  22.452  0.00  0.00    -0.313 N 
ATOM     15  C   UNL     1      11.834  10.800  22.894  0.00  0.00    +0.216 C 
ATOM     29  H   UNL     1      12.575  12.370  21.745  0.00  0.00    +0.149 HD
BRANCH   8  16
ATOM     16  C   UNL     1      11.058  13.164  22.990  0.00  0.00    +0.067 C 
ATOM     18  C   UNL     1      10.351  13.907  21.864  0.00  0.00    +0.027 C 
ATOM     19  C   UNL     1      11.884  14.116  23.847  0.00  0.00    +0.027 C 
ENDBRANCH   8  16
ENDBRANCH  13  15
ENDBRANCH  11  13
BRANCH  12  14
ATOM     14  C   UNL     1      14.027   7.756  18.789  0.00  0.00    +0.138 C 
BRANCH  14   7
ATOM      6  O   UNL     1      16.173   5.851  18.687  0.00  0.00    -0.270 OA
ATOM      7  N   UNL     1      15.254   7.809  19.528  0.00  0.00    -0.309 N 
ATOM     17  C   UNL     1      16.244   6.837  19.417  0.00  0.00    +0.244 C 
ATOM     28  H   UNL     1      15.402   8.627  20.110  0.00  0.00    +0.149 HD
BRANCH  17  20
ATOM      1  F   UNL     1      20.577   5.335  21.035  0.00  0.00    -0.205 F 
ATOM     20  C   UNL     1      17.447   7.022  20.270  0.00  0.00    +0.039 A 
ATOM     21  C   UNL     1      18.468   6.073  20.252  0.00  0.00    +0.051 A 
ATOM     22  C   UNL     1      17.553   8.146  21.089  0.00  0.00    +0.013 A 
ATOM     23  C   UNL     1      19.596   6.247  21.053  0.00  0.00    +0.124 A 
ATOM     24  C   UNL     1      18.682   8.321  21.890  0.00  0.00    +0.004 A 
ATOM     25  C   UNL     1      19.704   7.371  21.871  0.00  0.00    +0.038 A 
ENDBRANCH  17  20
ENDBRANCH  14   7
ENDBRANCH  12  14
TORSDOF 8
ENDMDL
MODEL 4
REMARK VINA RESULT:      -6.3      2.255      2.897
REMARK  Name = 40777818
REMARK  10 active torsions:
REMARK  status: ('A' for Active; 'I' for Inactive)
REMARK    1  A    between atoms: O_3  and  C_9
REMARK    2  A    between atoms: O_4  and  C_10
REMARK    3  A    between atoms: N_7  and  C_14
REMARK    4  A    between atoms: N_8  and  C_16
REMARK    5  A    between atoms: C_11  and  C_13
REMARK    6  A    between atoms: C_12  and  C_14
REMARK    7  A    between atoms: C_13  and  C_15
REMARK    8  A    between atoms: C_16  and  C_18
REMARK    9  A    between atoms: C_16  and  C_19
REMARK   10  A    between atoms: C_17  and  C_20
REMARK                            x       y       z     vdW  Elec       q    Type
REMARK                         _______ _______ _______ _____ _____    ______ ____
ROOT
ATOM      2  O   UNL     1      12.546   9.657  19.527  0.00  0.00    -0.366 OA
ATOM      9  C   UNL     1      12.365   8.019  17.811  0.00  0.00    +0.175 C 
ATOM     10  C   UNL     1      12.768   7.347  19.108  0.00  0.00    +0.176 C 
ATOM     11  C   UNL     1      12.687   9.482  18.098  0.00  0.00    +0.158 C 
ATOM     12  C   UNL     1      12.320   8.373  20.135  0.00  0.00    +0.167 C 
ENDROOT
BRANCH   9   3
ATOM      3  O   UNL     1      10.956   7.907  17.612  0.00  0.00    -0.387 OA
ATOM     26  H   UNL     1      10.536   7.930  18.489  0.00  0.00    +0.210 HD
ENDBRANCH   9   3
BRANCH  10   4
ATOM      4  O   UNL     1      12.150   6.094  19.303  0.00  0.00    -0.387 OA
ATOM     27  H   UNL     1      11.753   5.829  18.457  0.00  0.00    +0.210 HD
ENDBRANCH  10   4
BRANCH  11  13
ATOM     13  C   UNL     1      14.111   9.865  17.720  0.00  0.00    +0.130 C 
BRANCH  13  15
ATOM      5  O   UNL     1      15.648  11.478  18.661  0.00  0.00    -0.276 OA
ATOM      8  N   UNL     1      13.449  12.111  18.256  0.00  0.00    -0.313 N 
ATOM     15  C   UNL     1      14.514  11.222  18.266  0.00  0.00    +0.216 C 
ATOM     29  H   UNL     1      12.558  11.813  17.870  0.00  0.00    +0.149 HD
BRANCH   8  16
ATOM     16  C   UNL     1      13.554  13.474  18.723  0.00  0.00    +0.067 C 
ATOM     18  C   UNL     1      12.469  13.766  19.751  0.00  0.00    +0.027 C 
ATOM     19  C   UNL     1      13.483  14.447  17.553  0.00  0.00    +0.027 C 
ENDBRANCH   8  16
ENDBRANCH  13  15
ENDBRANCH  11  13
BRANCH  12  14
ATOM     14  C   UNL     1      13.081   8.286  21.445  0.00  0.00    +0.138 C 
BRANCH  14   7
ATOM      6  O   UNL     1      15.552   9.737  21.638  0.00  0.00    -0.270 OA
ATOM      7  N   UNL     1      14.400   7.762  21.244  0.00  0.00    -0.309 N 
ATOM     17  C   UNL     1      15.548   8.541  21.358  0.00  0.00    +0.244 C 
ATOM     28  H   UNL     1      14.473   6.766  21.062  0.00  0.00    +0.149 HD
BRANCH  17  20
ATOM      1  F   UNL     1      18.140   5.092  19.115  0.00  0.00    -0.205 F 
ATOM     20  C   UNL     1      16.838   7.853  21.093  0.00  0.00    +0.039 A 
ATOM     21  C   UNL     1      16.885   6.773  20.211  0.00  0.00    +0.051 A 
ATOM     22  C   UNL     1      18.002   8.288  21.726  0.00  0.00    +0.013 A 
ATOM     23  C   UNL     1      18.096   6.128  19.962  0.00  0.00    +0.124 A 
ATOM     24  C   UNL     1      19.214   7.642  21.477  0.00  0.00    +0.004 A 
ATOM     25  C   UNL     1      19.260   6.563  20.594  0.00  0.00    +0.038 A 
ENDBRANCH  17  20
ENDBRANCH  14   7
ENDBRANCH  12  14
TORSDOF 8
ENDMDL
MODEL 5
REMARK VINA RESULT:      -6.2     15.164     17.152
REMARK  Name = 40777818
REMARK  10 active torsions:
REMARK  status: ('A' for Active; 'I' for Inactive)
REMARK    1  A    between atoms: O_3  and  C_9
REMARK    2  A    between atoms: O_4  and  C_10
REMARK    3  A    between atoms: N_7  and  C_14
REMARK    4  A    between atoms: N_8  and  C_16
REMARK    5  A    between atoms: C_11  and  C_13
REMARK    6  A    between atoms: C_12  and  C_14
REMARK    7  A    between atoms: C_13  and  C_15
REMARK    8  A    between atoms: C_16  and  C_18
REMARK    9  A    between atoms: C_16  and  C_19
REMARK   10  A    between atoms: C_17  and  C_20
REMARK                            x       y       z     vdW  Elec       q    Type
REMARK                         _______ _______ _______ _____ _____    ______ ____
ROOT
ATOM      2  O   UNL     1      11.002   6.896   7.248  0.00  0.00    -0.366 OA
ATOM      9  C   UNL     1       9.725   4.927   7.640  0.00  0.00    +0.175 C 
ATOM     10  C   UNL     1       9.965   5.084   6.153  0.00  0.00    +0.176 C 
ATOM     11  C   UNL     1      10.035   6.328   8.160  0.00  0.00    +0.158 C 
ATOM     12  C   UNL     1      11.174   6.003   6.133  0.00  0.00    +0.167 C 
ENDROOT
BRANCH   9   3
ATOM      3  O   UNL     1      10.677   4.026   8.203  0.00  0.00    -0.387 OA
ATOM     26  H   UNL     1      10.798   3.297   7.571  0.00  0.00    +0.210 HD
ENDBRANCH   9   3
BRANCH  10   4
ATOM      4  O   UNL     1      10.217   3.860   5.496  0.00  0.00    -0.387 OA
ATOM     27  H   UNL     1      10.100   3.149   6.148  0.00  0.00    +0.210 HD
ENDBRANCH  10   4
BRANCH  11  13
ATOM     13  C   UNL     1       8.816   7.241   8.176  0.00  0.00    +0.130 C 
BRANCH  13  15
ATOM      5  O   UNL     1       9.671   9.476   8.529  0.00  0.00    -0.276 OA
ATOM      8  N   UNL     1       8.792   8.915   6.452  0.00  0.00    -0.313 N 
ATOM     15  C   UNL     1       9.150   8.665   7.769  0.00  0.00    +0.216 C 
ATOM     29  H   UNL     1       8.402   8.161   5.892  0.00  0.00    +0.149 HD
BRANCH   8  16
ATOM     16  C   UNL     1       8.996  10.192   5.807  0.00  0.00    +0.067 C 
ATOM     18  C   UNL     1       7.932  10.422   4.742  0.00  0.00    +0.027 C 
ATOM     19  C   UNL     1      10.398  10.274   5.217  0.00  0.00    +0.027 C 
ENDBRANCH   8  16
ENDBRANCH  13  15
ENDBRANCH  11  13
BRANCH  12  14
ATOM     14  C   UNL     1      11.301   6.804   4.851  0.00  0.00    +0.138 C 
BRANCH  14   7
ATOM      6  O   UNL     1      10.006   6.201   2.360  0.00  0.00    -0.270 OA
ATOM      7  N   UNL     1      11.825   6.000   3.787  0.00  0.00    -0.309 N 
ATOM     17  C   UNL     1      11.125   5.758   2.607  0.00  0.00    +0.244 C 
ATOM     28  H   UNL     1      12.769   5.646   3.903  0.00  0.00    +0.149 HD
BRANCH  17  20
ATOM      1  F   UNL     1      14.961   3.154   1.144  0.00  0.00    -0.205 F 
ATOM     20  C   UNL     1      11.795   4.881   1.612  0.00  0.00    +0.039 A 
ATOM     21  C   UNL     1      13.090   4.420   1.849  0.00  0.00    +0.051 A 
ATOM     22  C   UNL     1      11.128   4.519   0.442  0.00  0.00    +0.013 A 
ATOM     23  C   UNL     1      13.718   3.597   0.916  0.00  0.00    +0.124 A 
ATOM     24  C   UNL     1      11.757   3.695  -0.492  0.00  0.00    +0.004 A 
ATOM     25  C   UNL     1      13.052   3.234  -0.254  0.00  0.00    +0.038 A 
ENDBRANCH  17  20
ENDBRANCH  14   7
ENDBRANCH  12  14
TORSDOF 8
ENDMDL
MODEL 6
REMARK VINA RESULT:      -6.2     16.006     17.988
REMARK  Name = 40777818
REMARK  10 active torsions:
REMARK  status: ('A' for Active; 'I' for Inactive)
REMARK    1  A    between atoms: O_3  and  C_9
REMARK    2  A    between atoms: O_4  and  C_10
REMARK    3  A    between atoms: N_7  and  C_14
REMARK    4  A    between atoms: N_8  and  C_16
REMARK    5  A    between atoms: C_11  and  C_13
REMARK    6  A    between atoms: C_12  and  C_14
REMARK    7  A    between atoms: C_13  and  C_15
REMARK    8  A    between atoms: C_16  and  C_18
REMARK    9  A    between atoms: C_16  and  C_19
REMARK   10  A    between atoms: C_17  and  C_20
REMARK                            x       y       z     vdW  Elec       q    Type
REMARK                         _______ _______ _______ _____ _____    ______ ____
ROOT
ATOM      2  O   UNL     1      10.409   6.803   5.643  0.00  0.00    -0.366 OA
ATOM      9  C   UNL     1       9.937   5.573   7.625  0.00  0.00    +0.175 C 
ATOM     10  C   UNL     1       9.681   4.697   6.416  0.00  0.00    +0.176 C 
ATOM     11  C   UNL     1       9.957   6.968   7.007  0.00  0.00    +0.158 C 
ATOM     12  C   UNL     1      10.507   5.398   5.350  0.00  0.00    +0.167 C 
ENDROOT
BRANCH   9   3
ATOM      3  O   UNL     1      11.233   5.310   8.162  0.00  0.00    -0.387 OA
ATOM     26  H   UNL     1      11.530   4.457   7.801  0.00  0.00    +0.210 HD
ENDBRANCH   9   3
BRANCH  10   4
ATOM      4  O   UNL     1      10.082   3.357   6.602  0.00  0.00    -0.387 OA
ATOM     27  H   UNL     1       9.278   2.813   6.633  0.00  0.00    +0.210 HD
ENDBRANCH  10   4
BRANCH  11  13
ATOM     13  C   UNL     1       8.582   7.622   6.967  0.00  0.00    +0.130 C 
BRANCH  13  15
ATOM      5  O   UNL     1       9.069   9.883   6.262  0.00  0.00    -0.276 OA
ATOM      8  N   UNL     1       7.801   8.514   4.878  0.00  0.00    -0.313 N 
ATOM     15  C   UNL     1       8.529   8.808   6.022  0.00  0.00    +0.216 C 
ATOM     29  H   UNL     1       7.426   7.577   4.755  0.00  0.00    +0.149 HD
BRANCH   8  16
ATOM     16  C   UNL     1       7.589   9.465   3.811  0.00  0.00    +0.067 C 
ATOM     18  C   UNL     1       6.143   9.942   3.806  0.00  0.00    +0.027 C 
ATOM     19  C   UNL     1       7.975   8.856   2.468  0.00  0.00    +0.027 C 
ENDBRANCH   8  16
ENDBRANCH  13  15
ENDBRANCH  11  13
BRANCH  12  14
ATOM     14  C   UNL     1      10.018   5.134   3.938  0.00  0.00    +0.138 C 
BRANCH  14   7
ATOM      6  O   UNL     1       9.916   3.906   1.345  0.00  0.00    -0.270 OA
ATOM      7  N   UNL     1      11.115   4.948   3.036  0.00  0.00    -0.309 N 
ATOM     17  C   UNL     1      10.975   4.339   1.792  0.00  0.00    +0.244 C 
ATOM     28  H   UNL     1      12.011   5.332   3.320  0.00  0.00    +0.149 HD
BRANCH  17  20
ATOM      1  F   UNL     1      15.714   3.312   1.433  0.00  0.00    -0.205 F 
ATOM     20  C   UNL     1      12.215   4.197   0.985  0.00  0.00    +0.039 A 
ATOM     21  C   UNL     1      13.407   3.813   1.599  0.00  0.00    +0.051 A 
ATOM     22  C   UNL     1      12.186   4.448  -0.387  0.00  0.00    +0.013 A 
ATOM     23  C   UNL     1      14.570   3.680   0.843  0.00  0.00    +0.124 A 
ATOM     24  C   UNL     1      13.350   4.315  -1.144  0.00  0.00    +0.004 A 
ATOM     25  C   UNL     1      14.542   3.930  -0.529  0.00  0.00    +0.038 A 
ENDBRANCH  17  20
ENDBRANCH  14   7
ENDBRANCH  12  14
TORSDOF 8
ENDMDL
MODEL 7
REMARK VINA RESULT:      -6.1     26.188     27.859
REMARK  Name = 40777818
REMARK  10 active torsions:
REMARK  status: ('A' for Active; 'I' for Inactive)
REMARK    1  A    between atoms: O_3  and  C_9
REMARK    2  A    between atoms: O_4  and  C_10
REMARK    3  A    between atoms: N_7  and  C_14
REMARK    4  A    between atoms: N_8  and  C_16
REMARK    5  A    between atoms: C_11  and  C_13
REMARK    6  A    between atoms: C_12  and  C_14
REMARK    7  A    between atoms: C_13  and  C_15
REMARK    8  A    between atoms: C_16  and  C_18
REMARK    9  A    between atoms: C_16  and  C_19
REMARK   10  A    between atoms: C_17  and  C_20
REMARK                            x       y       z     vdW  Elec       q    Type
REMARK                         _______ _______ _______ _____ _____    ______ ____
ROOT
ATOM      2  O   UNL     1      -3.513 -10.218  16.668  0.00  0.00    -0.366 OA
ATOM      9  C   UNL     1      -4.918 -12.138  16.657  0.00  0.00    +0.175 C 
ATOM     10  C   UNL     1      -3.935 -12.227  15.508  0.00  0.00    +0.176 C 
ATOM     11  C   UNL     1      -4.843 -10.659  17.024  0.00  0.00    +0.158 C 
ATOM     12  C   UNL     1      -2.840 -11.281  15.968  0.00  0.00    +0.167 C 
ENDROOT
BRANCH   9   3
ATOM      3  O   UNL     1      -4.447 -12.895  17.771  0.00  0.00    -0.387 OA
ATOM     26  H   UNL     1      -4.577 -13.835  17.560  0.00  0.00    +0.210 HD
ENDBRANCH   9   3
BRANCH  10   4
ATOM      4  O   UNL     1      -3.450 -13.534  15.288  0.00  0.00    -0.387 OA
ATOM     27  H   UNL     1      -2.550 -13.455  14.931  0.00  0.00    +0.210 HD
ENDBRANCH  10   4
BRANCH  11  13
ATOM     13  C   UNL     1      -5.839  -9.802  16.255  0.00  0.00    +0.130 C 
BRANCH  13  15
ATOM      5  O   UNL     1      -7.228  -9.814  18.235  0.00  0.00    -0.276 OA
ATOM      8  N   UNL     1      -8.072  -8.914  16.265  0.00  0.00    -0.313 N 
ATOM     15  C   UNL     1      -7.103  -9.524  17.049  0.00  0.00    +0.216 C 
ATOM     29  H   UNL     1      -7.854  -8.679  15.301  0.00  0.00    +0.149 HD
BRANCH   8  16
ATOM     16  C   UNL     1      -9.373  -8.540  16.769  0.00  0.00    +0.067 C 
ATOM     18  C   UNL     1     -10.324  -9.729  16.710  0.00  0.00    +0.027 C 
ATOM     19  C   UNL     1      -9.926  -7.352  15.992  0.00  0.00    +0.027 C 
ENDBRANCH   8  16
ENDBRANCH  13  15
ENDBRANCH  11  13
BRANCH  12  14
ATOM     14  C   UNL     1      -2.022 -10.704  14.827  0.00  0.00    +0.138 C 
BRANCH  14   7
ATOM      6  O   UNL     1      -1.814 -11.248  12.015  0.00  0.00    -0.270 OA
ATOM      7  N   UNL     1      -2.869 -10.190  13.791  0.00  0.00    -0.309 N 
ATOM     17  C   UNL     1      -2.695 -10.508  12.447  0.00  0.00    +0.244 C 
ATOM     28  H   UNL     1      -3.652  -9.615  14.084  0.00  0.00    +0.149 HD
BRANCH  17  20
ATOM      1  F   UNL     1      -7.128  -8.853  11.330  0.00  0.00    -0.205 F 
ATOM     20  C   UNL     1      -3.641  -9.872  11.493  0.00  0.00    +0.039 A 
ATOM     21  C   UNL     1      -4.968  -9.656  11.866  0.00  0.00    +0.051 A 
ATOM     22  C   UNL     1      -3.201  -9.491  10.226  0.00  0.00    +0.013 A 
ATOM     23  C   UNL     1      -5.855  -9.059  10.972  0.00  0.00    +0.124 A 
ATOM     24  C   UNL     1      -4.089  -8.894   9.330  0.00  0.00    +0.004 A 
ATOM     25  C   UNL     1      -5.416  -8.678   9.704  0.00  0.00    +0.038 A 
ENDBRANCH  17  20
ENDBRANCH  14   7
ENDBRANCH  12  14
TORSDOF 8
ENDMDL
MODEL 8
REMARK VINA RESULT:      -6.1      3.392      7.629
REMARK  Name = 40777818
REMARK  10 active torsions:
REMARK  status: ('A' for Active; 'I' for Inactive)
REMARK    1  A    between atoms: O_3  and  C_9
REMARK    2  A    between atoms: O_4  and  C_10
REMARK    3  A    between atoms: N_7  and  C_14
REMARK    4  A    between atoms: N_8  and  C_16
REMARK    5  A    between atoms: C_11  and  C_13
REMARK    6  A    between atoms: C_12  and  C_14
REMARK    7  A    between atoms: C_13  and  C_15
REMARK    8  A    between atoms: C_16  and  C_18
REMARK    9  A    between atoms: C_16  and  C_19
REMARK   10  A    between atoms: C_17  and  C_20
REMARK                            x       y       z     vdW  Elec       q    Type
REMARK                         _______ _______ _______ _____ _____    ______ ____
ROOT
ATOM      2  O   UNL     1      12.740   8.834  21.210  0.00  0.00    -0.366 OA
ATOM      9  C   UNL     1      12.825   6.513  20.694  0.00  0.00    +0.175 C 
ATOM     10  C   UNL     1      11.724   6.764  21.704  0.00  0.00    +0.176 C 
ATOM     11  C   UNL     1      13.653   7.789  20.804  0.00  0.00    +0.158 C 
ATOM     12  C   UNL     1      11.460   8.247  21.505  0.00  0.00    +0.167 C 
ENDROOT
BRANCH   9   3
ATOM      3  O   UNL     1      12.283   6.451  19.375  0.00  0.00    -0.387 OA
ATOM     26  H   UNL     1      12.347   7.342  18.992  0.00  0.00    +0.210 HD
ENDBRANCH   9   3
BRANCH  10   4
ATOM      4  O   UNL     1      10.570   5.984  21.477  0.00  0.00    -0.387 OA
ATOM     27  H   UNL     1       9.803   6.580  21.511  0.00  0.00    +0.210 HD
ENDBRANCH  10   4
BRANCH  11  13
ATOM     13  C   UNL     1      14.753   7.698  21.854  0.00  0.00    +0.130 C 
BRANCH  13  15
ATOM      5  O   UNL     1      16.410   9.006  20.675  0.00  0.00    -0.276 OA
ATOM      8  N   UNL     1      17.006   6.930  21.533  0.00  0.00    -0.313 N 
ATOM     15  C   UNL     1      16.130   7.976  21.282  0.00  0.00    +0.216 C 
ATOM     29  H   UNL     1      16.687   6.136  22.081  0.00  0.00    +0.149 HD
BRANCH   8  16
ATOM     16  C   UNL     1      18.384   6.933  21.097  0.00  0.00    +0.067 C 
ATOM     18  C   UNL     1      18.605   5.865  20.035  0.00  0.00    +0.027 C 
ATOM     19  C   UNL     1      19.320   6.736  22.283  0.00  0.00    +0.027 C 
ENDBRANCH   8  16
ENDBRANCH  13  15
ENDBRANCH  11  13
BRANCH  12  14
ATOM     14  C   UNL     1      10.857   8.920  22.724  0.00  0.00    +0.138 C 
BRANCH  14   7
ATOM      6  O   UNL     1      12.202  11.179  23.881  0.00  0.00    -0.270 OA
ATOM      7  N   UNL     1      10.581  10.303  22.469  0.00  0.00    -0.309 N 
ATOM     17  C   UNL     1      11.287  11.338  23.077  0.00  0.00    +0.244 C 
ATOM     28  H   UNL     1       9.872  10.506  21.773  0.00  0.00    +0.149 HD
BRANCH  17  20
ATOM      1  F   UNL     1       9.218  15.575  24.265  0.00  0.00    -0.205 F 
ATOM     20  C   UNL     1      10.861  12.718  22.727  0.00  0.00    +0.039 A 
ATOM     21  C   UNL     1      10.226  13.516  23.679  0.00  0.00    +0.051 A 
ATOM     22  C   UNL     1      11.097  13.216  21.446  0.00  0.00    +0.013 A 
ATOM     23  C   UNL     1       9.827  14.810  23.351  0.00  0.00    +0.124 A 
ATOM     24  C   UNL     1      10.698  14.512  21.116  0.00  0.00    +0.004 A 
ATOM     25  C   UNL     1      10.063  15.309  22.070  0.00  0.00    +0.038 A 
ENDBRANCH  17  20
ENDBRANCH  14   7
ENDBRANCH  12  14
TORSDOF 8
ENDMDL
MODEL 9
REMARK VINA RESULT:      -6.0     25.986     28.370
REMARK  Name = 40777818
REMARK  10 active torsions:
REMARK  status: ('A' for Active; 'I' for Inactive)
REMARK    1  A    between atoms: O_3  and  C_9
REMARK    2  A    between atoms: O_4  and  C_10
REMARK    3  A    between atoms: N_7  and  C_14
REMARK    4  A    between atoms: N_8  and  C_16
REMARK    5  A    between atoms: C_11  and  C_13
REMARK    6  A    between atoms: C_12  and  C_14
REMARK    7  A    between atoms: C_13  and  C_15
REMARK    8  A    between atoms: C_16  and  C_18
REMARK    9  A    between atoms: C_16  and  C_19
REMARK   10  A    between atoms: C_17  and  C_20
REMARK                            x       y       z     vdW  Elec       q    Type
REMARK                         _______ _______ _______ _____ _____    ______ ____
ROOT
ATOM      2  O   UNL     1      -6.333 -11.605  17.115  0.00  0.00    -0.366 OA
ATOM      9  C   UNL     1      -6.626 -12.096  19.425  0.00  0.00    +0.175 C 
ATOM     10  C   UNL     1      -7.332 -10.797  19.093  0.00  0.00    +0.176 C 
ATOM     11  C   UNL     1      -5.691 -12.263  18.231  0.00  0.00    +0.158 C 
ATOM     12  C   UNL     1      -7.507 -10.920  17.589  0.00  0.00    +0.167 C 
ENDROOT
BRANCH   9   3
ATOM      3  O   UNL     1      -7.554 -13.181  19.413  0.00  0.00    -0.387 OA
ATOM     26  H   UNL     1      -8.212 -13.008  20.108  0.00  0.00    +0.210 HD
ENDBRANCH   9   3
BRANCH  10   4
ATOM      4  O   UNL     1      -8.566 -10.646  19.761  0.00  0.00    -0.387 OA
ATOM     27  H   UNL     1      -8.375 -10.545  20.708  0.00  0.00    +0.210 HD
ENDBRANCH  10   4
BRANCH  11  13
ATOM     13  C   UNL     1      -4.333 -11.605  18.441  0.00  0.00    +0.130 C 
BRANCH  13  15
ATOM      5  O   UNL     1      -4.173  -9.788  16.853  0.00  0.00    -0.276 OA
ATOM      8  N   UNL     1      -2.921 -11.714  16.501  0.00  0.00    -0.313 N 
ATOM     15  C   UNL     1      -3.821 -10.914  17.191  0.00  0.00    +0.216 C 
ATOM     29  H   UNL     1      -2.663 -12.618  16.886  0.00  0.00    +0.149 HD
BRANCH   8  16
ATOM     16  C   UNL     1      -2.281 -11.302  15.273  0.00  0.00    +0.067 C 
ATOM     18  C   UNL     1      -1.942 -12.518  14.420  0.00  0.00    +0.027 C 
ATOM     19  C   UNL     1      -1.038 -10.473  15.570  0.00  0.00    +0.027 C 
ENDBRANCH   8  16
ENDBRANCH  13  15
ENDBRANCH  11  13
BRANCH  12  14
ATOM     14  C   UNL     1      -7.636  -9.581  16.887  0.00  0.00    +0.138 C 
BRANCH  14   7
ATOM      6  O   UNL     1      -8.475 -10.149  14.199  0.00  0.00    -0.270 OA
ATOM      7  N   UNL     1      -6.823  -9.534  15.708  0.00  0.00    -0.309 N 
ATOM     17  C   UNL     1      -7.314  -9.826  14.439  0.00  0.00    +0.244 C 
ATOM     28  H   UNL     1      -5.864  -9.221  15.826  0.00  0.00    +0.149 HD
BRANCH  17  20
ATOM      1  F   UNL     1      -5.971  -8.182  10.064  0.00  0.00    -0.205 F 
ATOM     20  C   UNL     1      -6.336  -9.757  13.322  0.00  0.00    +0.039 A 
ATOM     21  C   UNL     1      -6.618  -8.987  12.194  0.00  0.00    +0.051 A 
ATOM     22  C   UNL     1      -5.135 -10.462  13.404  0.00  0.00    +0.013 A 
ATOM     23  C   UNL     1      -5.699  -8.921  11.147  0.00  0.00    +0.124 A 
ATOM     24  C   UNL     1      -4.216 -10.397  12.356  0.00  0.00    +0.004 A 
ATOM     25  C   UNL     1      -4.499  -9.626  11.228  0.00  0.00    +0.038 A 
ENDBRANCH  17  20
ENDBRANCH  14   7
ENDBRANCH  12  14
TORSDOF 8
ENDMDL
MODEL 10
REMARK VINA RESULT:      -6.0      3.743      6.953
REMARK  Name = 40777818
REMARK  10 active torsions:
REMARK  status: ('A' for Active; 'I' for Inactive)
REMARK    1  A    between atoms: O_3  and  C_9
REMARK    2  A    between atoms: O_4  and  C_10
REMARK    3  A    between atoms: N_7  and  C_14
REMARK    4  A    between atoms: N_8  and  C_16
REMARK    5  A    between atoms: C_11  and  C_13
REMARK    6  A    between atoms: C_12  and  C_14
REMARK    7  A    between atoms: C_13  and  C_15
REMARK    8  A    between atoms: C_16  and  C_18
REMARK    9  A    between atoms: C_16  and  C_19
REMARK   10  A    between atoms: C_17  and  C_20
REMARK                            x       y       z     vdW  Elec       q    Type
REMARK                         _______ _______ _______ _____ _____    ______ ____
ROOT
ATOM      2  O   UNL     1      11.708   8.935  20.426  0.00  0.00    -0.366 OA
ATOM      9  C   UNL     1      12.892   6.893  20.121  0.00  0.00    +0.175 C 
ATOM     10  C   UNL     1      12.167   6.862  21.451  0.00  0.00    +0.176 C 
ATOM     11  C   UNL     1      12.885   8.383  19.792  0.00  0.00    +0.158 C 
ATOM     12  C   UNL     1      11.097   7.919  21.242  0.00  0.00    +0.167 C 
ENDROOT
BRANCH   9   3
ATOM      3  O   UNL     1      12.126   6.217  19.124  0.00  0.00    -0.387 OA
ATOM     26  H   UNL     1      12.753   5.831  18.489  0.00  0.00    +0.210 HD
ENDBRANCH   9   3
BRANCH  10   4
ATOM      4  O   UNL     1      11.614   5.600  21.756  0.00  0.00    -0.387 OA
ATOM     27  H   UNL     1      10.950   5.400  21.076  0.00  0.00    +0.210 HD
ENDBRANCH  10   4
BRANCH  11  13
ATOM     13  C   UNL     1      14.099   9.120  20.341  0.00  0.00    +0.130 C 
BRANCH  13  15
ATOM      5  O   UNL     1      15.644  10.814  19.572  0.00  0.00    -0.276 OA
ATOM      8  N   UNL     1      14.249   9.772  18.033  0.00  0.00    -0.313 N 
ATOM     15  C   UNL     1      14.763  10.003  19.301  0.00  0.00    +0.216 C 
ATOM     29  H   UNL     1      13.547   9.048  17.907  0.00  0.00    +0.149 HD
BRANCH   8  16
ATOM     16  C   UNL     1      14.702  10.478  16.857  0.00  0.00    +0.067 C 
ATOM     18  C   UNL     1      14.161  11.902  16.853  0.00  0.00    +0.027 C 
ATOM     19  C   UNL     1      14.294   9.729  15.594  0.00  0.00    +0.027 C 
ENDBRANCH   8  16
ENDBRANCH  13  15
ENDBRANCH  11  13
BRANCH  12  14
ATOM     14  C   UNL     1      10.597   8.535  22.535  0.00  0.00    +0.138 C 
BRANCH  14   7
ATOM      6  O   UNL     1      11.162  10.423  24.624  0.00  0.00    -0.270 OA
ATOM      7  N   UNL     1      10.533   9.964  22.438  0.00  0.00    -0.309 N 
ATOM     17  C   UNL     1      10.825  10.807  23.507  0.00  0.00    +0.244 C 
ATOM     28  H   UNL     1      10.313  10.350  21.526  0.00  0.00    +0.149 HD
BRANCH  17  20
ATOM      1  F   UNL     1      11.082  14.640  20.526  0.00  0.00    -0.205 F 
ATOM     20  C   UNL     1      10.685  12.264  23.251  0.00  0.00    +0.039 A 
ATOM     21  C   UNL     1      10.955  12.779  21.983  0.00  0.00    +0.051 A 
ATOM     22  C   UNL     1      10.285  13.117  24.280  0.00  0.00    +0.013 A 
ATOM     23  C   UNL     1      10.823  14.146  21.743  0.00  0.00    +0.124 A 
ATOM     24  C   UNL     1      10.153  14.485  24.040  0.00  0.00    +0.004 A 
ATOM     25  C   UNL     1      10.423  14.999  22.771  0.00  0.00    +0.038 A 
ENDBRANCH  17  20
ENDBRANCH  14   7
ENDBRANCH  12  14
TORSDOF 8
ENDMDL
