MODEL 1
REMARK VINA RESULT:      -6.7      0.000      0.000
REMARK  Name = 75367744
REMARK  6 active torsions:
REMARK  status: ('A' for Active; 'I' for Inactive)
REMARK    1  A    between atoms: O_2  and  C_8
REMARK    2  A    between atoms: O_2  and  C_14
REMARK    3  A    between atoms: O_5  and  C_22
REMARK    4  A    between atoms: O_5  and  C_24
REMARK    5  A    between atoms: C_13  and  C_15
REMARK    6  A    between atoms: C_19  and  C_23
REMARK                            x       y       z     vdW  Elec       q    Type
REMARK                         _______ _______ _______ _____ _____    ______ ____
ROOT
ATOM      1  O   UNL     1      15.115  10.976  16.262  0.00  0.00    -0.375 OA
ATOM      3  O   UNL     1      11.252   7.818  16.743  0.00  0.00    -0.268 OA
ATOM      6  N   UNL     1      13.317   8.765  17.323  0.00  0.00    -0.290 N 
ATOM      8  C   UNL     1      14.224  10.683  18.586  0.00  0.00    +0.216 C 
ATOM      9  C   UNL     1      14.283   9.174  18.355  0.00  0.00    +0.155 C 
ATOM     10  C   UNL     1      13.675   9.075  15.936  0.00  0.00    +0.136 C 
ATOM     11  C   UNL     1      15.051  11.495  17.585  0.00  0.00    +0.206 C 
ATOM     12  C   UNL     1      13.870  10.570  15.706  0.00  0.00    +0.179 C 
ATOM     13  C   UNL     1      12.089   8.142  17.584  0.00  0.00    +0.268 C 
ENDROOT
BRANCH  13  15
ATOM      4  O   UNL     1      11.559   6.689  20.799  0.00  0.00    -0.359 OA
ATOM      7  N   UNL     1      11.996   6.630  19.482  0.00  0.00    -0.073 NA
ATOM     15  C   UNL     1      11.748   7.843  18.980  0.00  0.00    +0.168 A 
ATOM     16  C   UNL     1      11.160   8.701  19.924  0.00  0.00    +0.080 A 
ATOM     19  C   UNL     1      11.063   7.929  21.051  0.00  0.00    +0.135 A 
ATOM     23  C   UNL     1      10.555   8.168  22.407  0.00  0.00    +0.089 C 
ENDBRANCH  13  15
BRANCH   8   2
ATOM      2  O   UNL     1      14.689  10.965  19.905  0.00  0.00    -0.485 OA
BRANCH   2  14
ATOM     14  C   UNL     1      13.733  11.215  20.850  0.00  0.00    +0.121 A 
ATOM     17  C   UNL     1      12.608  11.972  20.522  0.00  0.00    +0.049 A 
ATOM     18  C   UNL     1      13.882  10.713  22.143  0.00  0.00    +0.049 A 
ATOM     20  C   UNL     1      11.634  12.227  21.485  0.00  0.00    +0.049 A 
ATOM     21  C   UNL     1      12.907  10.969  23.107  0.00  0.00    +0.049 A 
ATOM     22  C   UNL     1      11.782  11.726  22.778  0.00  0.00    +0.120 A 
BRANCH  22   5
ATOM      5  O   UNL     1      10.831  11.974  23.719  0.00  0.00    -0.495 OA
ATOM     24  C   UNL     1      11.089  11.504  25.041  0.00  0.00    +0.277 C 
ENDBRANCH  22   5
ENDBRANCH   2  14
ENDBRANCH   8   2
TORSDOF 4
ENDMDL
MODEL 2
REMARK VINA RESULT:      -5.7      2.465      5.672
REMARK  Name = 75367744
REMARK  6 active torsions:
REMARK  status: ('A' for Active; 'I' for Inactive)
REMARK    1  A    between atoms: O_2  and  C_8
REMARK    2  A    between atoms: O_2  and  C_14
REMARK    3  A    between atoms: O_5  and  C_22
REMARK    4  A    between atoms: O_5  and  C_24
REMARK    5  A    between atoms: C_13  and  C_15
REMARK    6  A    between atoms: C_19  and  C_23
REMARK                            x       y       z     vdW  Elec       q    Type
REMARK                         _______ _______ _______ _____ _____    ______ ____
ROOT
ATOM      1  O   UNL     1      12.815  12.571  24.450  0.00  0.00    -0.375 OA
ATOM      3  O   UNL     1       9.862   8.840  22.872  0.00  0.00    -0.268 OA
ATOM      6  N   UNL     1      11.428  10.568  22.630  0.00  0.00    -0.290 N 
ATOM      8  C   UNL     1      13.857  10.955  22.843  0.00  0.00    +0.216 C 
ATOM      9  C   UNL     1      12.619  11.121  21.965  0.00  0.00    +0.155 C 
ATOM     10  C   UNL     1      10.862  11.366  23.721  0.00  0.00    +0.136 C 
ATOM     11  C   UNL     1      14.018  12.054  23.898  0.00  0.00    +0.206 C 
ATOM     12  C   UNL     1      11.859  11.595  24.852  0.00  0.00    +0.179 C 
ATOM     13  C   UNL     1      10.837   9.337  22.312  0.00  0.00    +0.268 C 
ENDROOT
BRANCH  13  15
ATOM      4  O   UNL     1      12.498   6.947  20.248  0.00  0.00    -0.359 OA
ATOM      7  N   UNL     1      12.089   7.428  21.486  0.00  0.00    -0.073 NA
ATOM     15  C   UNL     1      11.421   8.552  21.217  0.00  0.00    +0.168 A 
ATOM     16  C   UNL     1      11.375   8.830  19.841  0.00  0.00    +0.080 A 
ATOM     19  C   UNL     1      12.066   7.791  19.275  0.00  0.00    +0.135 A 
ATOM     23  C   UNL     1      12.413   7.432  17.895  0.00  0.00    +0.089 C 
ENDBRANCH  13  15
BRANCH   8   2
ATOM      2  O   UNL     1      15.015  10.943  22.010  0.00  0.00    -0.485 OA
BRANCH   2  14
ATOM     14  C   UNL     1      15.268   9.782  21.333  0.00  0.00    +0.121 A 
ATOM     17  C   UNL     1      15.270   9.772  19.938  0.00  0.00    +0.049 A 
ATOM     18  C   UNL     1      15.524   8.605  22.038  0.00  0.00    +0.049 A 
ATOM     20  C   UNL     1      15.528   8.588  19.249  0.00  0.00    +0.049 A 
ATOM     21  C   UNL     1      15.782   7.421  21.348  0.00  0.00    +0.049 A 
ATOM     22  C   UNL     1      15.784   7.413  19.953  0.00  0.00    +0.120 A 
BRANCH  22   5
ATOM      5  O   UNL     1      16.036   6.256  19.281  0.00  0.00    -0.495 OA
ATOM     24  C   UNL     1      17.405   5.886  19.119  0.00  0.00    +0.277 C 
ENDBRANCH  22   5
ENDBRANCH   2  14
ENDBRANCH   8   2
TORSDOF 4
ENDMDL
MODEL 3
REMARK VINA RESULT:      -5.5      2.691      5.841
REMARK  Name = 75367744
REMARK  6 active torsions:
REMARK  status: ('A' for Active; 'I' for Inactive)
REMARK    1  A    between atoms: O_2  and  C_8
REMARK    2  A    between atoms: O_2  and  C_14
REMARK    3  A    between atoms: O_5  and  C_22
REMARK    4  A    between atoms: O_5  and  C_24
REMARK    5  A    between atoms: C_13  and  C_15
REMARK    6  A    between atoms: C_19  and  C_23
REMARK                            x       y       z     vdW  Elec       q    Type
REMARK                         _______ _______ _______ _____ _____    ______ ____
ROOT
ATOM      1  O   UNL     1      16.678  10.164  21.442  0.00  0.00    -0.375 OA
ATOM      3  O   UNL     1      13.411   6.482  20.496  0.00  0.00    -0.268 OA
ATOM      6  N   UNL     1      14.089   8.706  20.795  0.00  0.00    -0.290 N 
ATOM      8  C   UNL     1      15.119  10.552  19.518  0.00  0.00    +0.216 C 
ATOM      9  C   UNL     1      13.975  10.128  20.437  0.00  0.00    +0.155 C 
ATOM     10  C   UNL     1      15.118   8.363  21.781  0.00  0.00    +0.136 C 
ATOM     11  C   UNL     1      16.409  10.910  20.262  0.00  0.00    +0.206 C 
ATOM     12  C   UNL     1      16.518   8.755  21.322  0.00  0.00    +0.179 C 
ATOM     13  C   UNL     1      13.315   7.679  20.237  0.00  0.00    +0.268 C 
ENDROOT
BRANCH  13  15
ATOM      4  O   UNL     1      10.355   8.623  18.481  0.00  0.00    -0.359 OA
ATOM      7  N   UNL     1      11.049   8.327  19.648  0.00  0.00    -0.073 NA
ATOM     15  C   UNL     1      12.292   8.044  19.248  0.00  0.00    +0.168 A 
ATOM     16  C   UNL     1      12.440   8.144  17.855  0.00  0.00    +0.080 A 
ATOM     19  C   UNL     1      11.195   8.511  17.420  0.00  0.00    +0.135 A 
ATOM     23  C   UNL     1      10.621   8.792  16.098  0.00  0.00    +0.089 C 
ENDBRANCH  13  15
BRANCH   8   2
ATOM      2  O   UNL     1      14.701  11.678  18.750  0.00  0.00    -0.485 OA
BRANCH   2  14
ATOM     14  C   UNL     1      14.833  11.574  17.393  0.00  0.00    +0.121 A 
ATOM     17  C   UNL     1      15.914  12.177  16.748  0.00  0.00    +0.049 A 
ATOM     18  C   UNL     1      13.887  10.866  16.652  0.00  0.00    +0.049 A 
ATOM     20  C   UNL     1      16.048  12.072  15.365  0.00  0.00    +0.049 A 
ATOM     21  C   UNL     1      14.021  10.761  15.267  0.00  0.00    +0.049 A 
ATOM     22  C   UNL     1      15.102  11.364  14.624  0.00  0.00    +0.120 A 
BRANCH  22   5
ATOM      5  O   UNL     1      15.233  11.261  13.273  0.00  0.00    -0.495 OA
ATOM     24  C   UNL     1      16.237  12.066  12.656  0.00  0.00    +0.277 C 
ENDBRANCH  22   5
ENDBRANCH   2  14
ENDBRANCH   8   2
TORSDOF 4
ENDMDL
MODEL 4
REMARK VINA RESULT:      -5.4      2.145      6.435
REMARK  Name = 75367744
REMARK  6 active torsions:
REMARK  status: ('A' for Active; 'I' for Inactive)
REMARK    1  A    between atoms: O_2  and  C_8
REMARK    2  A    between atoms: O_2  and  C_14
REMARK    3  A    between atoms: O_5  and  C_22
REMARK    4  A    between atoms: O_5  and  C_24
REMARK    5  A    between atoms: C_13  and  C_15
REMARK    6  A    between atoms: C_19  and  C_23
REMARK                            x       y       z     vdW  Elec       q    Type
REMARK                         _______ _______ _______ _____ _____    ______ ____
ROOT
ATOM      1  O   UNL     1      11.523   6.397  21.225  0.00  0.00    -0.375 OA
ATOM      3  O   UNL     1      10.821  11.161  22.620  0.00  0.00    -0.268 OA
ATOM      6  N   UNL     1      12.084   9.251  22.114  0.00  0.00    -0.290 N 
ATOM      8  C   UNL     1      13.037   8.085  20.157  0.00  0.00    +0.216 C 
ATOM      9  C   UNL     1      13.301   8.644  21.553  0.00  0.00    +0.155 C 
ATOM     10  C   UNL     1      11.053   8.324  22.590  0.00  0.00    +0.136 C 
ATOM     11  C   UNL     1      12.418   6.683  20.159  0.00  0.00    +0.206 C 
ATOM     12  C   UNL     1      10.547   7.400  21.488  0.00  0.00    +0.179 C 
ATOM     13  C   UNL     1      11.842  10.630  22.185  0.00  0.00    +0.268 C 
ENDROOT
BRANCH  13  15
ATOM      4  O   UNL     1      14.695  12.725  21.735  0.00  0.00    -0.359 OA
ATOM      7  N   UNL     1      13.912  11.861  22.491  0.00  0.00    -0.073 NA
ATOM     15  C   UNL     1      12.885  11.542  21.700  0.00  0.00    +0.168 A 
ATOM     16  C   UNL     1      12.964  12.167  20.444  0.00  0.00    +0.080 A 
ATOM     19  C   UNL     1      14.120  12.898  20.517  0.00  0.00    +0.135 A 
ATOM     23  C   UNL     1      14.821  13.787  19.582  0.00  0.00    +0.089 C 
ENDBRANCH  13  15
BRANCH   8   2
ATOM      2  O   UNL     1      14.267   8.046  19.436  0.00  0.00    -0.485 OA
BRANCH   2  14
ATOM     14  C   UNL     1      14.293   8.702  18.237  0.00  0.00    +0.121 A 
ATOM     17  C   UNL     1      14.582  10.066  18.192  0.00  0.00    +0.049 A 
ATOM     18  C   UNL     1      14.030   8.007  17.056  0.00  0.00    +0.049 A 
ATOM     20  C   UNL     1      14.608  10.734  16.969  0.00  0.00    +0.049 A 
ATOM     21  C   UNL     1      14.055   8.676  15.832  0.00  0.00    +0.049 A 
ATOM     22  C   UNL     1      14.345  10.040  15.789  0.00  0.00    +0.120 A 
BRANCH  22   5
ATOM      5  O   UNL     1      14.370  10.692  14.595  0.00  0.00    -0.495 OA
ATOM     24  C   UNL     1      15.643  11.139  14.128  0.00  0.00    +0.277 C 
ENDBRANCH  22   5
ENDBRANCH   2  14
ENDBRANCH   8   2
TORSDOF 4
ENDMDL
MODEL 5
REMARK VINA RESULT:      -5.3      2.569      5.492
REMARK  Name = 75367744
REMARK  6 active torsions:
REMARK  status: ('A' for Active; 'I' for Inactive)
REMARK    1  A    between atoms: O_2  and  C_8
REMARK    2  A    between atoms: O_2  and  C_14
REMARK    3  A    between atoms: O_5  and  C_22
REMARK    4  A    between atoms: O_5  and  C_24
REMARK    5  A    between atoms: C_13  and  C_15
REMARK    6  A    between atoms: C_19  and  C_23
REMARK                            x       y       z     vdW  Elec       q    Type
REMARK                         _______ _______ _______ _____ _____    ______ ____
ROOT
ATOM      1  O   UNL     1      12.997  14.536  21.919  0.00  0.00    -0.375 OA
ATOM      3  O   UNL     1      11.309  10.728  24.709  0.00  0.00    -0.268 OA
ATOM      6  N   UNL     1      11.542  11.998  22.753  0.00  0.00    -0.290 N 
ATOM      8  C   UNL     1      13.097  12.269  20.854  0.00  0.00    +0.216 C 
ATOM      9  C   UNL     1      11.647  12.066  21.287  0.00  0.00    +0.155 C 
ATOM     10  C   UNL     1      11.667  13.268  23.475  0.00  0.00    +0.136 C 
ATOM     11  C   UNL     1      13.554  13.731  20.889  0.00  0.00    +0.206 C 
ATOM     12  C   UNL     1      13.004  13.954  23.219  0.00  0.00    +0.179 C 
ATOM     13  C   UNL     1      11.369  10.815  23.485  0.00  0.00    +0.268 C 
ENDROOT
BRANCH  13  15
ATOM      4  O   UNL     1      10.290   7.874  21.777  0.00  0.00    -0.359 OA
ATOM      7  N   UNL     1      10.042   9.049  22.477  0.00  0.00    -0.073 NA
ATOM     15  C   UNL     1      11.249   9.554  22.743  0.00  0.00    +0.168 A 
ATOM     16  C   UNL     1      12.287   8.750  22.240  0.00  0.00    +0.080 A 
ATOM     19  C   UNL     1      11.631   7.708  21.642  0.00  0.00    +0.135 A 
ATOM     23  C   UNL     1      12.073   6.508  20.921  0.00  0.00    +0.089 C 
ENDBRANCH  13  15
BRANCH   8   2
ATOM      2  O   UNL     1      13.257  11.767  19.529  0.00  0.00    -0.485 OA
BRANCH   2  14
ATOM     14  C   UNL     1      13.833  10.532  19.409  0.00  0.00    +0.121 A 
ATOM     17  C   UNL     1      13.302   9.597  18.520  0.00  0.00    +0.049 A 
ATOM     18  C   UNL     1      14.953  10.207  20.176  0.00  0.00    +0.049 A 
ATOM     20  C   UNL     1      13.889   8.339  18.399  0.00  0.00    +0.049 A 
ATOM     21  C   UNL     1      15.539   8.948  20.054  0.00  0.00    +0.049 A 
ATOM     22  C   UNL     1      15.008   8.013  19.165  0.00  0.00    +0.120 A 
BRANCH  22   5
ATOM      5  O   UNL     1      15.581   6.785  19.047  0.00  0.00    -0.495 OA
ATOM     24  C   UNL     1      16.818   6.579  19.729  0.00  0.00    +0.277 C 
ENDBRANCH  22   5
ENDBRANCH   2  14
ENDBRANCH   8   2
TORSDOF 4
ENDMDL
MODEL 6
REMARK VINA RESULT:      -5.3     26.184     28.927
REMARK  Name = 75367744
REMARK  6 active torsions:
REMARK  status: ('A' for Active; 'I' for Inactive)
REMARK    1  A    between atoms: O_2  and  C_8
REMARK    2  A    between atoms: O_2  and  C_14
REMARK    3  A    between atoms: O_5  and  C_22
REMARK    4  A    between atoms: O_5  and  C_24
REMARK    5  A    between atoms: C_13  and  C_15
REMARK    6  A    between atoms: C_19  and  C_23
REMARK                            x       y       z     vdW  Elec       q    Type
REMARK                         _______ _______ _______ _____ _____    ______ ____
ROOT
ATOM      1  O   UNL     1     -10.823  -9.215  15.670  0.00  0.00    -0.375 OA
ATOM      3  O   UNL     1      -9.032 -10.703  20.109  0.00  0.00    -0.268 OA
ATOM      6  N   UNL     1      -9.358 -10.829  17.791  0.00  0.00    -0.290 N 
ATOM      8  C   UNL     1      -8.416  -9.913  15.701  0.00  0.00    +0.216 C 
ATOM      9  C   UNL     1      -8.850 -11.169  16.452  0.00  0.00    +0.155 C 
ATOM     10  C   UNL     1     -10.696 -10.232  17.848  0.00  0.00    +0.136 C 
ATOM     11  C   UNL     1      -9.566  -9.178  15.006  0.00  0.00    +0.206 C 
ATOM     12  C   UNL     1     -10.784  -8.928  17.063  0.00  0.00    +0.179 C 
ATOM     13  C   UNL     1      -8.642 -11.007  18.983  0.00  0.00    +0.268 C 
ENDROOT
BRANCH  13  15
ATOM      4  O   UNL     1      -5.749 -12.976  18.293  0.00  0.00    -0.359 OA
ATOM      7  N   UNL     1      -7.097 -12.679  18.139  0.00  0.00    -0.073 NA
ATOM     15  C   UNL     1      -7.304 -11.604  18.904  0.00  0.00    +0.168 A 
ATOM     16  C   UNL     1      -6.134 -11.181  19.558  0.00  0.00    +0.080 A 
ATOM     19  C   UNL     1      -5.186 -12.076  19.140  0.00  0.00    +0.135 A 
ATOM     23  C   UNL     1      -3.754 -12.243  19.416  0.00  0.00    +0.089 C 
ENDBRANCH  13  15
BRANCH   8   2
ATOM      2  O   UNL     1      -7.441 -10.274  14.724  0.00  0.00    -0.485 OA
BRANCH   2  14
ATOM     14  C   UNL     1      -6.159 -10.436  15.171  0.00  0.00    +0.121 A 
ATOM     17  C   UNL     1      -5.349 -11.431  14.624  0.00  0.00    +0.049 A 
ATOM     18  C   UNL     1      -5.660  -9.604  16.174  0.00  0.00    +0.049 A 
ATOM     20  C   UNL     1      -4.042 -11.595  15.080  0.00  0.00    +0.049 A 
ATOM     21  C   UNL     1      -4.352  -9.770  16.631  0.00  0.00    +0.049 A 
ATOM     22  C   UNL     1      -3.543 -10.765  16.083  0.00  0.00    +0.120 A 
BRANCH  22   5
ATOM      5  O   UNL     1      -2.267 -10.925  16.528  0.00  0.00    -0.495 OA
ATOM     24  C   UNL     1      -1.223 -10.415  15.699  0.00  0.00    +0.277 C 
ENDBRANCH  22   5
ENDBRANCH   2  14
ENDBRANCH   8   2
TORSDOF 4
ENDMDL
MODEL 7
REMARK VINA RESULT:      -5.1      2.763      4.910
REMARK  Name = 75367744
REMARK  6 active torsions:
REMARK  status: ('A' for Active; 'I' for Inactive)
REMARK    1  A    between atoms: O_2  and  C_8
REMARK    2  A    between atoms: O_2  and  C_14
REMARK    3  A    between atoms: O_5  and  C_22
REMARK    4  A    between atoms: O_5  and  C_24
REMARK    5  A    between atoms: C_13  and  C_15
REMARK    6  A    between atoms: C_19  and  C_23
REMARK                            x       y       z     vdW  Elec       q    Type
REMARK                         _______ _______ _______ _____ _____    ______ ____
ROOT
ATOM      1  O   UNL     1      14.267   6.578  19.418  0.00  0.00    -0.375 OA
ATOM      3  O   UNL     1      17.608   9.313  21.964  0.00  0.00    -0.268 OA
ATOM      6  N   UNL     1      15.878   8.954  20.424  0.00  0.00    -0.290 N 
ATOM      8  C   UNL     1      13.419   8.737  20.367  0.00  0.00    +0.216 C 
ATOM      9  C   UNL     1      14.647   9.416  19.764  0.00  0.00    +0.155 C 
ATOM     10  C   UNL     1      16.343   7.610  20.067  0.00  0.00    +0.136 C 
ATOM     11  C   UNL     1      13.131   7.350  19.785  0.00  0.00    +0.206 C 
ATOM     12  C   UNL     1      15.311   6.533  20.385  0.00  0.00    +0.179 C 
ATOM     13  C   UNL     1      16.596   9.689  21.377  0.00  0.00    +0.268 C 
ENDROOT
BRANCH  13  15
ATOM      4  O   UNL     1      15.917  13.183  21.631  0.00  0.00    -0.359 OA
ATOM      7  N   UNL     1      16.569  12.097  21.061  0.00  0.00    -0.073 NA
ATOM     15  C   UNL     1      16.112  11.031  21.723  0.00  0.00    +0.168 A 
ATOM     16  C   UNL     1      15.177  11.379  22.713  0.00  0.00    +0.080 A 
ATOM     19  C   UNL     1      15.090  12.742  22.614  0.00  0.00    +0.135 A 
ATOM     23  C   UNL     1      14.316  13.766  23.327  0.00  0.00    +0.089 C 
ENDBRANCH  13  15
BRANCH   8   2
ATOM      2  O   UNL     1      12.281   9.571  20.157  0.00  0.00    -0.485 OA
BRANCH   2  14
ATOM     14  C   UNL     1      11.792  10.225  21.254  0.00  0.00    +0.121 A 
ATOM     17  C   UNL     1      11.416   9.504  22.387  0.00  0.00    +0.049 A 
ATOM     18  C   UNL     1      11.670  11.615  21.240  0.00  0.00    +0.049 A 
ATOM     20  C   UNL     1      10.918  10.172  23.505  0.00  0.00    +0.049 A 
ATOM     21  C   UNL     1      11.171  12.283  22.358  0.00  0.00    +0.049 A 
ATOM     22  C   UNL     1      10.795  11.561  23.491  0.00  0.00    +0.120 A 
BRANCH  22   5
ATOM      5  O   UNL     1      10.309  12.213  24.582  0.00  0.00    -0.495 OA
ATOM     24  C   UNL     1      10.432  13.635  24.595  0.00  0.00    +0.277 C 
ENDBRANCH  22   5
ENDBRANCH   2  14
ENDBRANCH   8   2
TORSDOF 4
ENDMDL
MODEL 8
REMARK VINA RESULT:      -5.1     29.667     31.527
REMARK  Name = 75367744
REMARK  6 active torsions:
REMARK  status: ('A' for Active; 'I' for Inactive)
REMARK    1  A    between atoms: O_2  and  C_8
REMARK    2  A    between atoms: O_2  and  C_14
REMARK    3  A    between atoms: O_5  and  C_22
REMARK    4  A    between atoms: O_5  and  C_24
REMARK    5  A    between atoms: C_13  and  C_15
REMARK    6  A    between atoms: C_19  and  C_23
REMARK                            x       y       z     vdW  Elec       q    Type
REMARK                         _______ _______ _______ _____ _____    ______ ____
ROOT
ATOM      1  O   UNL     1     -16.746   6.692  31.773  0.00  0.00    -0.375 OA
ATOM      3  O   UNL     1     -12.677   3.812  32.296  0.00  0.00    -0.268 OA
ATOM      6  N   UNL     1     -14.977   4.263  32.242  0.00  0.00    -0.290 N 
ATOM      8  C   UNL     1     -16.820   4.473  30.611  0.00  0.00    +0.216 C 
ATOM      9  C   UNL     1     -16.348   3.839  31.919  0.00  0.00    +0.155 C 
ATOM     10  C   UNL     1     -14.820   5.629  32.751  0.00  0.00    +0.136 C 
ATOM     11  C   UNL     1     -17.368   5.894  30.775  0.00  0.00    +0.206 C 
ATOM     12  C   UNL     1     -15.323   6.679  31.765  0.00  0.00    +0.179 C 
ATOM     13  C   UNL     1     -13.835   3.470  32.063  0.00  0.00    +0.268 C 
ENDROOT
BRANCH  13  15
ATOM      4  O   UNL     1     -14.641   0.038  31.516  0.00  0.00    -0.359 OA
ATOM      7  N   UNL     1     -14.650   1.194  32.287  0.00  0.00    -0.073 NA
ATOM     15  C   UNL     1     -14.013   2.107  31.549  0.00  0.00    +0.168 A 
ATOM     16  C   UNL     1     -13.582   1.590  30.315  0.00  0.00    +0.080 A 
ATOM     19  C   UNL     1     -14.002   0.287  30.344  0.00  0.00    +0.135 A 
ATOM     23  C   UNL     1     -13.900  -0.835  29.402  0.00  0.00    +0.089 C 
ENDBRANCH  13  15
BRANCH   8   2
ATOM      2  O   UNL     1     -17.834   3.649  30.039  0.00  0.00    -0.485 OA
BRANCH   2  14
ATOM     14  C   UNL     1     -17.511   2.998  28.882  0.00  0.00    +0.121 A 
ATOM     17  C   UNL     1     -17.641   3.648  27.654  0.00  0.00    +0.049 A 
ATOM     18  C   UNL     1     -17.051   1.681  28.927  0.00  0.00    +0.049 A 
ATOM     20  C   UNL     1     -17.312   2.983  26.474  0.00  0.00    +0.049 A 
ATOM     21  C   UNL     1     -16.723   1.016  27.746  0.00  0.00    +0.049 A 
ATOM     22  C   UNL     1     -16.853   1.668  26.519  0.00  0.00    +0.120 A 
BRANCH  22   5
ATOM      5  O   UNL     1     -16.532   1.018  25.367  0.00  0.00    -0.495 OA
ATOM     24  C   UNL     1     -17.590   0.346  24.685  0.00  0.00    +0.277 C 
ENDBRANCH  22   5
ENDBRANCH   2  14
ENDBRANCH   8   2
TORSDOF 4
ENDMDL
MODEL 9
REMARK VINA RESULT:      -5.1     12.681     16.148
REMARK  Name = 75367744
REMARK  6 active torsions:
REMARK  status: ('A' for Active; 'I' for Inactive)
REMARK    1  A    between atoms: O_2  and  C_8
REMARK    2  A    between atoms: O_2  and  C_14
REMARK    3  A    between atoms: O_5  and  C_22
REMARK    4  A    between atoms: O_5  and  C_24
REMARK    5  A    between atoms: C_13  and  C_15
REMARK    6  A    between atoms: C_19  and  C_23
REMARK                            x       y       z     vdW  Elec       q    Type
REMARK                         _______ _______ _______ _____ _____    ______ ____
ROOT
ATOM      1  O   UNL     1       8.318  11.170   4.077  0.00  0.00    -0.375 OA
ATOM      3  O   UNL     1      10.910   9.888   8.171  0.00  0.00    -0.268 OA
ATOM      6  N   UNL     1       9.205   9.680   6.575  0.00  0.00    -0.290 N 
ATOM      8  C   UNL     1       8.832   8.730   4.327  0.00  0.00    +0.216 C 
ATOM      9  C   UNL     1       8.321   8.830   5.763  0.00  0.00    +0.155 C 
ATOM     10  C   UNL     1       9.105  11.126   6.351  0.00  0.00    +0.136 C 
ATOM     11  C   UNL     1       8.411   9.903   3.438  0.00  0.00    +0.206 C 
ATOM     12  C   UNL     1       9.419  11.514   4.911  0.00  0.00    +0.179 C 
ATOM     13  C   UNL     1      10.140   9.201   7.503  0.00  0.00    +0.268 C 
ENDROOT
BRANCH  13  15
ATOM      4  O   UNL     1      11.033   5.747   7.588  0.00  0.00    -0.359 OA
ATOM      7  N   UNL     1      11.262   7.066   7.216  0.00  0.00    -0.073 NA
ATOM     15  C   UNL     1      10.227   7.750   7.711  0.00  0.00    +0.168 A 
ATOM     16  C   UNL     1       9.322   6.924   8.399  0.00  0.00    +0.080 A 
ATOM     19  C   UNL     1       9.874   5.676   8.293  0.00  0.00    +0.135 A 
ATOM     23  C   UNL     1       9.478   4.345   8.768  0.00  0.00    +0.089 C 
ENDBRANCH  13  15
BRANCH   8   2
ATOM      2  O   UNL     1       8.352   7.517   3.750  0.00  0.00    -0.485 OA
BRANCH   2  14
ATOM     14  C   UNL     1       9.294   6.588   3.407  0.00  0.00    +0.121 A 
ATOM     17  C   UNL     1       9.847   6.595   2.126  0.00  0.00    +0.049 A 
ATOM     18  C   UNL     1       9.703   5.633   4.337  0.00  0.00    +0.049 A 
ATOM     20  C   UNL     1      10.808   5.647   1.776  0.00  0.00    +0.049 A 
ATOM     21  C   UNL     1      10.664   4.684   3.987  0.00  0.00    +0.049 A 
ATOM     22  C   UNL     1      11.216   4.692   2.706  0.00  0.00    +0.120 A 
BRANCH  22   5
ATOM      5  O   UNL     1      12.155   3.767   2.365  0.00  0.00    -0.495 OA
ATOM     24  C   UNL     1      12.778   3.916   1.090  0.00  0.00    +0.277 C 
ENDBRANCH  22   5
ENDBRANCH   2  14
ENDBRANCH   8   2
TORSDOF 4
ENDMDL
MODEL 10
REMARK VINA RESULT:      -5.0     25.618     28.053
REMARK  Name = 75367744
REMARK  6 active torsions:
REMARK  status: ('A' for Active; 'I' for Inactive)
REMARK    1  A    between atoms: O_2  and  C_8
REMARK    2  A    between atoms: O_2  and  C_14
REMARK    3  A    between atoms: O_5  and  C_22
REMARK    4  A    between atoms: O_5  and  C_24
REMARK    5  A    between atoms: C_13  and  C_15
REMARK    6  A    between atoms: C_19  and  C_23
REMARK                            x       y       z     vdW  Elec       q    Type
REMARK                         _______ _______ _______ _____ _____    ______ ____
ROOT
ATOM      1  O   UNL     1      -7.711 -10.024  10.786  0.00  0.00    -0.375 OA
ATOM      3  O   UNL     1      -3.197 -12.187  11.054  0.00  0.00    -0.268 OA
ATOM      6  N   UNL     1      -4.824 -10.579  11.566  0.00  0.00    -0.290 N 
ATOM      8  C   UNL     1      -6.742 -10.255  13.087  0.00  0.00    +0.216 C 
ATOM      9  C   UNL     1      -5.446  -9.664  12.536  0.00  0.00    +0.155 C 
ATOM     10  C   UNL     1      -5.451 -10.650  10.243  0.00  0.00    +0.136 C 
ATOM     11  C   UNL     1      -7.960 -10.022  12.186  0.00  0.00    +0.206 C 
ATOM     12  C   UNL     1      -6.907 -11.098  10.312  0.00  0.00    +0.179 C 
ATOM     13  C   UNL     1      -3.716 -11.394  11.836  0.00  0.00    +0.268 C 
ENDROOT
BRANCH  13  15
ATOM      4  O   UNL     1      -2.757 -11.771  15.252  0.00  0.00    -0.359 OA
ATOM      7  N   UNL     1      -3.535 -12.105  14.151  0.00  0.00    -0.073 NA
ATOM     15  C   UNL     1      -3.104 -11.310  13.168  0.00  0.00    +0.168 A 
ATOM     16  C   UNL     1      -2.066 -10.460  13.586  0.00  0.00    +0.080 A 
ATOM     19  C   UNL     1      -1.885 -10.790  14.903  0.00  0.00    +0.135 A 
ATOM     23  C   UNL     1      -0.979 -10.313  15.955  0.00  0.00    +0.089 C 
ENDBRANCH  13  15
BRANCH   8   2
ATOM      2  O   UNL     1      -7.000  -9.686  14.369  0.00  0.00    -0.485 OA
BRANCH   2  14
ATOM     14  C   UNL     1      -6.511 -10.366  15.449  0.00  0.00    +0.121 A 
ATOM     17  C   UNL     1      -6.913 -11.679  15.689  0.00  0.00    +0.049 A 
ATOM     18  C   UNL     1      -5.607  -9.745  16.312  0.00  0.00    +0.049 A 
ATOM     20  C   UNL     1      -6.413 -12.372  16.791  0.00  0.00    +0.049 A 
ATOM     21  C   UNL     1      -5.108 -10.438  17.415  0.00  0.00    +0.049 A 
ATOM     22  C   UNL     1      -5.511 -11.752  17.654  0.00  0.00    +0.120 A 
BRANCH  22   5
ATOM      5  O   UNL     1      -5.023 -12.428  18.730  0.00  0.00    -0.495 OA
ATOM     24  C   UNL     1      -3.707 -12.087  19.166  0.00  0.00    +0.277 C 
ENDBRANCH  22   5
ENDBRANCH   2  14
ENDBRANCH   8   2
TORSDOF 4
ENDMDL
