MODEL 1
REMARK VINA RESULT:      -6.5      0.000      0.000
REMARK  Name = 38029875
REMARK  8 active torsions:
REMARK  status: ('A' for Active; 'I' for Inactive)
REMARK    1  A    between atoms: C_7  and  C_11
REMARK    2  A    between atoms: C_9  and  C_15
REMARK    3  A    between atoms: C_10  and  C_14
REMARK    4  A    between atoms: C_11  and  C_16
REMARK    5  A    between atoms: C_11  and  C_17
REMARK    6  A    between atoms: C_12  and  C_19
REMARK    7  A    between atoms: C_14  and  C_18
REMARK    8  A    between atoms: C_15  and  C_24
REMARK                            x       y       z     vdW  Elec       q    Type
REMARK                         _______ _______ _______ _____ _____    ______ ____
ROOT
ATOM     14  C   UNL     1      15.538   8.647  20.918  0.00  0.00    +0.103 C 
ENDROOT
BRANCH  14  18
ATOM      1  O   UNL     1      16.809  10.228  22.152  0.00  0.00    -0.276 OA
ATOM      2  N   UNL     1      17.899   8.274  21.528  0.00  0.00    -0.298 N 
ATOM      3  N   UNL     1      20.175   6.488  21.642  0.00  0.00    -0.311 N 
ATOM      5  N   UNL     1      21.839   5.164  20.596  0.00  0.00    -0.237 NA
ATOM      6  N   UNL     1      22.724   4.379  23.139  0.00  0.00    -0.258 NA
ATOM     18  C   UNL     1      16.799   9.129  21.592  0.00  0.00    +0.216 C 
ATOM     20  C   UNL     1      19.158   8.672  22.151  0.00  0.00    +0.126 C 
ATOM     21  C   UNL     1      17.883   6.964  20.871  0.00  0.00    +0.126 C 
ATOM     22  C   UNL     1      19.929   7.473  22.699  0.00  0.00    +0.125 C 
ATOM     23  C   UNL     1      19.280   6.480  20.482  0.00  0.00    +0.125 C 
ATOM     25  C   UNL     1      21.253   5.611  21.725  0.00  0.00    +0.140 A 
ATOM     26  C   UNL     1      21.688   5.225  22.973  0.00  0.00    +0.154 A 
ATOM     27  C   UNL     1      22.875   4.318  20.761  0.00  0.00    +0.132 A 
ATOM     28  C   UNL     1      23.310   3.932  22.010  0.00  0.00    +0.130 A 
ENDBRANCH  14  18
BRANCH  14  10
ATOM      7  C   UNL     1      12.363   8.260  20.567  0.00  0.00    -0.000 C 
ATOM      8  C   UNL     1      13.142   9.015  21.656  0.00  0.00    +0.012 C 
ATOM      9  C   UNL     1      11.964   9.224  19.422  0.00  0.00    +0.029 C 
ATOM     10  C   UNL     1      14.419   9.676  21.106  0.00  0.00    +0.023 C 
ATOM     12  C   UNL     1      14.154  10.431  19.818  0.00  0.00    -0.073 C 
ATOM     13  C   UNL     1      13.044  10.224  19.087  0.00  0.00    -0.023 C 
ATOM     19  C   UNL     1      15.171  11.461  19.415  0.00  0.00    +0.039 C 
BRANCH   7  11
ATOM     11  C   UNL     1      11.142   7.572  21.184  0.00  0.00    -0.013 C 
ATOM     16  C   UNL     1      11.445   6.104  21.467  0.00  0.00    +0.007 C 
ATOM     17  C   UNL     1      10.714   8.292  22.459  0.00  0.00    +0.007 C 
ENDBRANCH   7  11
BRANCH   9  15
ATOM     15  C   UNL     1      11.574   8.449  18.158  0.00  0.00    +0.126 C 
BRANCH  15  24
ATOM      4  N   UNL     1      13.706   7.480  16.977  0.00  0.00    -0.197 NA
ATOM     24  C   UNL     1      12.760   7.903  17.499  0.00  0.00    +0.063 C 
ENDBRANCH  15  24
ENDBRANCH   9  15
ENDBRANCH  14  10
TORSDOF 5
ENDMDL
MODEL 2
REMARK VINA RESULT:      -6.3      2.652      9.265
REMARK  Name = 38029875
REMARK  8 active torsions:
REMARK  status: ('A' for Active; 'I' for Inactive)
REMARK    1  A    between atoms: C_7  and  C_11
REMARK    2  A    between atoms: C_9  and  C_15
REMARK    3  A    between atoms: C_10  and  C_14
REMARK    4  A    between atoms: C_11  and  C_16
REMARK    5  A    between atoms: C_11  and  C_17
REMARK    6  A    between atoms: C_12  and  C_19
REMARK    7  A    between atoms: C_14  and  C_18
REMARK    8  A    between atoms: C_15  and  C_24
REMARK                            x       y       z     vdW  Elec       q    Type
REMARK                         _______ _______ _______ _____ _____    ______ ____
ROOT
ATOM     14  C   UNL     1      18.920   6.166  21.080  0.00  0.00    +0.103 C 
ENDROOT
BRANCH  14  18
ATOM      1  O   UNL     1      18.053   5.788  18.901  0.00  0.00    -0.276 OA
ATOM      2  N   UNL     1      16.614   6.768  20.440  0.00  0.00    -0.298 N 
ATOM      3  N   UNL     1      13.986   7.691  21.229  0.00  0.00    -0.311 N 
ATOM      5  N   UNL     1      12.535   9.350  22.102  0.00  0.00    -0.237 NA
ATOM      6  N   UNL     1      10.416   7.526  21.873  0.00  0.00    -0.258 NA
ATOM     18  C   UNL     1      17.831   6.217  20.036  0.00  0.00    +0.216 C 
ATOM     20  C   UNL     1      15.513   6.858  19.486  0.00  0.00    +0.126 C 
ATOM     21  C   UNL     1      16.348   7.268  21.791  0.00  0.00    +0.126 C 
ATOM     22  C   UNL     1      14.154   6.698  20.165  0.00  0.00    +0.125 C 
ATOM     23  C   UNL     1      15.190   8.264  21.836  0.00  0.00    +0.125 C 
ATOM     25  C   UNL     1      12.715   8.102  21.624  0.00  0.00    +0.140 A 
ATOM     26  C   UNL     1      11.675   7.207  21.512  0.00  0.00    +0.154 A 
ATOM     27  C   UNL     1      11.277   9.670  22.463  0.00  0.00    +0.132 A 
ATOM     28  C   UNL     1      10.236   8.774  22.351  0.00  0.00    +0.130 A 
ENDBRANCH  14  18
BRANCH  14  10
ATOM      7  C   UNL     1      21.997   5.616  21.838  0.00  0.00    -0.000 C 
ATOM      8  C   UNL     1      21.363   5.888  20.466  0.00  0.00    +0.012 C 
ATOM      9  C   UNL     1      22.498   6.936  22.475  0.00  0.00    +0.029 C 
ATOM     10  C   UNL     1      20.177   6.867  20.557  0.00  0.00    +0.023 C 
ATOM     12  C   UNL     1      20.512   8.081  21.401  0.00  0.00    -0.073 C 
ATOM     13  C   UNL     1      21.561   8.097  22.242  0.00  0.00    -0.023 C 
ATOM     19  C   UNL     1      19.639   9.292  21.222  0.00  0.00    +0.039 C 
BRANCH   7  11
ATOM     11  C   UNL     1      23.125   4.589  21.695  0.00  0.00    -0.013 C 
ATOM     16  C   UNL     1      22.554   3.177  21.622  0.00  0.00    +0.007 C 
ATOM     17  C   UNL     1      23.968   4.896  20.460  0.00  0.00    +0.007 C 
ENDBRANCH   7  11
BRANCH   9  15
ATOM     15  C   UNL     1      22.741   6.768  23.979  0.00  0.00    +0.126 C 
BRANCH  15  24
ATOM      4  N   UNL     1      20.465   6.560  25.268  0.00  0.00    -0.197 NA
ATOM     24  C   UNL     1      21.473   6.645  24.698  0.00  0.00    +0.063 C 
ENDBRANCH  15  24
ENDBRANCH   9  15
ENDBRANCH  14  10
TORSDOF 5
ENDMDL
MODEL 3
REMARK VINA RESULT:      -6.3      1.578      2.332
REMARK  Name = 38029875
REMARK  8 active torsions:
REMARK  status: ('A' for Active; 'I' for Inactive)
REMARK    1  A    between atoms: C_7  and  C_11
REMARK    2  A    between atoms: C_9  and  C_15
REMARK    3  A    between atoms: C_10  and  C_14
REMARK    4  A    between atoms: C_11  and  C_16
REMARK    5  A    between atoms: C_11  and  C_17
REMARK    6  A    between atoms: C_12  and  C_19
REMARK    7  A    between atoms: C_14  and  C_18
REMARK    8  A    between atoms: C_15  and  C_24
REMARK                            x       y       z     vdW  Elec       q    Type
REMARK                         _______ _______ _______ _____ _____    ______ ____
ROOT
ATOM     14  C   UNL     1      15.376   8.311  21.195  0.00  0.00    +0.103 C 
ENDROOT
BRANCH  14  18
ATOM      1  O   UNL     1      16.782  10.101  21.869  0.00  0.00    -0.276 OA
ATOM      2  N   UNL     1      17.809   8.049  21.507  0.00  0.00    -0.298 N 
ATOM      3  N   UNL     1      20.114   6.303  21.645  0.00  0.00    -0.311 N 
ATOM      5  N   UNL     1      21.632   4.772  20.659  0.00  0.00    -0.237 NA
ATOM      6  N   UNL     1      22.903   4.526  23.146  0.00  0.00    -0.258 NA
ATOM     18  C   UNL     1      16.713   8.910  21.557  0.00  0.00    +0.216 C 
ATOM     20  C   UNL     1      19.138   8.555  21.838  0.00  0.00    +0.126 C 
ATOM     21  C   UNL     1      17.723   6.631  21.147  0.00  0.00    +0.126 C 
ATOM     22  C   UNL     1      20.007   7.488  22.500  0.00  0.00    +0.125 C 
ATOM     23  C   UNL     1      19.056   6.062  20.661  0.00  0.00    +0.125 C 
ATOM     25  C   UNL     1      21.211   5.451  21.745  0.00  0.00    +0.140 A 
ATOM     26  C   UNL     1      21.836   5.329  22.967  0.00  0.00    +0.154 A 
ATOM     27  C   UNL     1      22.699   3.969  20.838  0.00  0.00    +0.132 A 
ATOM     28  C   UNL     1      23.323   3.848  22.060  0.00  0.00    +0.130 A 
ENDBRANCH  14  18
BRANCH  14  10
ATOM      7  C   UNL     1      12.538   9.754  21.658  0.00  0.00    -0.000 C 
ATOM      8  C   UNL     1      13.834  10.318  21.057  0.00  0.00    +0.012 C 
ATOM      9  C   UNL     1      11.618   9.203  20.541  0.00  0.00    +0.029 C 
ATOM     10  C   UNL     1      14.616   9.257  20.260  0.00  0.00    +0.023 C 
ATOM     12  C   UNL     1      13.715   8.481  19.319  0.00  0.00    -0.073 C 
ATOM     13  C   UNL     1      12.376   8.481  19.453  0.00  0.00    -0.023 C 
ATOM     19  C   UNL     1      14.384   7.744  18.194  0.00  0.00    +0.039 C 
BRANCH   7  11
ATOM     11  C   UNL     1      11.839  10.834  22.491  0.00  0.00    -0.013 C 
ATOM     16  C   UNL     1      12.783  11.377  23.559  0.00  0.00    +0.007 C 
ATOM     17  C   UNL     1      11.338  11.958  21.589  0.00  0.00    +0.007 C 
ENDBRANCH   7  11
BRANCH   9  15
ATOM     15  C   UNL     1      10.542   8.275  21.117  0.00  0.00    +0.126 C 
BRANCH  15  24
ATOM      4  N   UNL     1      11.516   5.885  21.589  0.00  0.00    -0.197 NA
ATOM     24  C   UNL     1      11.091   6.945  21.377  0.00  0.00    +0.063 C 
ENDBRANCH  15  24
ENDBRANCH   9  15
ENDBRANCH  14  10
TORSDOF 5
ENDMDL
MODEL 4
REMARK VINA RESULT:      -6.1     27.862     30.319
REMARK  Name = 38029875
REMARK  8 active torsions:
REMARK  status: ('A' for Active; 'I' for Inactive)
REMARK    1  A    between atoms: C_7  and  C_11
REMARK    2  A    between atoms: C_9  and  C_15
REMARK    3  A    between atoms: C_10  and  C_14
REMARK    4  A    between atoms: C_11  and  C_16
REMARK    5  A    between atoms: C_11  and  C_17
REMARK    6  A    between atoms: C_12  and  C_19
REMARK    7  A    between atoms: C_14  and  C_18
REMARK    8  A    between atoms: C_15  and  C_24
REMARK                            x       y       z     vdW  Elec       q    Type
REMARK                         _______ _______ _______ _____ _____    ______ ____
ROOT
ATOM     14  C   UNL     1      -4.067 -10.640  16.583  0.00  0.00    +0.103 C 
ENDROOT
BRANCH  14  18
ATOM      1  O   UNL     1      -1.798 -11.067  16.031  0.00  0.00    -0.276 OA
ATOM      2  N   UNL     1      -3.272 -10.807  14.254  0.00  0.00    -0.298 N 
ATOM      3  N   UNL     1      -3.891 -10.933  11.429  0.00  0.00    -0.311 N 
ATOM      5  N   UNL     1      -4.755  -9.976   9.439  0.00  0.00    -0.237 NA
ATOM      6  N   UNL     1      -4.198 -12.384   8.114  0.00  0.00    -0.258 NA
ATOM     18  C   UNL     1      -2.938 -10.860  15.607  0.00  0.00    +0.216 C 
ATOM     20  C   UNL     1      -2.233 -11.005  13.247  0.00  0.00    +0.126 C 
ATOM     21  C   UNL     1      -4.628 -10.572  13.752  0.00  0.00    +0.126 C 
ATOM     22  C   UNL     1      -2.773 -11.693  11.995  0.00  0.00    +0.125 C 
ATOM     23  C   UNL     1      -4.645 -10.046  12.317  0.00  0.00    +0.125 C 
ATOM     25  C   UNL     1      -4.201 -11.029  10.074  0.00  0.00    +0.140 A 
ATOM     26  C   UNL     1      -3.928 -12.211   9.422  0.00  0.00    +0.154 A 
ATOM     27  C   UNL     1      -5.025 -10.148   8.130  0.00  0.00    +0.132 A 
ATOM     28  C   UNL     1      -4.752 -11.331   7.479  0.00  0.00    +0.130 A 
ENDBRANCH  14  18
BRANCH  14  10
ATOM      7  C   UNL     1      -7.109 -11.586  17.032  0.00  0.00    -0.000 C 
ATOM      8  C   UNL     1      -5.926 -12.355  16.423  0.00  0.00    +0.012 C 
ATOM      9  C   UNL     1      -7.221 -11.879  18.549  0.00  0.00    +0.029 C 
ATOM     10  C   UNL     1      -4.588 -11.988  17.091  0.00  0.00    +0.023 C 
ATOM     12  C   UNL     1      -4.693 -11.995  18.603  0.00  0.00    -0.073 C 
ATOM     13  C   UNL     1      -5.879 -11.959  19.236  0.00  0.00    -0.023 C 
ATOM     19  C   UNL     1      -3.404 -12.089  19.371  0.00  0.00    +0.039 C 
BRANCH   7  11
ATOM     11  C   UNL     1      -8.399 -11.943  16.286  0.00  0.00    -0.013 C 
ATOM     16  C   UNL     1      -8.993 -10.702  15.626  0.00  0.00    +0.007 C 
ATOM     17  C   UNL     1      -8.131 -13.031  15.251  0.00  0.00    +0.007 C 
ENDBRANCH   7  11
BRANCH   9  15
ATOM     15  C   UNL     1      -8.094 -10.832  19.251  0.00  0.00    +0.126 C 
BRANCH  15  24
ATOM      4  N   UNL     1     -10.287 -11.935  20.176  0.00  0.00    -0.197 NA
ATOM     24  C   UNL     1      -9.320 -11.442  19.765  0.00  0.00    +0.063 C 
ENDBRANCH  15  24
ENDBRANCH   9  15
ENDBRANCH  14  10
TORSDOF 5
ENDMDL
MODEL 5
REMARK VINA RESULT:      -6.0      2.537      3.253
REMARK  Name = 38029875
REMARK  8 active torsions:
REMARK  status: ('A' for Active; 'I' for Inactive)
REMARK    1  A    between atoms: C_7  and  C_11
REMARK    2  A    between atoms: C_9  and  C_15
REMARK    3  A    between atoms: C_10  and  C_14
REMARK    4  A    between atoms: C_11  and  C_16
REMARK    5  A    between atoms: C_11  and  C_17
REMARK    6  A    between atoms: C_12  and  C_19
REMARK    7  A    between atoms: C_14  and  C_18
REMARK    8  A    between atoms: C_15  and  C_24
REMARK                            x       y       z     vdW  Elec       q    Type
REMARK                         _______ _______ _______ _____ _____    ______ ____
ROOT
ATOM     14  C   UNL     1      15.613   9.396  20.140  0.00  0.00    +0.103 C 
ENDROOT
BRANCH  14  18
ATOM      1  O   UNL     1      14.973   7.303  19.220  0.00  0.00    -0.276 OA
ATOM      2  N   UNL     1      17.009   7.373  20.338  0.00  0.00    -0.298 N 
ATOM      3  N   UNL     1      19.524   6.165  21.112  0.00  0.00    -0.311 N 
ATOM      5  N   UNL     1      21.130   5.562  22.747  0.00  0.00    -0.237 NA
ATOM      6  N   UNL     1      22.739   4.529  20.696  0.00  0.00    -0.258 NA
ATOM     18  C   UNL     1      15.827   7.931  19.851  0.00  0.00    +0.216 C 
ATOM     20  C   UNL     1      17.287   5.958  20.104  0.00  0.00    +0.126 C 
ATOM     21  C   UNL     1      18.027   8.122  21.078  0.00  0.00    +0.126 C 
ATOM     22  C   UNL     1      18.782   5.688  19.942  0.00  0.00    +0.125 C 
ATOM     23  C   UNL     1      18.923   7.222  21.929  0.00  0.00    +0.125 C 
ATOM     25  C   UNL     1      20.750   5.599  21.455  0.00  0.00    +0.140 A 
ATOM     26  C   UNL     1      21.540   5.092  20.448  0.00  0.00    +0.154 A 
ATOM     27  C   UNL     1      22.329   4.999  22.996  0.00  0.00    +0.132 A 
ATOM     28  C   UNL     1      23.120   4.492  21.988  0.00  0.00    +0.130 A 
ENDBRANCH  14  18
BRANCH  14  10
ATOM      7  C   UNL     1      12.589   9.971  21.077  0.00  0.00    -0.000 C 
ATOM      8  C   UNL     1      13.633   9.017  21.677  0.00  0.00    +0.012 C 
ATOM      9  C   UNL     1      12.640  11.347  21.786  0.00  0.00    +0.029 C 
ATOM     10  C   UNL     1      15.064   9.574  21.560  0.00  0.00    +0.023 C 
ATOM     12  C   UNL     1      15.143  11.024  21.994  0.00  0.00    -0.073 C 
ATOM     13  C   UNL     1      14.047  11.796  22.103  0.00  0.00    -0.023 C 
ATOM     19  C   UNL     1      16.505  11.553  22.346  0.00  0.00    +0.039 C 
BRANCH   7  11
ATOM     11  C   UNL     1      11.197   9.337  21.163  0.00  0.00    -0.013 C 
ATOM     16  C   UNL     1      10.907   8.514  19.912  0.00  0.00    +0.007 C 
ATOM     17  C   UNL     1      11.082   8.475  22.417  0.00  0.00    +0.007 C 
ENDBRANCH   7  11
BRANCH   9  15
ATOM     15  C   UNL     1      11.933  12.424  20.957  0.00  0.00    +0.126 C 
BRANCH  15  24
ATOM      4  N   UNL     1      10.235  13.772  22.433  0.00  0.00    -0.197 NA
ATOM     24  C   UNL     1      10.982  13.170  21.779  0.00  0.00    +0.063 C 
ENDBRANCH  15  24
ENDBRANCH   9  15
ENDBRANCH  14  10
TORSDOF 5
ENDMDL
MODEL 6
REMARK VINA RESULT:      -6.0     27.537     30.344
REMARK  Name = 38029875
REMARK  8 active torsions:
REMARK  status: ('A' for Active; 'I' for Inactive)
REMARK    1  A    between atoms: C_7  and  C_11
REMARK    2  A    between atoms: C_9  and  C_15
REMARK    3  A    between atoms: C_10  and  C_14
REMARK    4  A    between atoms: C_11  and  C_16
REMARK    5  A    between atoms: C_11  and  C_17
REMARK    6  A    between atoms: C_12  and  C_19
REMARK    7  A    between atoms: C_14  and  C_18
REMARK    8  A    between atoms: C_15  and  C_24
REMARK                            x       y       z     vdW  Elec       q    Type
REMARK                         _______ _______ _______ _____ _____    ______ ____
ROOT
ATOM     14  C   UNL     1      -3.723 -10.975  12.201  0.00  0.00    +0.103 C 
ENDROOT
BRANCH  14  18
ATOM      1  O   UNL     1      -2.079 -10.474  13.840  0.00  0.00    -0.276 OA
ATOM      2  N   UNL     1      -4.130 -11.238  14.620  0.00  0.00    -0.298 N 
ATOM      3  N   UNL     1      -5.987 -11.774  16.775  0.00  0.00    -0.311 N 
ATOM      5  N   UNL     1      -7.478 -13.207  17.934  0.00  0.00    -0.237 NA
ATOM      6  N   UNL     1      -8.038 -11.098  19.695  0.00  0.00    -0.258 NA
ATOM     18  C   UNL     1      -3.227 -10.868  13.623  0.00  0.00    +0.216 C 
ATOM     20  C   UNL     1      -3.724 -11.167  16.021  0.00  0.00    +0.126 C 
ATOM     21  C   UNL     1      -5.497 -11.696  14.362  0.00  0.00    +0.126 C 
ATOM     22  C   UNL     1      -4.892 -10.814  16.939  0.00  0.00    +0.125 C 
ATOM     23  C   UNL     1      -6.075 -12.516  15.515  0.00  0.00    +0.125 C 
ATOM     25  C   UNL     1      -6.896 -11.998  17.807  0.00  0.00    +0.140 A 
ATOM     26  C   UNL     1      -7.171 -10.963  18.672  0.00  0.00    +0.154 A 
ATOM     27  C   UNL     1      -8.344 -13.344  18.957  0.00  0.00    +0.132 A 
ATOM     28  C   UNL     1      -8.620 -12.307  19.822  0.00  0.00    +0.130 A 
ENDBRANCH  14  18
BRANCH  14  10
ATOM      7  C   UNL     1      -5.963 -10.120  10.057  0.00  0.00    -0.000 C 
ATOM      8  C   UNL     1      -5.550  -9.431  11.367  0.00  0.00    +0.012 C 
ATOM      9  C   UNL     1      -5.174  -9.528   8.863  0.00  0.00    +0.029 C 
ATOM     10  C   UNL     1      -4.045  -9.581  11.654  0.00  0.00    +0.023 C 
ATOM     12  C   UNL     1      -3.204  -9.270  10.432  0.00  0.00    -0.073 C 
ATOM     13  C   UNL     1      -3.730  -9.238   9.194  0.00  0.00    -0.023 C 
ATOM     19  C   UNL     1      -1.755  -8.952  10.670  0.00  0.00    +0.039 C 
BRANCH   7  11
ATOM     11  C   UNL     1      -7.477  -9.993   9.858  0.00  0.00    -0.013 C 
ATOM     16  C   UNL     1      -8.221 -10.498  11.091  0.00  0.00    +0.007 C 
ATOM     17  C   UNL     1      -7.854  -8.546   9.554  0.00  0.00    +0.007 C 
ENDBRANCH   7  11
BRANCH   9  15
ATOM     15  C   UNL     1      -5.243 -10.453   7.642  0.00  0.00    +0.126 C 
BRANCH  15  24
ATOM      4  N   UNL     1      -6.606  -9.321   5.708  0.00  0.00    -0.197 NA
ATOM     24  C   UNL     1      -6.004  -9.828   6.561  0.00  0.00    +0.063 C 
ENDBRANCH  15  24
ENDBRANCH   9  15
ENDBRANCH  14  10
TORSDOF 5
ENDMDL
MODEL 7
REMARK VINA RESULT:      -6.0      2.412      3.941
REMARK  Name = 38029875
REMARK  8 active torsions:
REMARK  status: ('A' for Active; 'I' for Inactive)
REMARK    1  A    between atoms: C_7  and  C_11
REMARK    2  A    between atoms: C_9  and  C_15
REMARK    3  A    between atoms: C_10  and  C_14
REMARK    4  A    between atoms: C_11  and  C_16
REMARK    5  A    between atoms: C_11  and  C_17
REMARK    6  A    between atoms: C_12  and  C_19
REMARK    7  A    between atoms: C_14  and  C_18
REMARK    8  A    between atoms: C_15  and  C_24
REMARK                            x       y       z     vdW  Elec       q    Type
REMARK                         _______ _______ _______ _____ _____    ______ ____
ROOT
ATOM     14  C   UNL     1      16.152   7.794  19.709  0.00  0.00    +0.103 C 
ENDROOT
BRANCH  14  18
ATOM      1  O   UNL     1      16.548   5.732  18.601  0.00  0.00    -0.276 OA
ATOM      2  N   UNL     1      18.053   6.325  20.269  0.00  0.00    -0.298 N 
ATOM      3  N   UNL     1      20.522   5.915  21.725  0.00  0.00    -0.311 N 
ATOM      5  N   UNL     1      21.733   5.676  23.748  0.00  0.00    -0.237 NA
ATOM      6  N   UNL     1      24.089   5.473  22.241  0.00  0.00    -0.258 NA
ATOM     18  C   UNL     1      16.929   6.523  19.467  0.00  0.00    +0.216 C 
ATOM     20  C   UNL     1      18.854   5.116  20.099  0.00  0.00    +0.126 C 
ATOM     21  C   UNL     1      18.510   7.270  21.291  0.00  0.00    +0.126 C 
ATOM     22  C   UNL     1      20.335   5.366  20.379  0.00  0.00    +0.125 C 
ATOM     23  C   UNL     1      19.397   6.615  22.350  0.00  0.00    +0.125 C 
ATOM     25  C   UNL     1      21.727   5.741  22.402  0.00  0.00    +0.140 A 
ATOM     26  C   UNL     1      22.884   5.642  21.662  0.00  0.00    +0.154 A 
ATOM     27  C   UNL     1      22.938   5.507  24.328  0.00  0.00    +0.132 A 
ATOM     28  C   UNL     1      24.096   5.408  23.587  0.00  0.00    +0.130 A 
ENDBRANCH  14  18
BRANCH  14  10
ATOM      7  C   UNL     1      14.158   9.880  18.288  0.00  0.00    -0.000 C 
ATOM      8  C   UNL     1      14.359   8.381  18.018  0.00  0.00    +0.012 C 
ATOM      9  C   UNL     1      13.009  10.097  19.304  0.00  0.00    +0.029 C 
ATOM     10  C   UNL     1      14.689   7.597  19.301  0.00  0.00    +0.023 C 
ATOM     12  C   UNL     1      13.755   7.960  20.439  0.00  0.00    -0.073 C 
ATOM     13  C   UNL     1      13.002   9.075  20.415  0.00  0.00    -0.023 C 
ATOM     19  C   UNL     1      13.672   6.989  21.583  0.00  0.00    +0.039 C 
BRANCH   7  11
ATOM     11  C   UNL     1      13.898  10.616  16.970  0.00  0.00    -0.013 C 
ATOM     16  C   UNL     1      15.158  11.340  16.506  0.00  0.00    +0.007 C 
ATOM     17  C   UNL     1      13.412   9.639  15.903  0.00  0.00    +0.007 C 
ENDBRANCH   7  11
BRANCH   9  15
ATOM     15  C   UNL     1      13.062  11.506  19.906  0.00  0.00    +0.126 C 
BRANCH  15  24
ATOM      4  N   UNL     1      11.285  11.753  21.820  0.00  0.00    -0.197 NA
ATOM     24  C   UNL     1      12.072  11.650  20.973  0.00  0.00    +0.063 C 
ENDBRANCH  15  24
ENDBRANCH   9  15
ENDBRANCH  14  10
TORSDOF 5
ENDMDL
MODEL 8
REMARK VINA RESULT:      -5.9     27.315     31.012
REMARK  Name = 38029875
REMARK  8 active torsions:
REMARK  status: ('A' for Active; 'I' for Inactive)
REMARK    1  A    between atoms: C_7  and  C_11
REMARK    2  A    between atoms: C_9  and  C_15
REMARK    3  A    between atoms: C_10  and  C_14
REMARK    4  A    between atoms: C_11  and  C_16
REMARK    5  A    between atoms: C_11  and  C_17
REMARK    6  A    between atoms: C_12  and  C_19
REMARK    7  A    between atoms: C_14  and  C_18
REMARK    8  A    between atoms: C_15  and  C_24
REMARK                            x       y       z     vdW  Elec       q    Type
REMARK                         _______ _______ _______ _____ _____    ______ ____
ROOT
ATOM     14  C   UNL     1      -4.285 -11.998  16.100  0.00  0.00    +0.103 C 
ENDROOT
BRANCH  14  18
ATOM      1  O   UNL     1      -3.641 -11.707  18.367  0.00  0.00    -0.276 OA
ATOM      2  N   UNL     1      -5.918 -11.898  17.947  0.00  0.00    -0.298 N 
ATOM      3  N   UNL     1      -8.679 -11.763  18.807  0.00  0.00    -0.311 N 
ATOM      5  N   UNL     1     -10.855 -12.688  18.983  0.00  0.00    -0.237 NA
ATOM      6  N   UNL     1     -11.687 -10.328  20.250  0.00  0.00    -0.258 NA
ATOM     18  C   UNL     1      -4.575 -11.852  17.574  0.00  0.00    +0.216 C 
ATOM     20  C   UNL     1      -6.279 -11.770  19.356  0.00  0.00    +0.126 C 
ATOM     21  C   UNL     1      -7.027 -12.060  17.003  0.00  0.00    +0.126 C 
ATOM     22  C   UNL     1      -7.621 -11.064  19.540  0.00  0.00    +0.125 C 
ATOM     23  C   UNL     1      -8.295 -12.598  17.666  0.00  0.00    +0.125 C 
ATOM     25  C   UNL     1     -10.009 -11.663  19.209  0.00  0.00    +0.140 A 
ATOM     26  C   UNL     1     -10.418 -10.504  19.831  0.00  0.00    +0.154 A 
ATOM     27  C   UNL     1     -12.123 -12.513  19.402  0.00  0.00    +0.132 A 
ATOM     28  C   UNL     1     -12.532 -11.354  20.024  0.00  0.00    +0.130 A 
ENDBRANCH  14  18
BRANCH  14  10
ATOM      7  C   UNL     1      -4.821 -10.947  13.107  0.00  0.00    -0.000 C 
ATOM      8  C   UNL     1      -5.024 -10.225  14.448  0.00  0.00    +0.012 C 
ATOM      9  C   UNL     1      -3.417 -10.635  12.532  0.00  0.00    +0.029 C 
ATOM     10  C   UNL     1      -3.967 -10.628  15.493  0.00  0.00    +0.023 C 
ATOM     12  C   UNL     1      -2.566 -10.602  14.916  0.00  0.00    -0.073 C 
ATOM     13  C   UNL     1      -2.341 -10.592  13.590  0.00  0.00    -0.023 C 
ATOM     19  C   UNL     1      -1.430 -10.543  15.898  0.00  0.00    +0.039 C 
BRANCH   7  11
ATOM     11  C   UNL     1      -5.936 -10.556  12.132  0.00  0.00    -0.013 C 
ATOM     16  C   UNL     1      -7.304 -10.847  12.742  0.00  0.00    +0.007 C 
ATOM     17  C   UNL     1      -5.816  -9.084  11.751  0.00  0.00    +0.007 C 
ENDBRANCH   7  11
BRANCH   9  15
ATOM     15  C   UNL     1      -3.027 -11.645  11.446  0.00  0.00    +0.126 C 
BRANCH  15  24
ATOM      4  N   UNL     1      -2.710 -14.041  12.463  0.00  0.00    -0.197 NA
ATOM     24  C   UNL     1      -2.848 -12.978  12.019  0.00  0.00    +0.063 C 
ENDBRANCH  15  24
ENDBRANCH   9  15
ENDBRANCH  14  10
TORSDOF 5
ENDMDL
MODEL 9
REMARK VINA RESULT:      -5.9      2.700      9.039
REMARK  Name = 38029875
REMARK  8 active torsions:
REMARK  status: ('A' for Active; 'I' for Inactive)
REMARK    1  A    between atoms: C_7  and  C_11
REMARK    2  A    between atoms: C_9  and  C_15
REMARK    3  A    between atoms: C_10  and  C_14
REMARK    4  A    between atoms: C_11  and  C_16
REMARK    5  A    between atoms: C_11  and  C_17
REMARK    6  A    between atoms: C_12  and  C_19
REMARK    7  A    between atoms: C_14  and  C_18
REMARK    8  A    between atoms: C_15  and  C_24
REMARK                            x       y       z     vdW  Elec       q    Type
REMARK                         _______ _______ _______ _____ _____    ______ ____
ROOT
ATOM     14  C   UNL     1      19.581   6.805  20.649  0.00  0.00    +0.103 C 
ENDROOT
BRANCH  14  18
ATOM      1  O   UNL     1      18.410   5.180  19.373  0.00  0.00    -0.276 OA
ATOM      2  N   UNL     1      17.141   6.896  20.292  0.00  0.00    -0.298 N 
ATOM      3  N   UNL     1      14.590   8.112  20.920  0.00  0.00    -0.311 N 
ATOM      5  N   UNL     1      13.107   9.961  20.923  0.00  0.00    -0.237 NA
ATOM      6  N   UNL     1      11.236   8.377  22.286  0.00  0.00    -0.258 NA
ATOM     18  C   UNL     1      18.331   6.212  20.045  0.00  0.00    +0.216 C 
ATOM     20  C   UNL     1      15.890   6.388  19.737  0.00  0.00    +0.126 C 
ATOM     21  C   UNL     1      17.048   8.116  21.099  0.00  0.00    +0.126 C 
ATOM     22  C   UNL     1      14.700   6.676  20.650  0.00  0.00    +0.125 C 
ATOM     23  C   UNL     1      15.795   8.935  20.791  0.00  0.00    +0.125 C 
ATOM     25  C   UNL     1      13.363   8.680  21.256  0.00  0.00    +0.140 A 
ATOM     26  C   UNL     1      12.444   7.903  21.925  0.00  0.00    +0.154 A 
ATOM     27  C   UNL     1      11.898  10.436  21.283  0.00  0.00    +0.132 A 
ATOM     28  C   UNL     1      10.979   9.658  21.953  0.00  0.00    +0.130 A 
ENDBRANCH  14  18
BRANCH  14  10
ATOM      7  C   UNL     1      21.268   7.818  23.194  0.00  0.00    -0.000 C 
ATOM      8  C   UNL     1      19.995   6.960  23.145  0.00  0.00    +0.012 C 
ATOM      9  C   UNL     1      22.527   6.917  23.228  0.00  0.00    +0.029 C 
ATOM     10  C   UNL     1      19.965   6.033  21.916  0.00  0.00    +0.023 C 
ATOM     12  C   UNL     1      21.281   5.304  21.728  0.00  0.00    -0.073 C 
ATOM     13  C   UNL     1      22.412   5.706  22.334  0.00  0.00    -0.023 C 
ATOM     19  C   UNL     1      21.256   4.074  20.864  0.00  0.00    +0.039 C 
BRANCH   7  11
ATOM     11  C   UNL     1      21.211   8.763  24.399  0.00  0.00    -0.013 C 
ATOM     16  C   UNL     1      20.414  10.017  24.055  0.00  0.00    +0.007 C 
ATOM     17  C   UNL     1      20.606   8.051  25.605  0.00  0.00    +0.007 C 
ENDBRANCH   7  11
BRANCH   9  15
ATOM     15  C   UNL     1      23.785   7.710  22.856  0.00  0.00    +0.126 C 
BRANCH  15  24
ATOM      4  N   UNL     1      23.510   8.858  20.514  0.00  0.00    -0.197 NA
ATOM     24  C   UNL     1      23.626   8.353  21.553  0.00  0.00    +0.063 C 
ENDBRANCH  15  24
ENDBRANCH   9  15
ENDBRANCH  14  10
TORSDOF 5
ENDMDL
MODEL 10
REMARK VINA RESULT:      -5.9     15.153     19.005
REMARK  Name = 38029875
REMARK  8 active torsions:
REMARK  status: ('A' for Active; 'I' for Inactive)
REMARK    1  A    between atoms: C_7  and  C_11
REMARK    2  A    between atoms: C_9  and  C_15
REMARK    3  A    between atoms: C_10  and  C_14
REMARK    4  A    between atoms: C_11  and  C_16
REMARK    5  A    between atoms: C_11  and  C_17
REMARK    6  A    between atoms: C_12  and  C_19
REMARK    7  A    between atoms: C_14  and  C_18
REMARK    8  A    between atoms: C_15  and  C_24
REMARK                            x       y       z     vdW  Elec       q    Type
REMARK                         _______ _______ _______ _____ _____    ______ ____
ROOT
ATOM     14  C   UNL     1      10.583   6.130   5.262  0.00  0.00    +0.103 C 
ENDROOT
BRANCH  14  18
ATOM      1  O   UNL     1       9.904   3.894   4.842  0.00  0.00    -0.276 OA
ATOM      2  N   UNL     1      11.360   4.847   3.303  0.00  0.00    -0.298 N 
ATOM      3  N   UNL     1      12.777   4.797   0.780  0.00  0.00    -0.311 N 
ATOM      5  N   UNL     1      14.761   5.002  -0.501  0.00  0.00    -0.237 NA
ATOM      6  N   UNL     1      13.241   4.546  -2.813  0.00  0.00    -0.258 NA
ATOM     18  C   UNL     1      10.576   4.853   4.457  0.00  0.00    +0.216 C 
ATOM     20  C   UNL     1      11.411   3.647   2.474  0.00  0.00    +0.126 C 
ATOM     21  C   UNL     1      12.150   5.991   2.841  0.00  0.00    +0.126 C 
ATOM     22  C   UNL     1      11.579   3.981   0.993  0.00  0.00    +0.125 C 
ATOM     23  C   UNL     1      13.287   5.585   1.904  0.00  0.00    +0.125 C 
ATOM     25  C   UNL     1      13.431   4.791  -0.450  0.00  0.00    +0.140 A 
ATOM     26  C   UNL     1      12.685   4.567  -1.586  0.00  0.00    +0.154 A 
ATOM     27  C   UNL     1      15.318   4.981  -1.728  0.00  0.00    +0.132 A 
ATOM     28  C   UNL     1      14.572   4.757  -2.864  0.00  0.00    +0.130 A 
ENDBRANCH  14  18
BRANCH  14  10
ATOM      7  C   UNL     1       9.039   8.872   5.933  0.00  0.00    -0.000 C 
ATOM      8  C   UNL     1       8.488   7.552   5.373  0.00  0.00    +0.012 C 
ATOM      9  C   UNL     1       8.916   8.898   7.477  0.00  0.00    +0.029 C 
ATOM     10  C   UNL     1       9.224   6.325   5.942  0.00  0.00    +0.023 C 
ATOM     12  C   UNL     1       9.378   6.409   7.448  0.00  0.00    -0.073 C 
ATOM     13  C   UNL     1       9.223   7.566   8.117  0.00  0.00    -0.023 C 
ATOM     19  C   UNL     1       9.670   5.124   8.171  0.00  0.00    +0.039 C 
BRANCH   7  11
ATOM     11  C   UNL     1       8.314  10.055   5.284  0.00  0.00    -0.013 C 
ATOM     16  C   UNL     1       9.309  10.957   4.559  0.00  0.00    +0.007 C 
ATOM     17  C   UNL     1       7.237   9.557   4.325  0.00  0.00    +0.007 C 
ENDBRANCH   7  11
BRANCH   9  15
ATOM     15  C   UNL     1       9.817   9.978   8.086  0.00  0.00    +0.126 C 
BRANCH  15  24
ATOM      4  N   UNL     1      12.313   9.631   7.359  0.00  0.00    -0.197 NA
ATOM     24  C   UNL     1      11.207   9.786   7.674  0.00  0.00    +0.063 C 
ENDBRANCH  15  24
ENDBRANCH   9  15
ENDBRANCH  14  10
TORSDOF 5
ENDMDL
