MODEL 1
REMARK VINA RESULT:      -5.9      0.000      0.000
REMARK  Name = 75537013
REMARK  4 active torsions:
REMARK  status: ('A' for Active; 'I' for Inactive)
REMARK    1  A    between atoms: O_3  and  C_20
REMARK    2  A    between atoms: O_3  and  C_21
REMARK    3  A    between atoms: N_4  and  C_8
REMARK    4  A    between atoms: C_19  and  C_20
REMARK                            x       y       z     vdW  Elec       q    Type
REMARK                         _______ _______ _______ _____ _____    ______ ____
ROOT
ATOM      1  O   UNL     1      18.772   9.723  21.625  0.00  0.00    -0.252 OA
ATOM      2  O   UNL     1      11.818   9.455  21.794  0.00  0.00    -0.273 OA
ATOM      4  N   UNL     1      18.330   7.430  21.297  0.00  0.00    -0.281 N 
ATOM      5  N   UNL     1      16.597   8.858  21.408  0.00  0.00    -0.278 N 
ATOM      6  N   UNL     1      13.912   8.478  22.031  0.00  0.00    -0.296 N 
ATOM      7  C   UNL     1      15.994   7.577  21.088  0.00  0.00    +0.112 C 
ATOM      9  C   UNL     1      17.148   6.587  21.228  0.00  0.00    +0.133 C 
ATOM     12  C   UNL     1      14.805   7.305  22.005  0.00  0.00    +0.132 C 
ATOM     13  C   UNL     1      17.997   8.790  21.460  0.00  0.00    +0.305 C 
ATOM     14  C   UNL     1      15.761  10.038  21.529  0.00  0.00    +0.128 C 
ATOM     17  C   UNL     1      14.564   9.736  22.426  0.00  0.00    +0.127 C 
ATOM     19  C   UNL     1      12.549   8.462  21.742  0.00  0.00    +0.241 C 
ENDROOT
BRANCH   4   8
ATOM      8  C   UNL     1      19.661   6.878  21.329  0.00  0.00    +0.078 C 
ATOM     10  C   UNL     1      19.736   5.605  20.482  0.00  0.00    +0.022 C 
ATOM     11  C   UNL     1      20.105   6.615  22.771  0.00  0.00    +0.022 C 
ATOM     15  C   UNL     1      21.123   4.971  20.541  0.00  0.00    +0.002 C 
ATOM     16  C   UNL     1      21.492   5.980  22.825  0.00  0.00    +0.002 C 
ATOM     18  C   UNL     1      21.564   4.712  21.979  0.00  0.00    +0.000 C 
ENDBRANCH   4   8
BRANCH  19  20
ATOM     20  C   UNL     1      11.962   7.132  21.342  0.00  0.00    +0.255 C 
BRANCH  20   3
ATOM      3  O   UNL     1      11.524   7.271  20.011  0.00  0.00    -0.374 OA
ATOM     21  C   UNL     1      12.593   7.124  19.077  0.00  0.00    +0.194 C 
ENDBRANCH  20   3
ENDBRANCH  19  20
TORSDOF 3
ENDMDL
MODEL 2
REMARK VINA RESULT:      -5.7     16.692     19.426
REMARK  Name = 75537013
REMARK  4 active torsions:
REMARK  status: ('A' for Active; 'I' for Inactive)
REMARK    1  A    between atoms: O_3  and  C_20
REMARK    2  A    between atoms: O_3  and  C_21
REMARK    3  A    between atoms: N_4  and  C_8
REMARK    4  A    between atoms: C_19  and  C_20
REMARK                            x       y       z     vdW  Elec       q    Type
REMARK                         _______ _______ _______ _____ _____    ______ ____
ROOT
ATOM      1  O   UNL     1       9.939   7.393   1.190  0.00  0.00    -0.252 OA
ATOM      2  O   UNL     1       8.687   7.055   8.028  0.00  0.00    -0.273 OA
ATOM      4  N   UNL     1      10.974   5.367   1.811  0.00  0.00    -0.281 N 
ATOM      5  N   UNL     1       9.812   6.505   3.362  0.00  0.00    -0.278 N 
ATOM      6  N   UNL     1       9.922   6.499   6.142  0.00  0.00    -0.296 N 
ATOM      7  C   UNL     1      10.207   5.278   4.030  0.00  0.00    +0.112 C 
ATOM      9  C   UNL     1      11.169   4.620   3.042  0.00  0.00    +0.133 C 
ATOM     12  C   UNL     1      10.809   5.586   5.398  0.00  0.00    +0.132 C 
ATOM     13  C   UNL     1      10.204   6.529   2.016  0.00  0.00    +0.305 C 
ATOM     14  C   UNL     1       9.007   7.483   4.069  0.00  0.00    +0.128 C 
ATOM     17  C   UNL     1       9.610   7.756   5.445  0.00  0.00    +0.127 C 
ATOM     19  C   UNL     1       9.408   6.264   7.416  0.00  0.00    +0.241 C 
ENDROOT
BRANCH   4   8
ATOM      8  C   UNL     1      11.628   4.995   0.580  0.00  0.00    +0.078 C 
ATOM     10  C   UNL     1      10.618   4.409  -0.409  0.00  0.00    +0.022 C 
ATOM     11  C   UNL     1      12.775   4.016   0.850  0.00  0.00    +0.022 C 
ATOM     15  C   UNL     1      11.293   3.958  -1.702  0.00  0.00    +0.002 C 
ATOM     16  C   UNL     1      13.447   3.567  -0.445  0.00  0.00    +0.002 C 
ATOM     18  C   UNL     1      12.437   2.985  -1.431  0.00  0.00    +0.000 C 
ENDBRANCH   4   8
BRANCH  19  20
ATOM     20  C   UNL     1       9.774   4.949   8.058  0.00  0.00    +0.255 C 
BRANCH  20   3
ATOM      3  O   UNL     1      10.139   5.239   9.387  0.00  0.00    -0.374 OA
ATOM     21  C   UNL     1       9.309   4.560  10.329  0.00  0.00    +0.194 C 
ENDBRANCH  20   3
ENDBRANCH  19  20
TORSDOF 3
ENDMDL
MODEL 3
REMARK VINA RESULT:      -5.7     27.253     28.980
REMARK  Name = 75537013
REMARK  4 active torsions:
REMARK  status: ('A' for Active; 'I' for Inactive)
REMARK    1  A    between atoms: O_3  and  C_20
REMARK    2  A    between atoms: O_3  and  C_21
REMARK    3  A    between atoms: N_4  and  C_8
REMARK    4  A    between atoms: C_19  and  C_20
REMARK                            x       y       z     vdW  Elec       q    Type
REMARK                         _______ _______ _______ _____ _____    ______ ____
ROOT
ATOM      1  O   UNL     1      -1.611 -11.395  15.576  0.00  0.00    -0.252 OA
ATOM      2  O   UNL     1      -6.336 -11.434  20.687  0.00  0.00    -0.273 OA
ATOM      4  N   UNL     1      -3.597 -10.795  14.456  0.00  0.00    -0.281 N 
ATOM      5  N   UNL     1      -3.652 -11.048  16.688  0.00  0.00    -0.278 N 
ATOM      6  N   UNL     1      -5.740 -11.584  18.447  0.00  0.00    -0.296 N 
ATOM      7  C   UNL     1      -4.979 -10.572  16.342  0.00  0.00    +0.112 C 
ATOM      9  C   UNL     1      -4.993 -10.612  14.816  0.00  0.00    +0.133 C 
ATOM     12  C   UNL     1      -6.045 -11.435  17.013  0.00  0.00    +0.132 C 
ATOM     13  C   UNL     1      -2.801 -11.111  15.575  0.00  0.00    +0.305 C 
ATOM     14  C   UNL     1      -3.314 -11.294  18.078  0.00  0.00    +0.128 C 
ATOM     17  C   UNL     1      -4.406 -12.133  18.737  0.00  0.00    +0.127 C 
ATOM     19  C   UNL     1      -6.607 -11.277  19.494  0.00  0.00    +0.241 C 
ENDROOT
BRANCH   4   8
ATOM      8  C   UNL     1      -3.154 -10.781  13.083  0.00  0.00    +0.078 C 
ATOM     10  C   UNL     1      -1.906  -9.909  12.930  0.00  0.00    +0.022 C 
ATOM     11  C   UNL     1      -4.279 -10.311  12.155  0.00  0.00    +0.022 C 
ATOM     15  C   UNL     1      -1.446  -9.835  11.477  0.00  0.00    +0.002 C 
ATOM     16  C   UNL     1      -3.815 -10.238  10.703  0.00  0.00    +0.002 C 
ATOM     18  C   UNL     1      -2.568  -9.370  10.554  0.00  0.00    +0.000 C 
ENDBRANCH   4   8
BRANCH  19  20
ATOM     20  C   UNL     1      -7.953 -10.716  19.110  0.00  0.00    +0.255 C 
BRANCH  20   3
ATOM      3  O   UNL     1      -8.888 -11.266  20.007  0.00  0.00    -0.374 OA
ATOM     21  C   UNL     1     -10.142 -10.586  19.957  0.00  0.00    +0.194 C 
ENDBRANCH  20   3
ENDBRANCH  19  20
TORSDOF 3
ENDMDL
MODEL 4
REMARK VINA RESULT:      -5.6      3.128      7.888
REMARK  Name = 75537013
REMARK  4 active torsions:
REMARK  status: ('A' for Active; 'I' for Inactive)
REMARK    1  A    between atoms: O_3  and  C_20
REMARK    2  A    between atoms: O_3  and  C_21
REMARK    3  A    between atoms: N_4  and  C_8
REMARK    4  A    between atoms: C_19  and  C_20
REMARK                            x       y       z     vdW  Elec       q    Type
REMARK                         _______ _______ _______ _____ _____    ______ ____
ROOT
ATOM      1  O   UNL     1      10.505   9.221  20.782  0.00  0.00    -0.252 OA
ATOM      2  O   UNL     1      16.421   5.921  19.182  0.00  0.00    -0.273 OA
ATOM      4  N   UNL     1      12.101  10.335  22.114  0.00  0.00    -0.281 N 
ATOM      5  N   UNL     1      12.807   8.758  20.676  0.00  0.00    -0.278 N 
ATOM      6  N   UNL     1      15.111   7.199  20.611  0.00  0.00    -0.296 N 
ATOM      7  C   UNL     1      14.026   9.312  21.237  0.00  0.00    +0.112 C 
ATOM      9  C   UNL     1      13.529  10.222  22.358  0.00  0.00    +0.133 C 
ATOM     12  C   UNL     1      14.961   8.194  21.689  0.00  0.00    +0.132 C 
ATOM     13  C   UNL     1      11.659   9.416  21.142  0.00  0.00    +0.305 C 
ATOM     14  C   UNL     1      12.886   7.716  19.669  0.00  0.00    +0.128 C 
ATOM     17  C   UNL     1      13.847   6.622  20.129  0.00  0.00    +0.127 C 
ATOM     19  C   UNL     1      16.321   6.774  20.067  0.00  0.00    +0.241 C 
ENDROOT
BRANCH   4   8
ATOM      8  C   UNL     1      11.258  11.203  22.898  0.00  0.00    +0.078 C 
ATOM     10  C   UNL     1      11.125  12.572  22.228  0.00  0.00    +0.022 C 
ATOM     11  C   UNL     1      11.794  11.333  24.327  0.00  0.00    +0.022 C 
ATOM     15  C   UNL     1      10.280  13.529  23.064  0.00  0.00    +0.002 C 
ATOM     16  C   UNL     1      10.946  12.291  25.161  0.00  0.00    +0.002 C 
ATOM     18  C   UNL     1      10.813  13.654  24.488  0.00  0.00    +0.000 C 
ENDBRANCH   4   8
BRANCH  19  20
ATOM     20  C   UNL     1      17.569   7.419  20.616  0.00  0.00    +0.255 C 
BRANCH  20   3
ATOM      3  O   UNL     1      18.312   6.395  21.233  0.00  0.00    -0.374 OA
ATOM     21  C   UNL     1      19.651   6.333  20.741  0.00  0.00    +0.194 C 
ENDBRANCH  20   3
ENDBRANCH  19  20
TORSDOF 3
ENDMDL
MODEL 5
REMARK VINA RESULT:      -5.6      2.032      2.980
REMARK  Name = 75537013
REMARK  4 active torsions:
REMARK  status: ('A' for Active; 'I' for Inactive)
REMARK    1  A    between atoms: O_3  and  C_20
REMARK    2  A    between atoms: O_3  and  C_21
REMARK    3  A    between atoms: N_4  and  C_8
REMARK    4  A    between atoms: C_19  and  C_20
REMARK                            x       y       z     vdW  Elec       q    Type
REMARK                         _______ _______ _______ _____ _____    ______ ____
ROOT
ATOM      1  O   UNL     1      16.673   5.823  18.470  0.00  0.00    -0.252 OA
ATOM      2  O   UNL     1      10.434   8.557  19.901  0.00  0.00    -0.273 OA
ATOM      4  N   UNL     1      17.090   7.085  20.418  0.00  0.00    -0.281 N 
ATOM      5  N   UNL     1      14.980   6.940  19.658  0.00  0.00    -0.278 N 
ATOM      6  N   UNL     1      12.753   8.564  20.034  0.00  0.00    -0.296 N 
ATOM      7  C   UNL     1      14.868   7.671  20.907  0.00  0.00    +0.112 C 
ATOM      9  C   UNL     1      16.319   7.947  21.297  0.00  0.00    +0.133 C 
ATOM     12  C   UNL     1      14.010   8.919  20.717  0.00  0.00    +0.132 C 
ATOM     13  C   UNL     1      16.294   6.524  19.399  0.00  0.00    +0.305 C 
ATOM     14  C   UNL     1      13.785   6.630  18.894  0.00  0.00    +0.128 C 
ATOM     17  C   UNL     1      12.928   7.884  18.741  0.00  0.00    +0.127 C 
ATOM     19  C   UNL     1      11.471   8.844  20.504  0.00  0.00    +0.241 C 
ENDROOT
BRANCH   4   8
ATOM      8  C   UNL     1      18.523   6.963  20.532  0.00  0.00    +0.078 C 
ATOM     10  C   UNL     1      18.951   5.501  20.382  0.00  0.00    +0.022 C 
ATOM     11  C   UNL     1      19.013   7.553  21.858  0.00  0.00    +0.022 C 
ATOM     15  C   UNL     1      20.459   5.336  20.551  0.00  0.00    +0.002 C 
ATOM     16  C   UNL     1      20.521   7.385  22.024  0.00  0.00    +0.002 C 
ATOM     18  C   UNL     1      20.945   5.927  21.871  0.00  0.00    +0.000 C 
ENDBRANCH   4   8
BRANCH  19  20
ATOM     20  C   UNL     1      11.381   9.540  21.839  0.00  0.00    +0.255 C 
BRANCH  20   3
ATOM      3  O   UNL     1      11.260  10.916  21.567  0.00  0.00    -0.374 OA
ATOM     21  C   UNL     1      11.890  11.717  22.566  0.00  0.00    +0.194 C 
ENDBRANCH  20   3
ENDBRANCH  19  20
TORSDOF 3
ENDMDL
MODEL 6
REMARK VINA RESULT:      -5.4     27.042     29.516
REMARK  Name = 75537013
REMARK  4 active torsions:
REMARK  status: ('A' for Active; 'I' for Inactive)
REMARK    1  A    between atoms: O_3  and  C_20
REMARK    2  A    between atoms: O_3  and  C_21
REMARK    3  A    between atoms: N_4  and  C_8
REMARK    4  A    between atoms: C_19  and  C_20
REMARK                            x       y       z     vdW  Elec       q    Type
REMARK                         _______ _______ _______ _____ _____    ______ ____
ROOT
ATOM      1  O   UNL     1      -4.088 -11.502  18.518  0.00  0.00    -0.252 OA
ATOM      2  O   UNL     1     -10.752  -9.881  19.708  0.00  0.00    -0.273 OA
ATOM      4  N   UNL     1      -4.829 -10.756  16.406  0.00  0.00    -0.281 N 
ATOM      5  N   UNL     1      -6.239 -10.628  18.153  0.00  0.00    -0.278 N 
ATOM      6  N   UNL     1      -9.015 -10.497  18.295  0.00  0.00    -0.296 N 
ATOM      7  C   UNL     1      -6.952  -9.991  17.060  0.00  0.00    +0.112 C 
ATOM      9  C   UNL     1      -6.079 -10.276  15.840  0.00  0.00    +0.133 C 
ATOM     12  C   UNL     1      -8.376 -10.533  16.967  0.00  0.00    +0.132 C 
ATOM     13  C   UNL     1      -4.943 -11.019  17.786  0.00  0.00    +0.305 C 
ATOM     14  C   UNL     1      -6.849 -10.698  19.467  0.00  0.00    +0.128 C 
ATOM     17  C   UNL     1      -8.281 -11.215  19.348  0.00  0.00    +0.127 C 
ATOM     19  C   UNL     1     -10.226  -9.876  18.592  0.00  0.00    +0.241 C 
ENDROOT
BRANCH   4   8
ATOM      8  C   UNL     1      -3.680 -11.045  15.585  0.00  0.00    +0.078 C 
ATOM     10  C   UNL     1      -2.444 -10.314  16.116  0.00  0.00    +0.022 C 
ATOM     11  C   UNL     1      -3.954 -10.685  14.122  0.00  0.00    +0.022 C 
ATOM     15  C   UNL     1      -1.223 -10.560  15.233  0.00  0.00    +0.002 C 
ATOM     16  C   UNL     1      -2.730 -10.932  13.243  0.00  0.00    +0.002 C 
ATOM     18  C   UNL     1      -1.499 -10.203  13.776  0.00  0.00    +0.000 C 
ENDBRANCH   4   8
BRANCH  19  20
ATOM     20  C   UNL     1     -10.911  -9.159  17.455  0.00  0.00    +0.255 C 
BRANCH  20   3
ATOM      3  O   UNL     1     -10.493  -7.816  17.517  0.00  0.00    -0.374 OA
ATOM     21  C   UNL     1     -10.083  -7.324  16.241  0.00  0.00    +0.194 C 
ENDBRANCH  20   3
ENDBRANCH  19  20
TORSDOF 3
ENDMDL
MODEL 7
REMARK VINA RESULT:      -5.3     27.940     29.400
REMARK  Name = 75537013
REMARK  4 active torsions:
REMARK  status: ('A' for Active; 'I' for Inactive)
REMARK    1  A    between atoms: O_3  and  C_20
REMARK    2  A    between atoms: O_3  and  C_21
REMARK    3  A    between atoms: N_4  and  C_8
REMARK    4  A    between atoms: C_19  and  C_20
REMARK                            x       y       z     vdW  Elec       q    Type
REMARK                         _______ _______ _______ _____ _____    ______ ____
ROOT
ATOM      1  O   UNL     1      -2.097 -10.733  15.441  0.00  0.00    -0.252 OA
ATOM      2  O   UNL     1      -4.199 -10.373   8.815  0.00  0.00    -0.273 OA
ATOM      4  N   UNL     1      -4.447 -10.682  15.641  0.00  0.00    -0.281 N 
ATOM      5  N   UNL     1      -3.540 -10.762  13.586  0.00  0.00    -0.278 N 
ATOM      6  N   UNL     1      -4.525 -10.029  11.089  0.00  0.00    -0.296 N 
ATOM      7  C   UNL     1      -4.970 -10.860  13.357  0.00  0.00    +0.112 C 
ATOM      9  C   UNL     1      -5.577 -10.589  14.732  0.00  0.00    +0.133 C 
ATOM     12  C   UNL     1      -5.403  -9.886  12.265  0.00  0.00    +0.132 C 
ATOM     13  C   UNL     1      -3.219 -10.730  14.951  0.00  0.00    +0.305 C 
ATOM     14  C   UNL     1      -2.625 -10.813  12.460  0.00  0.00    +0.128 C 
ATOM     17  C   UNL     1      -3.091  -9.853  11.368  0.00  0.00    +0.127 C 
ATOM     19  C   UNL     1      -4.954 -10.282   9.787  0.00  0.00    +0.241 C 
ENDROOT
BRANCH   4   8
ATOM      8  C   UNL     1      -4.607 -10.591  17.071  0.00  0.00    +0.078 C 
ATOM     10  C   UNL     1      -4.146 -11.884  17.747  0.00  0.00    +0.022 C 
ATOM     11  C   UNL     1      -6.057 -10.259  17.434  0.00  0.00    +0.022 C 
ATOM     15  C   UNL     1      -4.353 -11.834  19.258  0.00  0.00    +0.002 C 
ATOM     16  C   UNL     1      -6.261 -10.211  18.946  0.00  0.00    +0.002 C 
ATOM     18  C   UNL     1      -5.798 -11.501  19.618  0.00  0.00    +0.000 C 
ENDBRANCH   4   8
BRANCH  19  20
ATOM     20  C   UNL     1      -6.439 -10.452   9.589  0.00  0.00    +0.255 C 
BRANCH  20   3
ATOM      3  O   UNL     1      -6.905  -9.261   9.002  0.00  0.00    -0.374 OA
ATOM     21  C   UNL     1      -7.952  -8.662   9.764  0.00  0.00    +0.194 C 
ENDBRANCH  20   3
ENDBRANCH  19  20
TORSDOF 3
ENDMDL
MODEL 8
REMARK VINA RESULT:      -5.3     29.226     31.159
REMARK  Name = 75537013
REMARK  4 active torsions:
REMARK  status: ('A' for Active; 'I' for Inactive)
REMARK    1  A    between atoms: O_3  and  C_20
REMARK    2  A    between atoms: O_3  and  C_21
REMARK    3  A    between atoms: N_4  and  C_8
REMARK    4  A    between atoms: C_19  and  C_20
REMARK                            x       y       z     vdW  Elec       q    Type
REMARK                         _______ _______ _______ _____ _____    ______ ____
ROOT
ATOM      1  O   UNL     1      -9.528 -11.267  19.198  0.00  0.00    -0.252 OA
ATOM      2  O   UNL     1     -13.467  -6.454  16.072  0.00  0.00    -0.273 OA
ATOM      4  N   UNL     1      -8.014 -10.238  17.711  0.00  0.00    -0.281 N 
ATOM      5  N   UNL     1     -10.097  -9.409  17.875  0.00  0.00    -0.278 N 
ATOM      6  N   UNL     1     -11.627  -7.870  16.135  0.00  0.00    -0.296 N 
ATOM      7  C   UNL     1      -9.408  -8.492  16.985  0.00  0.00    +0.112 C 
ATOM      9  C   UNL     1      -8.072  -9.181  16.716  0.00  0.00    +0.133 C 
ATOM     12  C   UNL     1     -10.251  -8.224  15.741  0.00  0.00    +0.132 C 
ATOM     13  C   UNL     1      -9.248 -10.410  18.370  0.00  0.00    +0.305 C 
ATOM     14  C   UNL     1     -11.480  -9.161  18.236  0.00  0.00    +0.128 C 
ATOM     17  C   UNL     1     -12.299  -8.868  16.981  0.00  0.00    +0.127 C 
ATOM     19  C   UNL     1     -12.305  -6.715  15.749  0.00  0.00    +0.241 C 
ENDROOT
BRANCH   4   8
ATOM      8  C   UNL     1      -6.849 -11.073  17.871  0.00  0.00    +0.078 C 
ATOM     10  C   UNL     1      -6.133 -10.751  19.185  0.00  0.00    +0.022 C 
ATOM     11  C   UNL     1      -5.907 -10.926  16.673  0.00  0.00    +0.022 C 
ATOM     15  C   UNL     1      -4.866 -11.585  19.354  0.00  0.00    +0.002 C 
ATOM     16  C   UNL     1      -4.641 -11.761  16.846  0.00  0.00    +0.002 C 
ATOM     18  C   UNL     1      -3.930 -11.439  18.158  0.00  0.00    +0.000 C 
ENDBRANCH   4   8
BRANCH  19  20
ATOM     20  C   UNL     1     -11.542  -5.744  14.884  0.00  0.00    +0.255 C 
BRANCH  20   3
ATOM      3  O   UNL     1     -12.502  -4.942  14.238  0.00  0.00    -0.374 OA
ATOM     21  C   UNL     1     -12.269  -4.855  12.833  0.00  0.00    +0.194 C 
ENDBRANCH  20   3
ENDBRANCH  19  20
TORSDOF 3
ENDMDL
MODEL 9
REMARK VINA RESULT:      -5.3     27.148     31.074
REMARK  Name = 75537013
REMARK  4 active torsions:
REMARK  status: ('A' for Active; 'I' for Inactive)
REMARK    1  A    between atoms: O_3  and  C_20
REMARK    2  A    between atoms: O_3  and  C_21
REMARK    3  A    between atoms: N_4  and  C_8
REMARK    4  A    between atoms: C_19  and  C_20
REMARK                            x       y       z     vdW  Elec       q    Type
REMARK                         _______ _______ _______ _____ _____    ______ ____
ROOT
ATOM      1  O   UNL     1     -10.448  -9.619  18.814  0.00  0.00    -0.252 OA
ATOM      2  O   UNL     1      -3.873 -11.900  18.684  0.00  0.00    -0.273 OA
ATOM      4  N   UNL     1      -9.793  -9.198  16.587  0.00  0.00    -0.281 N 
ATOM      5  N   UNL     1      -8.361 -10.269  17.950  0.00  0.00    -0.278 N 
ATOM      6  N   UNL     1      -5.596 -10.571  17.873  0.00  0.00    -0.296 N 
ATOM      7  C   UNL     1      -7.708 -10.280  16.653  0.00  0.00    +0.112 C 
ATOM      9  C   UNL     1      -8.586  -9.369  15.796  0.00  0.00    +0.133 C 
ATOM     12  C   UNL     1      -6.256  -9.828  16.784  0.00  0.00    +0.132 C 
ATOM     13  C   UNL     1      -9.638  -9.690  17.899  0.00  0.00    +0.305 C 
ATOM     14  C   UNL     1      -7.723 -10.913  19.083  0.00  0.00    +0.128 C 
ATOM     17  C   UNL     1      -6.265 -10.469  19.179  0.00  0.00    +0.127 C 
ATOM     19  C   UNL     1      -4.419 -11.306  17.751  0.00  0.00    +0.241 C 
ENDROOT
BRANCH   4   8
ATOM      8  C   UNL     1     -10.939  -8.480  16.087  0.00  0.00    +0.078 C 
ATOM     10  C   UNL     1     -11.027  -8.604  14.564  0.00  0.00    +0.022 C 
ATOM     11  C   UNL     1     -10.892  -7.013  16.524  0.00  0.00    +0.022 C 
ATOM     15  C   UNL     1     -12.203  -7.809  14.002  0.00  0.00    +0.002 C 
ATOM     16  C   UNL     1     -12.069  -6.221  15.959  0.00  0.00    +0.002 C 
ATOM     18  C   UNL     1     -12.156  -6.348  14.441  0.00  0.00    +0.000 C 
ENDBRANCH   4   8
BRANCH  19  20
ATOM     20  C   UNL     1      -3.800 -11.362  16.377  0.00  0.00    +0.255 C 
BRANCH  20   3
ATOM      3  O   UNL     1      -2.765 -10.408  16.364  0.00  0.00    -0.374 OA
ATOM     21  C   UNL     1      -1.597 -10.892  15.701  0.00  0.00    +0.194 C 
ENDBRANCH  20   3
ENDBRANCH  19  20
TORSDOF 3
ENDMDL
MODEL 10
REMARK VINA RESULT:      -5.2     27.893     29.687
REMARK  Name = 75537013
REMARK  4 active torsions:
REMARK  status: ('A' for Active; 'I' for Inactive)
REMARK    1  A    between atoms: O_3  and  C_20
REMARK    2  A    between atoms: O_3  and  C_21
REMARK    3  A    between atoms: N_4  and  C_8
REMARK    4  A    between atoms: C_19  and  C_20
REMARK                            x       y       z     vdW  Elec       q    Type
REMARK                         _______ _______ _______ _____ _____    ______ ____
ROOT
ATOM      1  O   UNL     1      -2.381 -10.785  13.361  0.00  0.00    -0.252 OA
ATOM      2  O   UNL     1      -5.529 -10.991  19.565  0.00  0.00    -0.273 OA
ATOM      4  N   UNL     1      -4.646 -10.427  12.809  0.00  0.00    -0.281 N 
ATOM      5  N   UNL     1      -4.072 -10.569  14.978  0.00  0.00    -0.278 N 
ATOM      6  N   UNL     1      -5.545 -11.202  17.252  0.00  0.00    -0.296 N 
ATOM      7  C   UNL     1      -5.485 -10.234  14.995  0.00  0.00    +0.112 C 
ATOM      9  C   UNL     1      -5.904 -10.354  13.531  0.00  0.00    +0.133 C 
ATOM     12  C   UNL     1      -6.238 -11.155  15.952  0.00  0.00    +0.132 C 
ATOM     13  C   UNL     1      -3.550 -10.611  13.677  0.00  0.00    +0.305 C 
ATOM     14  C   UNL     1      -3.350 -10.711  16.229  0.00  0.00    +0.128 C 
ATOM     17  C   UNL     1      -4.134 -11.611  17.181  0.00  0.00    +0.127 C 
ATOM     19  C   UNL     1      -6.126 -10.920  18.488  0.00  0.00    +0.241 C 
ENDROOT
BRANCH   4   8
ATOM      8  C   UNL     1      -4.592 -10.444  11.368  0.00  0.00    +0.078 C 
ATOM     10  C   UNL     1      -4.000  -9.136  10.838  0.00  0.00    +0.022 C 
ATOM     11  C   UNL     1      -5.979 -10.708  10.777  0.00  0.00    +0.022 C 
ATOM     15  C   UNL     1      -3.979  -9.106   9.312  0.00  0.00    +0.002 C 
ATOM     16  C   UNL     1      -5.955 -10.676   9.250  0.00  0.00    +0.002 C 
ATOM     18  C   UNL     1      -5.362  -9.372   8.724  0.00  0.00    +0.000 C 
ENDBRANCH   4   8
BRANCH  19  20
ATOM     20  C   UNL     1      -7.575 -10.505  18.471  0.00  0.00    +0.255 C 
BRANCH  20   3
ATOM      3  O   UNL     1      -8.120 -10.899  19.707  0.00  0.00    -0.374 OA
ATOM     21  C   UNL     1      -9.547 -10.923  19.681  0.00  0.00    +0.194 C 
ENDBRANCH  20   3
ENDBRANCH  19  20
TORSDOF 3
ENDMDL
