MODEL 1
REMARK VINA RESULT:      -8.1      0.000      0.000
REMARK  Name = 11883402
REMARK  9 active torsions:
REMARK  status: ('A' for Active; 'I' for Inactive)
REMARK    1  A    between atoms: O_6  and  C_15
REMARK    2  A    between atoms: O_6  and  C_19
REMARK    3  A    between atoms: N_9  and  C_14
REMARK    4  A    between atoms: N_10  and  C_20
REMARK    5  A    between atoms: N_11  and  C_21
REMARK    6  A    between atoms: C_24  and  C_25
REMARK    7  A    between atoms: C_25  and  C_30
REMARK    8  A    between atoms: C_25  and  C_31
REMARK    9  A    between atoms: C_32  and  C_35
REMARK                            x       y       z     vdW  Elec       q    Type
REMARK                         _______ _______ _______ _____ _____    ______ ____
ROOT
ATOM      4  O   UNL     1      -9.756  -9.374  15.336  0.00  0.00    -0.368 OA
ATOM      5  O   UNL     1     -10.603  -8.869  18.240  0.00  0.00    -0.368 OA
ATOM     12  C   UNL     1     -10.278  -7.960  17.168  0.00  0.00    +0.173 C 
ATOM     13  C   UNL     1      -9.149  -8.595  16.381  0.00  0.00    +0.192 C 
ATOM     14  C   UNL     1     -11.418  -7.897  16.178  0.00  0.00    +0.131 C 
ATOM     15  C   UNL     1      -8.481  -9.470  17.415  0.00  0.00    +0.235 C 
ATOM     16  C   UNL     1     -11.171  -9.127  15.322  0.00  0.00    +0.185 C 
ATOM     17  C   UNL     1      -9.659  -9.951  18.234  0.00  0.00    +0.207 C 
ENDROOT
BRANCH  14   9
ATOM      7  O   UNL     1     -13.332  -7.028  14.231  0.00  0.00    -0.252 OA
ATOM      9  N   UNL     1     -11.360  -6.690  15.391  0.00  0.00    -0.292 N 
ATOM     10  N   UNL     1     -12.020  -5.120  13.848  0.00  0.00    -0.269 N 
ATOM     18  C   UNL     1     -12.341  -6.337  14.455  0.00  0.00    +0.304 C 
ATOM     36  H   UNL     1     -10.607  -6.033  15.568  0.00  0.00    +0.151 HD
ATOM     37  H   UNL     1     -11.157  -4.673  14.149  0.00  0.00    +0.156 HD
BRANCH  10  20
ATOM     20  C   UNL     1     -12.750  -4.426  12.856  0.00  0.00    +0.035 A 
ATOM     22  C   UNL     1     -14.004  -3.893  13.158  0.00  0.00    +0.023 A 
ATOM     23  C   UNL     1     -12.218  -4.273  11.576  0.00  0.00    +0.023 A 
ATOM     24  C   UNL     1     -14.191  -3.055  10.899  0.00  0.00    -0.045 A 
ATOM     26  C   UNL     1     -14.724  -3.208  12.179  0.00  0.00    +0.006 A 
ATOM     27  C   UNL     1     -12.939  -3.588  10.597  0.00  0.00    +0.006 A 
BRANCH  24  25
ATOM     25  C   UNL     1     -14.962  -2.321   9.855  0.00  0.00    +0.013 C 
ATOM     30  C   UNL     1     -15.123  -3.137   8.559  0.00  0.00    +0.012 C 
ATOM     31  C   UNL     1     -16.344  -1.861  10.357  0.00  0.00    +0.012 C 
ENDBRANCH  24  25
ENDBRANCH  10  20
ENDBRANCH  14   9
BRANCH  15   6
ATOM      6  O   UNL     1      -7.749 -10.539  16.861  0.00  0.00    -0.442 OA
BRANCH   6  19
ATOM      8  O   UNL     1      -5.815 -10.351  18.065  0.00  0.00    -0.226 OA
ATOM     11  N   UNL     1      -5.794 -10.606  15.738  0.00  0.00    -0.251 N 
ATOM     19  C   UNL     1      -6.377 -10.486  16.985  0.00  0.00    +0.405 C 
ATOM     38  H   UNL     1      -6.432 -10.712  14.953  0.00  0.00    +0.158 HD
BRANCH  11  21
ATOM     21  C   UNL     1      -4.418 -10.603  15.416  0.00  0.00    +0.037 A 
ATOM     28  C   UNL     1      -4.013 -10.530  14.083  0.00  0.00    +0.035 A 
ATOM     29  C   UNL     1      -3.465 -10.673  16.432  0.00  0.00    +0.023 A 
ATOM     32  C   UNL     1      -2.655 -10.528  13.766  0.00  0.00    +0.057 A 
ATOM     33  C   UNL     1      -2.107 -10.670  16.115  0.00  0.00    +0.002 A 
ATOM     34  C   UNL     1      -1.701 -10.597  14.783  0.00  0.00    +0.012 A 
BRANCH  32  35
ATOM      1  F   UNL     1      -1.148  -9.632  12.139  0.00  0.00    -0.166 F 
ATOM      2  F   UNL     1      -3.189  -9.987  11.498  0.00  0.00    -0.166 F 
ATOM      3  F   UNL     1      -1.852 -11.669  11.840  0.00  0.00    -0.166 F 
ATOM     35  C   UNL     1      -2.221 -10.453  12.342  0.00  0.00    +0.417 C 
ENDBRANCH  32  35
ENDBRANCH  11  21
ENDBRANCH   6  19
ENDBRANCH  15   6
TORSDOF 7
ENDMDL
MODEL 2
REMARK VINA RESULT:      -8.1     27.952     32.552
REMARK  Name = 11883402
REMARK  9 active torsions:
REMARK  status: ('A' for Active; 'I' for Inactive)
REMARK    1  A    between atoms: O_6  and  C_15
REMARK    2  A    between atoms: O_6  and  C_19
REMARK    3  A    between atoms: N_9  and  C_14
REMARK    4  A    between atoms: N_10  and  C_20
REMARK    5  A    between atoms: N_11  and  C_21
REMARK    6  A    between atoms: C_24  and  C_25
REMARK    7  A    between atoms: C_25  and  C_30
REMARK    8  A    between atoms: C_25  and  C_31
REMARK    9  A    between atoms: C_32  and  C_35
REMARK                            x       y       z     vdW  Elec       q    Type
REMARK                         _______ _______ _______ _____ _____    ______ ____
ROOT
ATOM      4  O   UNL     1      15.363   8.246  19.386  0.00  0.00    -0.368 OA
ATOM      5  O   UNL     1      14.765   7.154  22.188  0.00  0.00    -0.368 OA
ATOM     12  C   UNL     1      15.625   6.668  21.137  0.00  0.00    +0.173 C 
ATOM     13  C   UNL     1      14.919   6.952  19.826  0.00  0.00    +0.192 C 
ATOM     14  C   UNL     1      16.879   7.508  21.062  0.00  0.00    +0.131 C 
ATOM     15  C   UNL     1      13.465   6.968  20.234  0.00  0.00    +0.235 C 
ATOM     16  C   UNL     1      16.418   8.703  20.247  0.00  0.00    +0.185 C 
ATOM     17  C   UNL     1      13.528   7.595  21.610  0.00  0.00    +0.207 C 
ENDROOT
BRANCH  14   9
ATOM      7  O   UNL     1      19.162   6.295  22.297  0.00  0.00    -0.252 OA
ATOM      9  N   UNL     1      17.944   6.798  20.397  0.00  0.00    -0.292 N 
ATOM     10  N   UNL     1      19.900   5.612  20.177  0.00  0.00    -0.269 N 
ATOM     18  C   UNL     1      19.030   6.232  21.077  0.00  0.00    +0.304 C 
ATOM     36  H   UNL     1      17.872   6.645  19.396  0.00  0.00    +0.151 HD
ATOM     37  H   UNL     1      19.643   5.652  19.193  0.00  0.00    +0.156 HD
BRANCH  10  20
ATOM     20  C   UNL     1      21.105   4.930  20.463  0.00  0.00    +0.035 A 
ATOM     22  C   UNL     1      22.327   5.589  20.334  0.00  0.00    +0.023 A 
ATOM     23  C   UNL     1      21.071   3.598  20.875  0.00  0.00    +0.023 A 
ATOM     24  C   UNL     1      23.482   3.583  21.029  0.00  0.00    -0.045 A 
ATOM     26  C   UNL     1      23.516   4.916  20.617  0.00  0.00    +0.006 A 
ATOM     27  C   UNL     1      22.260   2.924  21.158  0.00  0.00    +0.006 A 
BRANCH  24  25
ATOM     25  C   UNL     1      24.753   2.866  21.332  0.00  0.00    +0.013 C 
ATOM     30  C   UNL     1      25.341   3.259  22.699  0.00  0.00    +0.012 C 
ATOM     31  C   UNL     1      24.598   1.334  21.250  0.00  0.00    +0.012 C 
ENDBRANCH  24  25
ENDBRANCH  10  20
ENDBRANCH  14   9
BRANCH  15   6
ATOM      6  O   UNL     1      12.642   7.699  19.355  0.00  0.00    -0.442 OA
BRANCH   6  19
ATOM      8  O   UNL     1      10.664   8.600  20.066  0.00  0.00    -0.226 OA
ATOM     11  N   UNL     1      12.681   9.777  20.231  0.00  0.00    -0.251 N 
ATOM     19  C   UNL     1      11.874   8.703  19.909  0.00  0.00    +0.405 C 
ATOM     38  H   UNL     1      13.671   9.674  20.024  0.00  0.00    +0.158 HD
BRANCH  11  21
ATOM     21  C   UNL     1      12.301  11.007  20.816  0.00  0.00    +0.037 A 
ATOM     28  C   UNL     1      11.809  11.037  22.121  0.00  0.00    +0.035 A 
ATOM     29  C   UNL     1      12.418  12.190  20.086  0.00  0.00    +0.023 A 
ATOM     32  C   UNL     1      11.434  12.251  22.697  0.00  0.00    +0.057 A 
ATOM     33  C   UNL     1      12.043  13.404  20.663  0.00  0.00    +0.002 A 
ATOM     34  C   UNL     1      11.552  13.435  21.968  0.00  0.00    +0.012 A 
BRANCH  32  35
ATOM      1  F   UNL     1      11.800  12.769  25.003  0.00  0.00    -0.166 F 
ATOM      2  F   UNL     1      10.543  11.057  24.568  0.00  0.00    -0.166 F 
ATOM      3  F   UNL     1       9.795  13.068  24.213  0.00  0.00    -0.166 F 
ATOM     35  C   UNL     1      10.906  12.284  24.091  0.00  0.00    +0.417 C 
ENDBRANCH  32  35
ENDBRANCH  11  21
ENDBRANCH   6  19
ENDBRANCH  15   6
TORSDOF 7
ENDMDL
MODEL 3
REMARK VINA RESULT:      -8.1      5.852      7.036
REMARK  Name = 11883402
REMARK  9 active torsions:
REMARK  status: ('A' for Active; 'I' for Inactive)
REMARK    1  A    between atoms: O_6  and  C_15
REMARK    2  A    between atoms: O_6  and  C_19
REMARK    3  A    between atoms: N_9  and  C_14
REMARK    4  A    between atoms: N_10  and  C_20
REMARK    5  A    between atoms: N_11  and  C_21
REMARK    6  A    between atoms: C_24  and  C_25
REMARK    7  A    between atoms: C_25  and  C_30
REMARK    8  A    between atoms: C_25  and  C_31
REMARK    9  A    between atoms: C_32  and  C_35
REMARK                            x       y       z     vdW  Elec       q    Type
REMARK                         _______ _______ _______ _____ _____    ______ ____
ROOT
ATOM      4  O   UNL     1      -6.413 -12.065  17.257  0.00  0.00    -0.368 OA
ATOM      5  O   UNL     1      -4.891 -11.527  19.864  0.00  0.00    -0.368 OA
ATOM     12  C   UNL     1      -5.937 -10.790  19.200  0.00  0.00    +0.173 C 
ATOM     13  C   UNL     1      -5.683 -10.912  17.711  0.00  0.00    +0.192 C 
ATOM     14  C   UNL     1      -7.266 -11.480  19.398  0.00  0.00    +0.131 C 
ATOM     15  C   UNL     1      -4.191 -11.137  17.651  0.00  0.00    +0.235 C 
ATOM     16  C   UNL     1      -7.232 -12.559  18.329  0.00  0.00    +0.185 C 
ATOM     17  C   UNL     1      -3.946 -11.979  18.883  0.00  0.00    +0.207 C 
ENDROOT
BRANCH  14   9
ATOM      7  O   UNL     1     -10.019 -11.941  20.045  0.00  0.00    -0.252 OA
ATOM      9  N   UNL     1      -8.365 -10.570  19.190  0.00  0.00    -0.292 N 
ATOM     10  N   UNL     1     -10.532  -9.805  19.219  0.00  0.00    -0.269 N 
ATOM     18  C   UNL     1      -9.688 -10.873  19.536  0.00  0.00    +0.304 C 
ATOM     36  H   UNL     1      -8.162  -9.640  18.837  0.00  0.00    +0.151 HD
ATOM     37  H   UNL     1     -10.095  -8.988  18.799  0.00  0.00    +0.156 HD
BRANCH  10  20
ATOM     20  C   UNL     1     -11.930  -9.717  19.411  0.00  0.00    +0.035 A 
ATOM     22  C   UNL     1     -12.782  -9.647  18.308  0.00  0.00    +0.023 A 
ATOM     23  C   UNL     1     -12.458  -9.700  20.702  0.00  0.00    +0.023 A 
ATOM     24  C   UNL     1     -14.689  -9.543  19.789  0.00  0.00    -0.045 A 
ATOM     26  C   UNL     1     -14.162  -9.560  18.498  0.00  0.00    +0.006 A 
ATOM     27  C   UNL     1     -13.838  -9.612  20.891  0.00  0.00    +0.006 A 
BRANCH  24  25
ATOM     25  C   UNL     1     -16.163  -9.451  19.989  0.00  0.00    +0.013 C 
ATOM     30  C   UNL     1     -16.536  -8.859  21.361  0.00  0.00    +0.012 C 
ATOM     31  C   UNL     1     -16.861  -8.655  18.870  0.00  0.00    +0.012 C 
ENDBRANCH  24  25
ENDBRANCH  10  20
ENDBRANCH  14   9
BRANCH  15   6
ATOM      6  O   UNL     1      -3.765 -11.783  16.473  0.00  0.00    -0.442 OA
BRANCH   6  19
ATOM      8  O   UNL     1      -2.154 -10.285  15.850  0.00  0.00    -0.226 OA
ATOM     11  N   UNL     1      -3.642 -11.207  14.296  0.00  0.00    -0.251 N 
ATOM     19  C   UNL     1      -3.091 -11.013  15.548  0.00  0.00    +0.405 C 
ATOM     38  H   UNL     1      -4.423 -11.857  14.244  0.00  0.00    +0.158 HD
BRANCH  11  21
ATOM     21  C   UNL     1      -3.254 -10.614  13.073  0.00  0.00    +0.037 A 
ATOM     28  C   UNL     1      -4.223 -10.134  12.191  0.00  0.00    +0.035 A 
ATOM     29  C   UNL     1      -1.901 -10.512  12.747  0.00  0.00    +0.023 A 
ATOM     32  C   UNL     1      -3.838  -9.551  10.984  0.00  0.00    +0.057 A 
ATOM     33  C   UNL     1      -1.518  -9.928  11.540  0.00  0.00    +0.002 A 
ATOM     34  C   UNL     1      -2.485  -9.447  10.658  0.00  0.00    +0.012 A 
BRANCH  32  35
ATOM      1  F   UNL     1      -4.504  -9.120   8.727  0.00  0.00    -0.166 F 
ATOM      2  F   UNL     1      -5.194  -7.726  10.239  0.00  0.00    -0.166 F 
ATOM      3  F   UNL     1      -6.052  -9.722  10.132  0.00  0.00    -0.166 F 
ATOM     35  C   UNL     1      -4.873  -9.038  10.040  0.00  0.00    +0.417 C 
ENDBRANCH  32  35
ENDBRANCH  11  21
ENDBRANCH   6  19
ENDBRANCH  15   6
TORSDOF 7
ENDMDL
MODEL 4
REMARK VINA RESULT:      -8.0      2.171      2.960
REMARK  Name = 11883402
REMARK  9 active torsions:
REMARK  status: ('A' for Active; 'I' for Inactive)
REMARK    1  A    between atoms: O_6  and  C_15
REMARK    2  A    between atoms: O_6  and  C_19
REMARK    3  A    between atoms: N_9  and  C_14
REMARK    4  A    between atoms: N_10  and  C_20
REMARK    5  A    between atoms: N_11  and  C_21
REMARK    6  A    between atoms: C_24  and  C_25
REMARK    7  A    between atoms: C_25  and  C_30
REMARK    8  A    between atoms: C_25  and  C_31
REMARK    9  A    between atoms: C_32  and  C_35
REMARK                            x       y       z     vdW  Elec       q    Type
REMARK                         _______ _______ _______ _____ _____    ______ ____
ROOT
ATOM      4  O   UNL     1      -9.721  -8.470  17.706  0.00  0.00    -0.368 OA
ATOM      5  O   UNL     1     -11.374 -10.697  16.399  0.00  0.00    -0.368 OA
ATOM     12  C   UNL     1     -11.626  -9.286  16.552  0.00  0.00    +0.173 C 
ATOM     13  C   UNL     1     -11.081  -8.888  17.909  0.00  0.00    +0.192 C 
ATOM     14  C   UNL     1     -10.782  -8.498  15.578  0.00  0.00    +0.131 C 
ATOM     15  C   UNL     1     -11.159 -10.181  18.685  0.00  0.00    +0.235 C 
ATOM     16  C   UNL     1      -9.446  -8.423  16.296  0.00  0.00    +0.185 C 
ATOM     17  C   UNL     1     -10.830 -11.208  17.624  0.00  0.00    +0.207 C 
ENDROOT
BRANCH  14   9
ATOM      7  O   UNL     1     -12.005  -7.541  13.170  0.00  0.00    -0.252 OA
ATOM      9  N   UNL     1     -11.331  -7.184  15.353  0.00  0.00    -0.292 N 
ATOM     10  N   UNL     1     -12.357  -5.470  14.217  0.00  0.00    -0.269 N 
ATOM     18  C   UNL     1     -11.914  -6.793  14.141  0.00  0.00    +0.304 C 
ATOM     36  H   UNL     1     -11.356  -6.531  16.131  0.00  0.00    +0.151 HD
ATOM     37  H   UNL     1     -12.204  -4.987  15.099  0.00  0.00    +0.156 HD
BRANCH  10  20
ATOM     20  C   UNL     1     -12.996  -4.709  13.210  0.00  0.00    +0.035 A 
ATOM     22  C   UNL     1     -14.380  -4.530  13.245  0.00  0.00    +0.023 A 
ATOM     23  C   UNL     1     -12.244  -4.138  12.184  0.00  0.00    +0.023 A 
ATOM     24  C   UNL     1     -14.258  -3.209  11.225  0.00  0.00    -0.045 A 
ATOM     26  C   UNL     1     -15.010  -3.780  12.252  0.00  0.00    +0.006 A 
ATOM     27  C   UNL     1     -12.876  -3.388  11.191  0.00  0.00    +0.006 A 
BRANCH  24  25
ATOM     25  C   UNL     1     -14.933  -2.406  10.165  0.00  0.00    +0.013 C 
ATOM     30  C   UNL     1     -15.309  -3.252   8.935  0.00  0.00    +0.012 C 
ATOM     31  C   UNL     1     -16.178  -1.666  10.691  0.00  0.00    +0.012 C 
ENDBRANCH  24  25
ENDBRANCH  10  20
ENDBRANCH  14   9
BRANCH  15   6
ATOM      6  O   UNL     1     -10.266 -10.239  19.774  0.00  0.00    -0.442 OA
BRANCH   6  19
ATOM      8  O   UNL     1      -9.156 -12.235  19.885  0.00  0.00    -0.226 OA
ATOM     11  N   UNL     1      -8.097 -10.278  19.157  0.00  0.00    -0.251 N 
ATOM     19  C   UNL     1      -9.152 -11.038  19.625  0.00  0.00    +0.405 C 
ATOM     38  H   UNL     1      -8.289  -9.291  18.999  0.00  0.00    +0.158 HD
BRANCH  11  21
ATOM     21  C   UNL     1      -6.780 -10.700  18.869  0.00  0.00    +0.037 A 
ATOM     28  C   UNL     1      -6.244 -10.498  17.597  0.00  0.00    +0.035 A 
ATOM     29  C   UNL     1      -6.016 -11.321  19.858  0.00  0.00    +0.023 A 
ATOM     32  C   UNL     1      -4.944 -10.917  17.313  0.00  0.00    +0.057 A 
ATOM     33  C   UNL     1      -4.716 -11.739  19.574  0.00  0.00    +0.002 A 
ATOM     34  C   UNL     1      -4.179 -11.537  18.302  0.00  0.00    +0.012 A 
BRANCH  32  35
ATOM      1  F   UNL     1      -5.090  -9.828  15.189  0.00  0.00    -0.166 F 
ATOM      2  F   UNL     1      -4.289 -11.843  15.207  0.00  0.00    -0.166 F 
ATOM      3  F   UNL     1      -3.102 -10.198  15.991  0.00  0.00    -0.166 F 
ATOM     35  C   UNL     1      -4.371 -10.703  15.953  0.00  0.00    +0.417 C 
ENDBRANCH  32  35
ENDBRANCH  11  21
ENDBRANCH   6  19
ENDBRANCH  15   6
TORSDOF 7
ENDMDL
MODEL 5
REMARK VINA RESULT:      -7.9     22.993     24.647
REMARK  Name = 11883402
REMARK  9 active torsions:
REMARK  status: ('A' for Active; 'I' for Inactive)
REMARK    1  A    between atoms: O_6  and  C_15
REMARK    2  A    between atoms: O_6  and  C_19
REMARK    3  A    between atoms: N_9  and  C_14
REMARK    4  A    between atoms: N_10  and  C_20
REMARK    5  A    between atoms: N_11  and  C_21
REMARK    6  A    between atoms: C_24  and  C_25
REMARK    7  A    between atoms: C_25  and  C_30
REMARK    8  A    between atoms: C_25  and  C_31
REMARK    9  A    between atoms: C_32  and  C_35
REMARK                            x       y       z     vdW  Elec       q    Type
REMARK                         _______ _______ _______ _____ _____    ______ ____
ROOT
ATOM      4  O   UNL     1       4.567  11.087   3.847  0.00  0.00    -0.368 OA
ATOM      5  O   UNL     1       6.256  11.300   1.296  0.00  0.00    -0.368 OA
ATOM     12  C   UNL     1       5.098  10.498   1.611  0.00  0.00    +0.173 C 
ATOM     13  C   UNL     1       5.234  10.084   3.063  0.00  0.00    +0.192 C 
ATOM     14  C   UNL     1       3.854  11.354   1.595  0.00  0.00    +0.131 C 
ATOM     15  C   UNL     1       6.729  10.113   3.273  0.00  0.00    +0.235 C 
ATOM     16  C   UNL     1       3.886  11.999   2.969  0.00  0.00    +0.185 C 
ATOM     17  C   UNL     1       7.148  11.290   2.420  0.00  0.00    +0.207 C 
ENDROOT
BRANCH  14   9
ATOM      7  O   UNL     1       1.625  11.937  -0.110  0.00  0.00    -0.252 OA
ATOM      9  N   UNL     1       2.669  10.551   1.420  0.00  0.00    -0.292 N 
ATOM     10  N   UNL     1       0.611   9.943   0.599  0.00  0.00    -0.269 N 
ATOM     18  C   UNL     1       1.620  10.908   0.563  0.00  0.00    +0.304 C 
ATOM     36  H   UNL     1       2.620   9.653   1.890  0.00  0.00    +0.151 HD
ATOM     37  H   UNL     1       0.762   9.146   1.214  0.00  0.00    +0.156 HD
BRANCH  10  20
ATOM     20  C   UNL     1      -0.608   9.933  -0.118  0.00  0.00    +0.035 A 
ATOM     22  C   UNL     1      -1.821   9.870   0.568  0.00  0.00    +0.023 A 
ATOM     23  C   UNL     1      -0.598   9.987  -1.512  0.00  0.00    +0.023 A 
ATOM     24  C   UNL     1      -3.013   9.915  -1.533  0.00  0.00    -0.045 A 
ATOM     26  C   UNL     1      -3.023   9.861  -0.140  0.00  0.00    +0.006 A 
ATOM     27  C   UNL     1      -1.801   9.978  -2.220  0.00  0.00    +0.006 A 
BRANCH  24  25
ATOM     25  C   UNL     1      -4.298   9.906  -2.288  0.00  0.00    +0.013 C 
ATOM     30  C   UNL     1      -5.503   9.554  -1.396  0.00  0.00    +0.012 C 
ATOM     31  C   UNL     1      -4.561  11.237  -3.020  0.00  0.00    +0.012 C 
ENDBRANCH  24  25
ENDBRANCH  10  20
ENDBRANCH  14   9
BRANCH  15   6
ATOM      6  O   UNL     1       7.105  10.274   4.621  0.00  0.00    -0.442 OA
BRANCH   6  19
ATOM      8  O   UNL     1       9.219   9.945   5.429  0.00  0.00    -0.226 OA
ATOM     11  N   UNL     1       7.750   8.159   5.068  0.00  0.00    -0.251 N 
ATOM     19  C   UNL     1       8.140   9.484   5.079  0.00  0.00    +0.405 C 
ATOM     38  H   UNL     1       6.805   7.971   4.741  0.00  0.00    +0.158 HD
BRANCH  11  21
ATOM     21  C   UNL     1       8.501   7.027   5.456  0.00  0.00    +0.037 A 
ATOM     28  C   UNL     1       8.635   6.707   6.807  0.00  0.00    +0.035 A 
ATOM     29  C   UNL     1       9.109   6.229   4.486  0.00  0.00    +0.023 A 
ATOM     32  C   UNL     1       9.378   5.590   7.189  0.00  0.00    +0.057 A 
ATOM     33  C   UNL     1       9.852   5.112   4.869  0.00  0.00    +0.002 A 
ATOM     34  C   UNL     1       9.986   4.791   6.219  0.00  0.00    +0.012 A 
BRANCH  32  35
ATOM      1  F   UNL     1       8.567   5.813   9.428  0.00  0.00    -0.166 F 
ATOM      2  F   UNL     1      10.714   5.647   9.173  0.00  0.00    -0.166 F 
ATOM      3  F   UNL     1       9.448   3.905   8.866  0.00  0.00    -0.166 F 
ATOM     35  C   UNL     1       9.524   5.249   8.634  0.00  0.00    +0.417 C 
ENDBRANCH  32  35
ENDBRANCH  11  21
ENDBRANCH   6  19
ENDBRANCH  15   6
TORSDOF 7
ENDMDL
MODEL 6
REMARK VINA RESULT:      -7.9     28.105     32.320
REMARK  Name = 11883402
REMARK  9 active torsions:
REMARK  status: ('A' for Active; 'I' for Inactive)
REMARK    1  A    between atoms: O_6  and  C_15
REMARK    2  A    between atoms: O_6  and  C_19
REMARK    3  A    between atoms: N_9  and  C_14
REMARK    4  A    between atoms: N_10  and  C_20
REMARK    5  A    between atoms: N_11  and  C_21
REMARK    6  A    between atoms: C_24  and  C_25
REMARK    7  A    between atoms: C_25  and  C_30
REMARK    8  A    between atoms: C_25  and  C_31
REMARK    9  A    between atoms: C_32  and  C_35
REMARK                            x       y       z     vdW  Elec       q    Type
REMARK                         _______ _______ _______ _____ _____    ______ ____
ROOT
ATOM      4  O   UNL     1      14.357   9.811  19.074  0.00  0.00    -0.368 OA
ATOM      5  O   UNL     1      12.998   7.290  20.169  0.00  0.00    -0.368 OA
ATOM     12  C   UNL     1      14.349   7.531  19.726  0.00  0.00    +0.173 C 
ATOM     13  C   UNL     1      14.262   8.478  18.546  0.00  0.00    +0.192 C 
ATOM     14  C   UNL     1      15.105   8.321  20.768  0.00  0.00    +0.131 C 
ATOM     15  C   UNL     1      12.884   8.191  17.997  0.00  0.00    +0.235 C 
ATOM     16  C   UNL     1      14.666   9.744  20.476  0.00  0.00    +0.185 C 
ATOM     17  C   UNL     1      12.090   7.924  19.256  0.00  0.00    +0.207 C 
ENDROOT
BRANCH  14   9
ATOM      7  O   UNL     1      16.715   6.157  21.738  0.00  0.00    -0.252 OA
ATOM      9  N   UNL     1      16.530   8.167  20.609  0.00  0.00    -0.292 N 
ATOM     10  N   UNL     1      18.603   7.196  20.810  0.00  0.00    -0.269 N 
ATOM     18  C   UNL     1      17.245   7.075  21.116  0.00  0.00    +0.304 C 
ATOM     36  H   UNL     1      17.030   8.850  20.048  0.00  0.00    +0.151 HD
ATOM     37  H   UNL     1      18.881   8.023  20.285  0.00  0.00    +0.156 HD
BRANCH  10  20
ATOM     20  C   UNL     1      19.651   6.306  21.141  0.00  0.00    +0.035 A 
ATOM     22  C   UNL     1      20.393   6.506  22.306  0.00  0.00    +0.023 A 
ATOM     23  C   UNL     1      19.943   5.229  20.305  0.00  0.00    +0.023 A 
ATOM     24  C   UNL     1      21.719   4.551  21.796  0.00  0.00    -0.045 A 
ATOM     26  C   UNL     1      21.427   5.628  22.632  0.00  0.00    +0.006 A 
ATOM     27  C   UNL     1      20.977   4.352  20.632  0.00  0.00    +0.006 A 
BRANCH  24  25
ATOM     25  C   UNL     1      22.823   3.613  22.147  0.00  0.00    +0.013 C 
ATOM     30  C   UNL     1      22.568   2.872  23.472  0.00  0.00    +0.012 C 
ATOM     31  C   UNL     1      23.110   2.595  21.026  0.00  0.00    +0.012 C 
ENDBRANCH  24  25
ENDBRANCH  10  20
ENDBRANCH  14   9
BRANCH  15   6
ATOM      6  O   UNL     1      12.345   9.253  17.245  0.00  0.00    -0.442 OA
BRANCH   6  19
ATOM      8  O   UNL     1      12.958   8.810  15.087  0.00  0.00    -0.226 OA
ATOM     11  N   UNL     1      13.590  10.791  16.162  0.00  0.00    -0.251 N 
ATOM     19  C   UNL     1      12.975   9.559  16.056  0.00  0.00    +0.405 C 
ATOM     38  H   UNL     1      13.492  11.267  17.055  0.00  0.00    +0.158 HD
BRANCH  11  21
ATOM     21  C   UNL     1      14.341  11.477  15.180  0.00  0.00    +0.037 A 
ATOM     28  C   UNL     1      15.731  11.535  15.278  0.00  0.00    +0.035 A 
ATOM     29  C   UNL     1      13.690  12.096  14.113  0.00  0.00    +0.023 A 
ATOM     32  C   UNL     1      16.470  12.214  14.309  0.00  0.00    +0.057 A 
ATOM     33  C   UNL     1      14.430  12.774  13.144  0.00  0.00    +0.002 A 
ATOM     34  C   UNL     1      15.820  12.832  13.241  0.00  0.00    +0.012 A 
BRANCH  32  35
ATOM      1  F   UNL     1      18.398  13.054  15.449  0.00  0.00    -0.166 F 
ATOM      2  F   UNL     1      18.563  12.789  13.303  0.00  0.00    -0.166 F 
ATOM      3  F   UNL     1      18.523  11.051  14.610  0.00  0.00    -0.166 F 
ATOM     35  C   UNL     1      17.957  12.278  14.415  0.00  0.00    +0.417 C 
ENDBRANCH  32  35
ENDBRANCH  11  21
ENDBRANCH   6  19
ENDBRANCH  15   6
TORSDOF 7
ENDMDL
MODEL 7
REMARK VINA RESULT:      -7.8     25.834     29.257
REMARK  Name = 11883402
REMARK  9 active torsions:
REMARK  status: ('A' for Active; 'I' for Inactive)
REMARK    1  A    between atoms: O_6  and  C_15
REMARK    2  A    between atoms: O_6  and  C_19
REMARK    3  A    between atoms: N_9  and  C_14
REMARK    4  A    between atoms: N_10  and  C_20
REMARK    5  A    between atoms: N_11  and  C_21
REMARK    6  A    between atoms: C_24  and  C_25
REMARK    7  A    between atoms: C_25  and  C_30
REMARK    8  A    between atoms: C_25  and  C_31
REMARK    9  A    between atoms: C_32  and  C_35
REMARK                            x       y       z     vdW  Elec       q    Type
REMARK                         _______ _______ _______ _____ _____    ______ ____
ROOT
ATOM      4  O   UNL     1      12.439  11.921  10.946  0.00  0.00    -0.368 OA
ATOM      5  O   UNL     1      11.939  14.803  11.864  0.00  0.00    -0.368 OA
ATOM     12  C   UNL     1      11.646  13.537  12.490  0.00  0.00    +0.173 C 
ATOM     13  C   UNL     1      11.241  12.584  11.383  0.00  0.00    +0.192 C 
ATOM     14  C   UNL     1      12.910  12.928  13.047  0.00  0.00    +0.131 C 
ATOM     15  C   UNL     1      10.703  13.519  10.327  0.00  0.00    +0.235 C 
ATOM     16  C   UNL     1      13.523  12.275  11.820  0.00  0.00    +0.185 C 
ATOM     17  C   UNL     1      11.613  14.718  10.469  0.00  0.00    +0.207 C 
ENDROOT
BRANCH  14   9
ATOM      7  O   UNL     1      14.783  11.695  14.831  0.00  0.00    -0.252 OA
ATOM      9  N   UNL     1      12.616  11.953  14.068  0.00  0.00    -0.292 N 
ATOM     10  N   UNL     1      13.015  10.485  15.791  0.00  0.00    -0.269 N 
ATOM     18  C   UNL     1      13.593  11.396  14.903  0.00  0.00    +0.304 C 
ATOM     36  H   UNL     1      11.645  11.706  14.235  0.00  0.00    +0.151 HD
ATOM     37  H   UNL     1      12.009  10.352  15.717  0.00  0.00    +0.156 HD
BRANCH  10  20
ATOM     20  C   UNL     1      13.660   9.717  16.788  0.00  0.00    +0.035 A 
ATOM     22  C   UNL     1      14.116  10.331  17.955  0.00  0.00    +0.023 A 
ATOM     23  C   UNL     1      13.838   8.346  16.606  0.00  0.00    +0.023 A 
ATOM     24  C   UNL     1      14.931   8.201  18.756  0.00  0.00    -0.045 A 
ATOM     26  C   UNL     1      14.752   9.572  18.938  0.00  0.00    +0.006 A 
ATOM     27  C   UNL     1      14.475   7.588  17.589  0.00  0.00    +0.006 A 
BRANCH  24  25
ATOM     25  C   UNL     1      15.609   7.392  19.808  0.00  0.00    +0.013 C 
ATOM     30  C   UNL     1      14.625   6.850  20.861  0.00  0.00    +0.012 C 
ATOM     31  C   UNL     1      16.435   6.232  19.218  0.00  0.00    +0.012 C 
ENDBRANCH  24  25
ENDBRANCH  10  20
ENDBRANCH  14   9
BRANCH  15   6
ATOM      6  O   UNL     1      10.737  12.979   9.026  0.00  0.00    -0.442 OA
BRANCH   6  19
ATOM      8  O   UNL     1       8.606  12.149   9.074  0.00  0.00    -0.226 OA
ATOM     11  N   UNL     1      10.337  11.029   7.964  0.00  0.00    -0.251 N 
ATOM     19  C   UNL     1       9.772  12.043   8.713  0.00  0.00    +0.405 C 
ATOM     38  H   UNL     1      11.330  11.118   7.763  0.00  0.00    +0.158 HD
BRANCH  11  21
ATOM     21  C   UNL     1       9.706   9.879   7.439  0.00  0.00    +0.037 A 
ATOM     28  C   UNL     1       9.883   8.641   8.056  0.00  0.00    +0.035 A 
ATOM     29  C   UNL     1       8.905   9.984   6.300  0.00  0.00    +0.023 A 
ATOM     32  C   UNL     1       9.260   7.507   7.535  0.00  0.00    +0.057 A 
ATOM     33  C   UNL     1       8.282   8.849   5.780  0.00  0.00    +0.002 A 
ATOM     34  C   UNL     1       8.458   7.611   6.397  0.00  0.00    +0.012 A 
BRANCH  32  35
ATOM      1  F   UNL     1       8.648   5.992   9.282  0.00  0.00    -0.166 F 
ATOM      2  F   UNL     1      10.721   5.974   8.648  0.00  0.00    -0.166 F 
ATOM      3  F   UNL     1       9.185   5.137   7.356  0.00  0.00    -0.166 F 
ATOM     35  C   UNL     1       9.450   6.182   8.193  0.00  0.00    +0.417 C 
ENDBRANCH  32  35
ENDBRANCH  11  21
ENDBRANCH   6  19
ENDBRANCH  15   6
TORSDOF 7
ENDMDL
MODEL 8
REMARK VINA RESULT:      -7.6     22.377     24.062
REMARK  Name = 11883402
REMARK  9 active torsions:
REMARK  status: ('A' for Active; 'I' for Inactive)
REMARK    1  A    between atoms: O_6  and  C_15
REMARK    2  A    between atoms: O_6  and  C_19
REMARK    3  A    between atoms: N_9  and  C_14
REMARK    4  A    between atoms: N_10  and  C_20
REMARK    5  A    between atoms: N_11  and  C_21
REMARK    6  A    between atoms: C_24  and  C_25
REMARK    7  A    between atoms: C_25  and  C_30
REMARK    8  A    between atoms: C_25  and  C_31
REMARK    9  A    between atoms: C_32  and  C_35
REMARK                            x       y       z     vdW  Elec       q    Type
REMARK                         _______ _______ _______ _____ _____    ______ ____
ROOT
ATOM      4  O   UNL     1       4.843  11.243   4.700  0.00  0.00    -0.368 OA
ATOM      5  O   UNL     1       6.164  12.002   2.038  0.00  0.00    -0.368 OA
ATOM     12  C   UNL     1       5.161  11.016   2.360  0.00  0.00    +0.173 C 
ATOM     13  C   UNL     1       5.526  10.446   3.717  0.00  0.00    +0.192 C 
ATOM     14  C   UNL     1       3.829  11.687   2.596  0.00  0.00    +0.131 C 
ATOM     15  C   UNL     1       7.020  10.655   3.768  0.00  0.00    +0.235 C 
ATOM     16  C   UNL     1       3.953  12.154   4.035  0.00  0.00    +0.185 C 
ATOM     17  C   UNL     1       7.183  11.975   3.048  0.00  0.00    +0.207 C 
ENDROOT
BRANCH  14   9
ATOM      7  O   UNL     1       1.036  12.251   2.901  0.00  0.00    -0.252 OA
ATOM      9  N   UNL     1       2.739  10.757   2.438  0.00  0.00    -0.292 N 
ATOM     10  N   UNL     1       0.566  10.010   2.389  0.00  0.00    -0.269 N 
ATOM     18  C   UNL     1       1.395  11.114   2.605  0.00  0.00    +0.304 C 
ATOM     36  H   UNL     1       2.950   9.813   2.127  0.00  0.00    +0.151 HD
ATOM     37  H   UNL     1       1.026   9.133   2.152  0.00  0.00    +0.156 HD
BRANCH  10  20
ATOM     20  C   UNL     1      -0.845   9.956   2.462  0.00  0.00    +0.035 A 
ATOM     22  C   UNL     1      -1.470   9.611   3.661  0.00  0.00    +0.023 A 
ATOM     23  C   UNL     1      -1.613  10.248   1.335  0.00  0.00    +0.023 A 
ATOM     24  C   UNL     1      -3.630   9.850   2.604  0.00  0.00    -0.045 A 
ATOM     26  C   UNL     1      -2.862   9.557   3.731  0.00  0.00    +0.006 A 
ATOM     27  C   UNL     1      -3.006  10.194   1.406  0.00  0.00    +0.006 A 
BRANCH  24  25
ATOM     25  C   UNL     1      -5.118   9.793   2.682  0.00  0.00    +0.013 C 
ATOM     30  C   UNL     1      -5.614   8.941   3.864  0.00  0.00    +0.012 C 
ATOM     31  C   UNL     1      -5.757  11.194   2.742  0.00  0.00    +0.012 C 
ENDBRANCH  24  25
ENDBRANCH  10  20
ENDBRANCH  14   9
BRANCH  15   6
ATOM      6  O   UNL     1       7.538  10.697   5.078  0.00  0.00    -0.442 OA
BRANCH   6  19
ATOM      8  O   UNL     1       9.670  10.068   5.616  0.00  0.00    -0.226 OA
ATOM     11  N   UNL     1       7.939   8.504   5.423  0.00  0.00    -0.251 N 
ATOM     19  C   UNL     1       8.503   9.765   5.398  0.00  0.00    +0.405 C 
ATOM     38  H   UNL     1       6.944   8.453   5.213  0.00  0.00    +0.158 HD
BRANCH  11  21
ATOM     21  C   UNL     1       8.570   7.272   5.706  0.00  0.00    +0.037 A 
ATOM     28  C   UNL     1       8.737   6.860   7.027  0.00  0.00    +0.035 A 
ATOM     29  C   UNL     1       9.029   6.470   4.660  0.00  0.00    +0.023 A 
ATOM     32  C   UNL     1       9.362   5.644   7.305  0.00  0.00    +0.057 A 
ATOM     33  C   UNL     1       9.654   5.254   4.938  0.00  0.00    +0.002 A 
ATOM     34  C   UNL     1       9.819   4.840   6.260  0.00  0.00    +0.012 A 
BRANCH  32  35
ATOM      1  F   UNL     1      10.757   5.536   9.244  0.00  0.00    -0.166 F 
ATOM      2  F   UNL     1       9.439   3.852   8.887  0.00  0.00    -0.166 F 
ATOM      3  F   UNL     1       8.615   5.749   9.560  0.00  0.00    -0.166 F 
ATOM     35  C   UNL     1       9.542   5.203   8.718  0.00  0.00    +0.417 C 
ENDBRANCH  32  35
ENDBRANCH  11  21
ENDBRANCH   6  19
ENDBRANCH  15   6
TORSDOF 7
ENDMDL
MODEL 9
REMARK VINA RESULT:      -7.4     28.693     32.001
REMARK  Name = 11883402
REMARK  9 active torsions:
REMARK  status: ('A' for Active; 'I' for Inactive)
REMARK    1  A    between atoms: O_6  and  C_15
REMARK    2  A    between atoms: O_6  and  C_19
REMARK    3  A    between atoms: N_9  and  C_14
REMARK    4  A    between atoms: N_10  and  C_20
REMARK    5  A    between atoms: N_11  and  C_21
REMARK    6  A    between atoms: C_24  and  C_25
REMARK    7  A    between atoms: C_25  and  C_30
REMARK    8  A    between atoms: C_25  and  C_31
REMARK    9  A    between atoms: C_32  and  C_35
REMARK                            x       y       z     vdW  Elec       q    Type
REMARK                         _______ _______ _______ _____ _____    ______ ____
ROOT
ATOM      4  O   UNL     1      16.692  -2.563  30.491  0.00  0.00    -0.368 OA
ATOM      5  O   UNL     1      19.171  -2.424  32.291  0.00  0.00    -0.368 OA
ATOM     12  C   UNL     1      18.457  -1.400  31.569  0.00  0.00    +0.173 C 
ATOM     13  C   UNL     1      18.003  -2.019  30.262  0.00  0.00    +0.192 C 
ATOM     14  C   UNL     1      17.165  -1.069  32.280  0.00  0.00    +0.131 C 
ATOM     15  C   UNL     1      19.028  -3.106  30.042  0.00  0.00    +0.235 C 
ATOM     16  C   UNL     1      16.240  -2.172  31.798  0.00  0.00    +0.185 C 
ATOM     17  C   UNL     1      19.294  -3.583  31.453  0.00  0.00    +0.207 C 
ENDROOT
BRANCH  14   9
ATOM      7  O   UNL     1      18.185   1.468  33.137  0.00  0.00    -0.252 OA
ATOM      9  N   UNL     1      16.676   0.232  31.896  0.00  0.00    -0.292 N 
ATOM     10  N   UNL     1      16.554   2.526  31.822  0.00  0.00    -0.269 N 
ATOM     18  C   UNL     1      17.232   1.430  32.362  0.00  0.00    +0.304 C 
ATOM     36  H   UNL     1      15.934   0.284  31.204  0.00  0.00    +0.151 HD
ATOM     37  H   UNL     1      15.782   2.320  31.193  0.00  0.00    +0.156 HD
BRANCH  10  20
ATOM     20  C   UNL     1      16.808   3.899  32.044  0.00  0.00    +0.035 A 
ATOM     22  C   UNL     1      16.874   4.779  30.963  0.00  0.00    +0.023 A 
ATOM     23  C   UNL     1      16.992   4.374  33.343  0.00  0.00    +0.023 A 
ATOM     24  C   UNL     1      17.309   6.609  32.481  0.00  0.00    -0.045 A 
ATOM     26  C   UNL     1      17.125   6.134  31.183  0.00  0.00    +0.006 A 
ATOM     27  C   UNL     1      17.243   5.729  33.561  0.00  0.00    +0.006 A 
BRANCH  24  25
ATOM     25  C   UNL     1      17.576   8.057  32.714  0.00  0.00    +0.013 C 
ATOM     30  C   UNL     1      18.940   8.502  32.156  0.00  0.00    +0.012 C 
ATOM     31  C   UNL     1      16.461   8.959  32.149  0.00  0.00    +0.012 C 
ENDBRANCH  24  25
ENDBRANCH  10  20
ENDBRANCH  14   9
BRANCH  15   6
ATOM      6  O   UNL     1      18.575  -4.147  29.208  0.00  0.00    -0.442 OA
BRANCH   6  19
ATOM      8  O   UNL     1      19.920  -3.735  27.404  0.00  0.00    -0.226 OA
ATOM     11  N   UNL     1      17.646  -4.233  27.154  0.00  0.00    -0.251 N 
ATOM     19  C   UNL     1      18.815  -4.012  27.856  0.00  0.00    +0.405 C 
ATOM     38  H   UNL     1      16.822  -4.453  27.710  0.00  0.00    +0.158 HD
BRANCH  11  21
ATOM     21  C   UNL     1      17.449  -4.194  25.755  0.00  0.00    +0.037 A 
ATOM     28  C   UNL     1      17.210  -2.977  25.117  0.00  0.00    +0.035 A 
ATOM     29  C   UNL     1      17.492  -5.375  25.013  0.00  0.00    +0.023 A 
ATOM     32  C   UNL     1      17.014  -2.940  23.737  0.00  0.00    +0.057 A 
ATOM     33  C   UNL     1      17.297  -5.337  23.632  0.00  0.00    +0.002 A 
ATOM     34  C   UNL     1      17.059  -4.120  22.994  0.00  0.00    +0.012 A 
BRANCH  32  35
ATOM      1  F   UNL     1      15.527  -1.565  22.465  0.00  0.00    -0.166 F 
ATOM      2  F   UNL     1      17.647  -1.358  22.057  0.00  0.00    -0.166 F 
ATOM      3  F   UNL     1      16.818  -0.577  23.910  0.00  0.00    -0.166 F 
ATOM     35  C   UNL     1      16.757  -1.639  23.054  0.00  0.00    +0.417 C 
ENDBRANCH  32  35
ENDBRANCH  11  21
ENDBRANCH   6  19
ENDBRANCH  15   6
TORSDOF 7
ENDMDL
MODEL 10
REMARK VINA RESULT:      -7.3      2.215      3.526
REMARK  Name = 11883402
REMARK  9 active torsions:
REMARK  status: ('A' for Active; 'I' for Inactive)
REMARK    1  A    between atoms: O_6  and  C_15
REMARK    2  A    between atoms: O_6  and  C_19
REMARK    3  A    between atoms: N_9  and  C_14
REMARK    4  A    between atoms: N_10  and  C_20
REMARK    5  A    between atoms: N_11  and  C_21
REMARK    6  A    between atoms: C_24  and  C_25
REMARK    7  A    between atoms: C_25  and  C_30
REMARK    8  A    between atoms: C_25  and  C_31
REMARK    9  A    between atoms: C_32  and  C_35
REMARK                            x       y       z     vdW  Elec       q    Type
REMARK                         _______ _______ _______ _____ _____    ______ ____
ROOT
ATOM      4  O   UNL     1     -12.490  -8.363  15.154  0.00  0.00    -0.368 OA
ATOM      5  O   UNL     1     -11.235  -5.807  16.291  0.00  0.00    -0.368 OA
ATOM     12  C   UNL     1     -11.655  -6.152  14.955  0.00  0.00    +0.173 C 
ATOM     13  C   UNL     1     -11.326  -7.619  14.757  0.00  0.00    +0.192 C 
ATOM     14  C   UNL     1     -13.161  -6.103  14.855  0.00  0.00    +0.131 C 
ATOM     15  C   UNL     1     -10.175  -7.828  15.712  0.00  0.00    +0.235 C 
ATOM     16  C   UNL     1     -13.567  -7.451  15.422  0.00  0.00    +0.185 C 
ATOM     17  C   UNL     1     -10.555  -6.931  16.869  0.00  0.00    +0.207 C 
ENDROOT
BRANCH  14   9
ATOM      7  O   UNL     1     -13.468  -3.650  13.405  0.00  0.00    -0.252 OA
ATOM      9  N   UNL     1     -13.590  -5.958  13.486  0.00  0.00    -0.292 N 
ATOM     10  N   UNL     1     -14.148  -4.888  11.530  0.00  0.00    -0.269 N 
ATOM     18  C   UNL     1     -13.715  -4.717  12.848  0.00  0.00    +0.304 C 
ATOM     36  H   UNL     1     -13.748  -6.798  12.937  0.00  0.00    +0.151 HD
ATOM     37  H   UNL     1     -14.309  -5.844  11.223  0.00  0.00    +0.156 HD
BRANCH  10  20
ATOM     20  C   UNL     1     -14.394  -3.888  10.561  0.00  0.00    +0.035 A 
ATOM     22  C   UNL     1     -13.557  -3.773   9.450  0.00  0.00    +0.023 A 
ATOM     23  C   UNL     1     -15.472  -3.017  10.715  0.00  0.00    +0.023 A 
ATOM     24  C   UNL     1     -14.879  -1.915   8.648  0.00  0.00    -0.045 A 
ATOM     26  C   UNL     1     -13.800  -2.786   8.494  0.00  0.00    +0.006 A 
ATOM     27  C   UNL     1     -15.714  -2.030   9.758  0.00  0.00    +0.006 A 
BRANCH  24  25
ATOM     25  C   UNL     1     -15.137  -0.862   7.625  0.00  0.00    +0.013 C 
ATOM     30  C   UNL     1     -15.700  -1.440   6.313  0.00  0.00    +0.012 C 
ATOM     31  C   UNL     1     -16.067   0.251   8.147  0.00  0.00    +0.012 C 
ENDBRANCH  24  25
ENDBRANCH  10  20
ENDBRANCH  14   9
BRANCH  15   6
ATOM      6  O   UNL     1     -10.012  -9.169  16.112  0.00  0.00    -0.442 OA
BRANCH   6  19
ATOM      8  O   UNL     1      -8.172  -9.945  14.998  0.00  0.00    -0.226 OA
ATOM     11  N   UNL     1      -8.243  -9.846  17.336  0.00  0.00    -0.251 N 
ATOM     19  C   UNL     1      -8.734  -9.686  16.055  0.00  0.00    +0.405 C 
ATOM     38  H   UNL     1      -8.864  -9.572  18.094  0.00  0.00    +0.158 HD
BRANCH  11  21
ATOM     21  C   UNL     1      -6.979 -10.344  17.728  0.00  0.00    +0.037 A 
ATOM     28  C   UNL     1      -5.946 -10.440  16.796  0.00  0.00    +0.035 A 
ATOM     29  C   UNL     1      -6.767 -10.740  19.049  0.00  0.00    +0.023 A 
ATOM     32  C   UNL     1      -4.700 -10.933  17.185  0.00  0.00    +0.057 A 
ATOM     33  C   UNL     1      -5.521 -11.232  19.437  0.00  0.00    +0.002 A 
ATOM     34  C   UNL     1      -4.487 -11.328  18.506  0.00  0.00    +0.012 A 
BRANCH  32  35
ATOM      1  F   UNL     1      -3.424 -12.299  15.694  0.00  0.00    -0.166 F 
ATOM      2  F   UNL     1      -2.375 -10.680  16.684  0.00  0.00    -0.166 F 
ATOM      3  F   UNL     1      -3.796 -10.241  15.097  0.00  0.00    -0.166 F 
ATOM     35  C   UNL     1      -3.596 -11.037  16.188  0.00  0.00    +0.417 C 
ENDBRANCH  32  35
ENDBRANCH  11  21
ENDBRANCH   6  19
ENDBRANCH  15   6
TORSDOF 7
ENDMDL
