MODEL 1
REMARK VINA RESULT:      -6.8      0.000      0.000
REMARK  Name = 75536758
REMARK  6 active torsions:
REMARK  status: ('A' for Active; 'I' for Inactive)
REMARK    1  A    between atoms: O_2  and  C_10
REMARK    2  A    between atoms: N_5  and  C_9
REMARK    3  A    between atoms: N_5  and  C_14
REMARK    4  A    between atoms: N_6  and  C_13
REMARK    5  A    between atoms: C_11  and  C_13
REMARK    6  A    between atoms: C_14  and  C_18
REMARK                            x       y       z     vdW  Elec       q    Type
REMARK                         _______ _______ _______ _____ _____    ______ ____
ROOT
ATOM      1  O   UNL     1      10.992   8.773  19.997  0.00  0.00    -0.371 OA
ATOM      9  C   UNL     1      12.448   6.934  19.616  0.00  0.00    +0.111 C 
ATOM     10  C   UNL     1      12.116   7.004  21.096  0.00  0.00    +0.164 C 
ATOM     11  C   UNL     1      10.835   7.829  21.070  0.00  0.00    +0.165 C 
ATOM     12  C   UNL     1      12.075   8.334  19.158  0.00  0.00    +0.181 C 
ENDROOT
BRANCH  10   2
ATOM      2  O   UNL     1      11.910   5.729  21.670  0.00  0.00    -0.388 OA
ATOM     27  H   UNL     1      10.958   5.532  21.644  0.00  0.00    +0.210 HD
ENDBRANCH  10   2
BRANCH   9   5
ATOM      5  N   UNL     1      13.836   6.600  19.345  0.00  0.00    -0.305 NA
ATOM     25  H   UNL     1      14.019   6.721  18.349  0.00  0.00    +0.123 HD
BRANCH   5  14
ATOM     14  C   UNL     1      14.740   7.462  20.098  0.00  0.00    +0.118 C 
BRANCH  14  18
ATOM      8  N   UNL     1      17.863   5.589  19.065  0.00  0.00    -0.263 NA
ATOM     18  C   UNL     1      16.142   6.915  20.126  0.00  0.00    -0.015 A 
ATOM     21  C   UNL     1      17.002   7.199  21.182  0.00  0.00    +0.008 A 
ATOM     22  C   UNL     1      16.618   6.112  19.100  0.00  0.00    +0.115 A 
ATOM     23  C   UNL     1      18.291   6.678  21.181  0.00  0.00    +0.020 A 
ATOM     24  C   UNL     1      18.670   5.887  20.109  0.00  0.00    +0.111 A 
ENDBRANCH  14  18
ENDBRANCH   5  14
ENDBRANCH   9   5
BRANCH  11  13
ATOM     13  C   UNL     1      10.572   8.568  22.369  0.00  0.00    +0.140 C 
BRANCH  13   6
ATOM      3  O   UNL     1      12.349  14.637  21.272  0.00  0.00    -0.377 OA
ATOM      4  O   UNL     1      13.015   9.934  22.658  0.00  0.00    -0.253 OA
ATOM      6  N   UNL     1      10.765   9.993  22.216  0.00  0.00    -0.297 N 
ATOM      7  N   UNL     1      12.035  11.986  22.201  0.00  0.00    -0.281 N 
ATOM     15  C   UNL     1      12.009  10.593  22.375  0.00  0.00    +0.302 C 
ATOM     16  C   UNL     1      13.303  12.702  22.359  0.00  0.00    +0.137 C 
ATOM     17  C   UNL     1      10.866  12.859  22.016  0.00  0.00    +0.137 C 
ATOM     19  C   UNL     1      13.473  13.756  21.275  0.00  0.00    +0.179 C 
ATOM     20  C   UNL     1      11.148  13.927  20.964  0.00  0.00    +0.179 C 
ATOM     26  H   UNL     1       9.937  10.532  22.002  0.00  0.00    +0.150 HD
ENDBRANCH  13   6
ENDBRANCH  11  13
TORSDOF 6
ENDMDL
MODEL 2
REMARK VINA RESULT:      -6.6      2.701      4.209
REMARK  Name = 75536758
REMARK  6 active torsions:
REMARK  status: ('A' for Active; 'I' for Inactive)
REMARK    1  A    between atoms: O_2  and  C_10
REMARK    2  A    between atoms: N_5  and  C_9
REMARK    3  A    between atoms: N_5  and  C_14
REMARK    4  A    between atoms: N_6  and  C_13
REMARK    5  A    between atoms: C_11  and  C_13
REMARK    6  A    between atoms: C_14  and  C_18
REMARK                            x       y       z     vdW  Elec       q    Type
REMARK                         _______ _______ _______ _____ _____    ______ ____
ROOT
ATOM      1  O   UNL     1      12.363   7.593  21.647  0.00  0.00    -0.371 OA
ATOM      9  C   UNL     1      12.629   6.780  19.430  0.00  0.00    +0.111 C 
ATOM     10  C   UNL     1      13.938   7.395  19.892  0.00  0.00    +0.164 C 
ATOM     11  C   UNL     1      13.761   7.359  21.404  0.00  0.00    +0.165 C 
ATOM     12  C   UNL     1      11.646   7.388  20.417  0.00  0.00    +0.181 C 
ENDROOT
BRANCH  10   2
ATOM      2  O   UNL     1      15.067   6.653  19.476  0.00  0.00    -0.388 OA
ATOM     27  H   UNL     1      15.653   6.531  20.241  0.00  0.00    +0.210 HD
ENDBRANCH  10   2
BRANCH   9   5
ATOM      5  N   UNL     1      12.301   7.078  18.046  0.00  0.00    -0.305 NA
ATOM     25  H   UNL     1      11.649   6.373  17.700  0.00  0.00    +0.123 HD
BRANCH   5  14
ATOM     14  C   UNL     1      11.682   8.393  17.925  0.00  0.00    +0.118 C 
BRANCH  14  18
ATOM      8  N   UNL     1      12.896  10.207  14.832  0.00  0.00    -0.263 NA
ATOM     18  C   UNL     1      12.482   9.310  17.039  0.00  0.00    -0.015 A 
ATOM     21  C   UNL     1      13.513  10.087  17.556  0.00  0.00    +0.008 A 
ATOM     22  C   UNL     1      12.215   9.406  15.682  0.00  0.00    +0.115 A 
ATOM     23  C   UNL     1      14.236  10.923  16.712  0.00  0.00    +0.020 A 
ATOM     24  C   UNL     1      13.890  10.948  15.371  0.00  0.00    +0.111 A 
ENDBRANCH  14  18
ENDBRANCH   5  14
ENDBRANCH   9   5
BRANCH  11  13
ATOM     13  C   UNL     1      14.589   8.404  22.130  0.00  0.00    +0.140 C 
BRANCH  13   6
ATOM      3  O   UNL     1      10.600  13.228  23.546  0.00  0.00    -0.377 OA
ATOM      4  O   UNL     1      14.034  10.864  20.882  0.00  0.00    -0.253 OA
ATOM      6  N   UNL     1      13.757   9.456  22.672  0.00  0.00    -0.297 N 
ATOM      7  N   UNL     1      12.708  11.573  22.648  0.00  0.00    -0.281 N 
ATOM     15  C   UNL     1      13.532  10.646  21.989  0.00  0.00    +0.302 C 
ATOM     16  C   UNL     1      12.423  12.858  22.005  0.00  0.00    +0.137 C 
ATOM     17  C   UNL     1      12.197  11.458  24.022  0.00  0.00    +0.137 C 
ATOM     19  C   UNL     1      10.958  13.235  22.164  0.00  0.00    +0.179 C 
ATOM     20  C   UNL     1      10.747  11.921  24.102  0.00  0.00    +0.179 C 
ATOM     26  H   UNL     1      13.363   9.282  23.585  0.00  0.00    +0.150 HD
ENDBRANCH  13   6
ENDBRANCH  11  13
TORSDOF 6
ENDMDL
MODEL 3
REMARK VINA RESULT:      -6.4      2.547      7.409
REMARK  Name = 75536758
REMARK  6 active torsions:
REMARK  status: ('A' for Active; 'I' for Inactive)
REMARK    1  A    between atoms: O_2  and  C_10
REMARK    2  A    between atoms: N_5  and  C_9
REMARK    3  A    between atoms: N_5  and  C_14
REMARK    4  A    between atoms: N_6  and  C_13
REMARK    5  A    between atoms: C_11  and  C_13
REMARK    6  A    between atoms: C_14  and  C_18
REMARK                            x       y       z     vdW  Elec       q    Type
REMARK                         _______ _______ _______ _____ _____    ______ ____
ROOT
ATOM      1  O   UNL     1      11.648   7.441  19.425  0.00  0.00    -0.371 OA
ATOM      9  C   UNL     1      11.607   9.534  20.548  0.00  0.00    +0.111 C 
ATOM     10  C   UNL     1      13.009   9.281  20.024  0.00  0.00    +0.164 C 
ATOM     11  C   UNL     1      12.735   8.248  18.939  0.00  0.00    +0.165 C 
ATOM     12  C   UNL     1      11.016   8.133  20.515  0.00  0.00    +0.181 C 
ENDROOT
BRANCH  10   2
ATOM      2  O   UNL     1      13.614  10.447  19.500  0.00  0.00    -0.388 OA
ATOM     27  H   UNL     1      13.005  10.844  18.855  0.00  0.00    +0.210 HD
ENDBRANCH  10   2
BRANCH   9   5
ATOM      5  N   UNL     1      11.578  10.130  21.873  0.00  0.00    -0.305 NA
ATOM     25  H   UNL     1      12.468   9.951  22.338  0.00  0.00    +0.123 HD
BRANCH   5  14
ATOM     14  C   UNL     1      11.368  11.571  21.796  0.00  0.00    +0.118 C 
BRANCH  14  18
ATOM      8  N   UNL     1      10.878  11.873  25.537  0.00  0.00    -0.263 NA
ATOM     18  C   UNL     1      11.059  12.165  23.144  0.00  0.00    -0.015 A 
ATOM     21  C   UNL     1      10.682  13.498  23.271  0.00  0.00    +0.008 A 
ATOM     22  C   UNL     1      11.142  11.402  24.298  0.00  0.00    +0.115 A 
ATOM     23  C   UNL     1      10.402  14.019  24.530  0.00  0.00    +0.020 A 
ATOM     24  C   UNL     1      10.514  13.173  25.621  0.00  0.00    +0.111 A 
ENDBRANCH  14  18
ENDBRANCH   5  14
ENDBRANCH   9   5
BRANCH  11  13
ATOM     13  C   UNL     1      13.932   7.366  18.634  0.00  0.00    +0.140 C 
BRANCH  13   6
ATOM      3  O   UNL     1      19.411   8.184  21.874  0.00  0.00    -0.377 OA
ATOM      4  O   UNL     1      16.257   5.803  18.897  0.00  0.00    -0.253 OA
ATOM      6  N   UNL     1      15.030   7.633  19.536  0.00  0.00    -0.297 N 
ATOM      7  N   UNL     1      17.126   7.196  20.536  0.00  0.00    -0.281 N 
ATOM     15  C   UNL     1      16.147   6.809  19.606  0.00  0.00    +0.302 C 
ATOM     16  C   UNL     1      18.334   6.379  20.681  0.00  0.00    +0.137 C 
ATOM     17  C   UNL     1      17.008   8.282  21.518  0.00  0.00    +0.137 C 
ATOM     19  C   UNL     1      19.572   7.255  20.801  0.00  0.00    +0.179 C 
ATOM     20  C   UNL     1      18.313   9.063  21.624  0.00  0.00    +0.179 C 
ATOM     26  H   UNL     1      14.930   8.446  20.127  0.00  0.00    +0.150 HD
ENDBRANCH  13   6
ENDBRANCH  11  13
TORSDOF 6
ENDMDL
MODEL 4
REMARK VINA RESULT:      -6.3      4.777      9.643
REMARK  Name = 75536758
REMARK  6 active torsions:
REMARK  status: ('A' for Active; 'I' for Inactive)
REMARK    1  A    between atoms: O_2  and  C_10
REMARK    2  A    between atoms: N_5  and  C_9
REMARK    3  A    between atoms: N_5  and  C_14
REMARK    4  A    between atoms: N_6  and  C_13
REMARK    5  A    between atoms: C_11  and  C_13
REMARK    6  A    between atoms: C_14  and  C_18
REMARK                            x       y       z     vdW  Elec       q    Type
REMARK                         _______ _______ _______ _____ _____    ______ ____
ROOT
ATOM      1  O   UNL     1      17.649   6.959  21.610  0.00  0.00    -0.371 OA
ATOM      9  C   UNL     1      16.293   6.163  19.829  0.00  0.00    +0.111 C 
ATOM     10  C   UNL     1      17.740   6.200  19.371  0.00  0.00    +0.164 C 
ATOM     11  C   UNL     1      18.471   6.199  20.707  0.00  0.00    +0.165 C 
ATOM     12  C   UNL     1      16.336   7.085  21.036  0.00  0.00    +0.181 C 
ENDROOT
BRANCH  10   2
ATOM      2  O   UNL     1      18.090   5.084  18.577  0.00  0.00    -0.388 OA
ATOM     27  H   UNL     1      18.863   5.321  18.038  0.00  0.00    +0.210 HD
ENDBRANCH  10   2
BRANCH   9   5
ATOM      5  N   UNL     1      15.349   6.601  18.815  0.00  0.00    -0.305 NA
ATOM     25  H   UNL     1      14.725   5.827  18.584  0.00  0.00    +0.123 HD
BRANCH   5  14
ATOM     14  C   UNL     1      14.550   7.725  19.291  0.00  0.00    +0.118 C 
BRANCH  14  18
ATOM      8  N   UNL     1      11.441   7.967  17.146  0.00  0.00    -0.263 NA
ATOM     18  C   UNL     1      13.581   8.207  18.245  0.00  0.00    -0.015 A 
ATOM     21  C   UNL     1      13.887   9.289  17.428  0.00  0.00    +0.008 A 
ATOM     22  C   UNL     1      12.354   7.586  18.066  0.00  0.00    +0.115 A 
ATOM     23  C   UNL     1      12.972   9.711  16.470  0.00  0.00    +0.020 A 
ATOM     24  C   UNL     1      11.773   9.024  16.371  0.00  0.00    +0.111 A 
ENDBRANCH  14  18
ENDBRANCH   5  14
ENDBRANCH   9   5
BRANCH  11  13
ATOM     13  C   UNL     1      19.856   6.814  20.633  0.00  0.00    +0.140 C 
BRANCH  13   6
ATOM      3  O   UNL     1      23.832   2.089  22.383  0.00  0.00    -0.377 OA
ATOM      4  O   UNL     1      20.704   5.848  23.137  0.00  0.00    -0.253 OA
ATOM      6  N   UNL     1      20.887   5.823  20.850  0.00  0.00    -0.297 N 
ATOM      7  N   UNL     1      22.270   4.435  22.172  0.00  0.00    -0.281 N 
ATOM     15  C   UNL     1      21.248   5.397  22.123  0.00  0.00    +0.302 C 
ATOM     16  C   UNL     1      22.720   3.936  23.474  0.00  0.00    +0.137 C 
ATOM     17  C   UNL     1      23.071   3.962  21.033  0.00  0.00    +0.137 C 
ATOM     19  C   UNL     1      22.930   2.430  23.437  0.00  0.00    +0.179 C 
ATOM     20  C   UNL     1      23.291   2.456  21.113  0.00  0.00    +0.179 C 
ATOM     26  H   UNL     1      21.343   5.470  20.021  0.00  0.00    +0.150 HD
ENDBRANCH  13   6
ENDBRANCH  11  13
TORSDOF 6
ENDMDL
MODEL 5
REMARK VINA RESULT:      -6.2      3.980      4.974
REMARK  Name = 75536758
REMARK  6 active torsions:
REMARK  status: ('A' for Active; 'I' for Inactive)
REMARK    1  A    between atoms: O_2  and  C_10
REMARK    2  A    between atoms: N_5  and  C_9
REMARK    3  A    between atoms: N_5  and  C_14
REMARK    4  A    between atoms: N_6  and  C_13
REMARK    5  A    between atoms: C_11  and  C_13
REMARK    6  A    between atoms: C_14  and  C_18
REMARK                            x       y       z     vdW  Elec       q    Type
REMARK                         _______ _______ _______ _____ _____    ______ ____
ROOT
ATOM      1  O   UNL     1      11.930   7.351  18.061  0.00  0.00    -0.371 OA
ATOM      9  C   UNL     1      12.922   8.201  20.045  0.00  0.00    +0.111 C 
ATOM     10  C   UNL     1      13.122   9.204  18.922  0.00  0.00    +0.164 C 
ATOM     11  C   UNL     1      12.025   8.781  17.954  0.00  0.00    +0.165 C 
ATOM     12  C   UNL     1      12.599   6.937  19.265  0.00  0.00    +0.181 C 
ENDROOT
BRANCH  10   2
ATOM      2  O   UNL     1      12.960  10.542  19.351  0.00  0.00    -0.388 OA
ATOM     27  H   UNL     1      12.202  10.925  18.878  0.00  0.00    +0.210 HD
ENDBRANCH  10   2
BRANCH   9   5
ATOM      5  N   UNL     1      14.083   8.054  20.908  0.00  0.00    -0.305 NA
ATOM     25  H   UNL     1      14.216   7.064  21.119  0.00  0.00    +0.123 HD
BRANCH   5  14
ATOM     14  C   UNL     1      15.286   8.564  20.262  0.00  0.00    +0.118 C 
BRANCH  14  18
ATOM      8  N   UNL     1      16.919   5.564  18.632  0.00  0.00    -0.263 NA
ATOM     18  C   UNL     1      16.277   7.468  19.976  0.00  0.00    -0.015 A 
ATOM     21  C   UNL     1      17.428   7.325  20.742  0.00  0.00    +0.008 A 
ATOM     22  C   UNL     1      16.071   6.570  18.940  0.00  0.00    +0.115 A 
ATOM     23  C   UNL     1      18.325   6.301  20.455  0.00  0.00    +0.020 A 
ATOM     24  C   UNL     1      18.028   5.456  19.398  0.00  0.00    +0.111 A 
ENDBRANCH  14  18
ENDBRANCH   5  14
ENDBRANCH   9   5
BRANCH  11  13
ATOM     13  C   UNL     1      12.313   9.170  16.515  0.00  0.00    +0.140 C 
BRANCH  13   6
ATOM      3  O   UNL     1      16.513  13.831  15.167  0.00  0.00    -0.377 OA
ATOM      4  O   UNL     1      14.580   9.287  14.852  0.00  0.00    -0.253 OA
ATOM      6  N   UNL     1      13.247  10.270  16.441  0.00  0.00    -0.297 N 
ATOM      7  N   UNL     1      15.166  11.391  15.635  0.00  0.00    -0.281 N 
ATOM     15  C   UNL     1      14.346  10.251  15.589  0.00  0.00    +0.302 C 
ATOM     16  C   UNL     1      16.352  11.452  14.777  0.00  0.00    +0.137 C 
ATOM     17  C   UNL     1      15.048  12.507  16.585  0.00  0.00    +0.137 C 
ATOM     19  C   UNL     1      16.499  12.830  14.148  0.00  0.00    +0.179 C 
ATOM     20  C   UNL     1      15.278  13.841  15.885  0.00  0.00    +0.179 C 
ATOM     26  H   UNL     1      13.065  11.049  17.057  0.00  0.00    +0.150 HD
ENDBRANCH  13   6
ENDBRANCH  11  13
TORSDOF 6
ENDMDL
MODEL 6
REMARK VINA RESULT:      -6.2     26.343     28.313
REMARK  Name = 75536758
REMARK  6 active torsions:
REMARK  status: ('A' for Active; 'I' for Inactive)
REMARK    1  A    between atoms: O_2  and  C_10
REMARK    2  A    between atoms: N_5  and  C_9
REMARK    3  A    between atoms: N_5  and  C_14
REMARK    4  A    between atoms: N_6  and  C_13
REMARK    5  A    between atoms: C_11  and  C_13
REMARK    6  A    between atoms: C_14  and  C_18
REMARK                            x       y       z     vdW  Elec       q    Type
REMARK                         _______ _______ _______ _____ _____    ______ ____
ROOT
ATOM      1  O   UNL     1      -5.284 -11.488  15.855  0.00  0.00    -0.371 OA
ATOM      9  C   UNL     1      -3.168 -11.158  14.826  0.00  0.00    +0.111 C 
ATOM     10  C   UNL     1      -3.087 -10.719  16.277  0.00  0.00    +0.164 C 
ATOM     11  C   UNL     1      -4.272 -11.465  16.876  0.00  0.00    +0.165 C 
ATOM     12  C   UNL     1      -4.670 -11.160  14.596  0.00  0.00    +0.181 C 
ENDROOT
BRANCH  10   2
ATOM      2  O   UNL     1      -1.868 -11.087  16.891  0.00  0.00    -0.388 OA
ATOM     27  H   UNL     1      -2.070 -11.626  17.675  0.00  0.00    +0.210 HD
ENDBRANCH  10   2
BRANCH   9   5
ATOM      5  N   UNL     1      -2.455 -10.282  13.911  0.00  0.00    -0.305 NA
ATOM     25  H   UNL     1      -1.683  -9.839  14.409  0.00  0.00    +0.123 HD
BRANCH   5  14
ATOM     14  C   UNL     1      -1.920 -11.029  12.779  0.00  0.00    +0.118 C 
BRANCH  14  18
ATOM      8  N   UNL     1      -4.143 -11.667   9.782  0.00  0.00    -0.263 NA
ATOM     18  C   UNL     1      -2.714 -10.788  11.523  0.00  0.00    -0.015 A 
ATOM     21  C   UNL     1      -2.768  -9.526  10.940  0.00  0.00    +0.008 A 
ATOM     22  C   UNL     1      -3.414 -11.816  10.910  0.00  0.00    +0.115 A 
ATOM     23  C   UNL     1      -3.508  -9.335   9.778  0.00  0.00    +0.020 A 
ATOM     24  C   UNL     1      -4.172 -10.427   9.244  0.00  0.00    +0.111 A 
ENDBRANCH  14  18
ENDBRANCH   5  14
ENDBRANCH   9   5
BRANCH  11  13
ATOM     13  C   UNL     1      -4.823 -10.809  18.129  0.00  0.00    +0.140 C 
BRANCH  13   6
ATOM      3  O   UNL     1     -11.136  -9.855  18.782  0.00  0.00    -0.377 OA
ATOM      4  O   UNL     1      -6.709 -11.679  20.028  0.00  0.00    -0.253 OA
ATOM      6  N   UNL     1      -6.255 -10.622  18.043  0.00  0.00    -0.297 N 
ATOM      7  N   UNL     1      -8.484 -10.832  18.799  0.00  0.00    -0.281 N 
ATOM     15  C   UNL     1      -7.121 -11.083  19.027  0.00  0.00    +0.302 C 
ATOM     16  C   UNL     1      -9.469 -11.290  19.781  0.00  0.00    +0.137 C 
ATOM     17  C   UNL     1      -9.069 -10.270  17.572  0.00  0.00    +0.137 C 
ATOM     19  C   UNL     1     -10.533 -10.230  20.022  0.00  0.00    +0.179 C 
ATOM     20  C   UNL     1     -10.171  -9.272  17.905  0.00  0.00    +0.179 C 
ATOM     26  H   UNL     1      -6.591 -10.151  17.215  0.00  0.00    +0.150 HD
ENDBRANCH  13   6
ENDBRANCH  11  13
TORSDOF 6
ENDMDL
MODEL 7
REMARK VINA RESULT:      -6.0     26.155     28.589
REMARK  Name = 75536758
REMARK  6 active torsions:
REMARK  status: ('A' for Active; 'I' for Inactive)
REMARK    1  A    between atoms: O_2  and  C_10
REMARK    2  A    between atoms: N_5  and  C_9
REMARK    3  A    between atoms: N_5  and  C_14
REMARK    4  A    between atoms: N_6  and  C_13
REMARK    5  A    between atoms: C_11  and  C_13
REMARK    6  A    between atoms: C_14  and  C_18
REMARK                            x       y       z     vdW  Elec       q    Type
REMARK                         _______ _______ _______ _____ _____    ______ ____
ROOT
ATOM      1  O   UNL     1      -7.427 -13.138  18.718  0.00  0.00    -0.371 OA
ATOM      9  C   UNL     1      -5.571 -11.655  18.690  0.00  0.00    +0.111 C 
ATOM     10  C   UNL     1      -6.816 -10.882  19.085  0.00  0.00    +0.164 C 
ATOM     11  C   UNL     1      -7.723 -12.010  19.559  0.00  0.00    +0.165 C 
ATOM     12  C   UNL     1      -6.177 -12.894  18.051  0.00  0.00    +0.181 C 
ENDROOT
BRANCH  10   2
ATOM      2  O   UNL     1      -6.570  -9.938  20.109  0.00  0.00    -0.388 OA
ATOM     27  H   UNL     1      -6.056  -9.205  19.731  0.00  0.00    +0.210 HD
ENDBRANCH  10   2
BRANCH   9   5
ATOM      5  N   UNL     1      -4.693 -10.926  17.790  0.00  0.00    -0.305 NA
ATOM     25  H   UNL     1      -3.784 -10.805  18.238  0.00  0.00    +0.123 HD
BRANCH   5  14
ATOM     14  C   UNL     1      -4.508 -11.647  16.537  0.00  0.00    +0.118 C 
BRANCH  14  18
ATOM      8  N   UNL     1      -2.577 -10.345  13.553  0.00  0.00    -0.263 NA
ATOM     18  C   UNL     1      -3.392 -11.063  15.713  0.00  0.00    -0.015 A 
ATOM     21  C   UNL     1      -2.180 -10.709  16.296  0.00  0.00    +0.008 A 
ATOM     22  C   UNL     1      -3.539 -10.862  14.349  0.00  0.00    +0.115 A 
ATOM     23  C   UNL     1      -1.166 -10.174  15.509  0.00  0.00    +0.020 A 
ATOM     24  C   UNL     1      -1.412 -10.012  14.155  0.00  0.00    +0.111 A 
ENDBRANCH  14  18
ENDBRANCH   5  14
ENDBRANCH   9   5
BRANCH  11  13
ATOM     13  C   UNL     1      -9.200 -11.672  19.463  0.00  0.00    +0.140 C 
BRANCH  13   6
ATOM      3  O   UNL     1     -10.896  -7.059  15.337  0.00  0.00    -0.377 OA
ATOM      4  O   UNL     1      -9.777 -11.679  16.709  0.00  0.00    -0.253 OA
ATOM      6  N   UNL     1      -9.424 -10.501  18.646  0.00  0.00    -0.297 N 
ATOM      7  N   UNL     1      -9.890  -9.363  16.627  0.00  0.00    -0.281 N 
ATOM     15  C   UNL     1      -9.705 -10.589  17.287  0.00  0.00    +0.302 C 
ATOM     16  C   UNL     1     -10.182  -9.362  15.192  0.00  0.00    +0.137 C 
ATOM     17  C   UNL     1      -9.674  -8.028  17.202  0.00  0.00    +0.137 C 
ATOM     19  C   UNL     1     -11.269  -8.351  14.857  0.00  0.00    +0.179 C 
ATOM     20  C   UNL     1     -10.768  -7.063  16.759  0.00  0.00    +0.179 C 
ATOM     26  H   UNL     1      -9.346  -9.611  19.117  0.00  0.00    +0.150 HD
ENDBRANCH  13   6
ENDBRANCH  11  13
TORSDOF 6
ENDMDL
MODEL 8
REMARK VINA RESULT:      -6.0     27.274     29.521
REMARK  Name = 75536758
REMARK  6 active torsions:
REMARK  status: ('A' for Active; 'I' for Inactive)
REMARK    1  A    between atoms: O_2  and  C_10
REMARK    2  A    between atoms: N_5  and  C_9
REMARK    3  A    between atoms: N_5  and  C_14
REMARK    4  A    between atoms: N_6  and  C_13
REMARK    5  A    between atoms: C_11  and  C_13
REMARK    6  A    between atoms: C_14  and  C_18
REMARK                            x       y       z     vdW  Elec       q    Type
REMARK                         _______ _______ _______ _____ _____    ______ ____
ROOT
ATOM      1  O   UNL     1     -11.259  -8.975  17.843  0.00  0.00    -0.371 OA
ATOM      9  C   UNL     1      -9.096  -8.358  17.079  0.00  0.00    +0.111 C 
ATOM     10  C   UNL     1     -10.135  -7.813  16.117  0.00  0.00    +0.164 C 
ATOM     11  C   UNL     1     -11.380  -7.822  16.993  0.00  0.00    +0.165 C 
ATOM     12  C   UNL     1      -9.894  -9.427  17.809  0.00  0.00    +0.181 C 
ENDROOT
BRANCH  10   2
ATOM      2  O   UNL     1      -9.824  -6.512  15.657  0.00  0.00    -0.388 OA
ATOM     27  H   UNL     1      -9.069  -6.575  15.049  0.00  0.00    +0.210 HD
ENDBRANCH  10   2
BRANCH   9   5
ATOM      5  N   UNL     1      -7.912  -8.886  16.421  0.00  0.00    -0.305 NA
ATOM     25  H   UNL     1      -7.362  -8.110  16.053  0.00  0.00    +0.123 HD
BRANCH   5  14
ATOM     14  C   UNL     1      -7.089  -9.648  17.353  0.00  0.00    +0.118 C 
BRANCH  14  18
ATOM      8  N   UNL     1      -4.499 -10.444  14.710  0.00  0.00    -0.263 NA
ATOM     18  C   UNL     1      -5.808 -10.116  16.716  0.00  0.00    -0.015 A 
ATOM     21  C   UNL     1      -4.775 -10.640  17.484  0.00  0.00    +0.008 A 
ATOM     22  C   UNL     1      -5.621 -10.040  15.344  0.00  0.00    +0.115 A 
ATOM     23  C   UNL     1      -3.604 -11.067  16.867  0.00  0.00    +0.020 A 
ATOM     24  C   UNL     1      -3.515 -10.948  15.490  0.00  0.00    +0.111 A 
ENDBRANCH  14  18
ENDBRANCH   5  14
ENDBRANCH   9   5
BRANCH  11  13
ATOM     13  C   UNL     1     -12.672  -7.903  16.201  0.00  0.00    +0.140 C 
BRANCH  13   6
ATOM      3  O   UNL     1     -13.541  -3.119  12.011  0.00  0.00    -0.377 OA
ATOM      4  O   UNL     1     -14.968  -6.602  15.223  0.00  0.00    -0.253 OA
ATOM      6  N   UNL     1     -12.699  -6.930  15.131  0.00  0.00    -0.297 N 
ATOM      7  N   UNL     1     -13.744  -5.411  13.653  0.00  0.00    -0.281 N 
ATOM     15  C   UNL     1     -13.879  -6.331  14.706  0.00  0.00    +0.302 C 
ATOM     16  C   UNL     1     -14.938  -4.738  13.136  0.00  0.00    +0.137 C 
ATOM     17  C   UNL     1     -12.519  -5.145  12.885  0.00  0.00    +0.137 C 
ATOM     19  C   UNL     1     -14.665  -3.264  12.880  0.00  0.00    +0.179 C 
ATOM     20  C   UNL     1     -12.362  -3.653  12.615  0.00  0.00    +0.179 C 
ATOM     26  H   UNL     1     -11.810  -6.723  14.699  0.00  0.00    +0.150 HD
ENDBRANCH  13   6
ENDBRANCH  11  13
TORSDOF 6
ENDMDL
MODEL 9
REMARK VINA RESULT:      -5.9     27.559     29.446
REMARK  Name = 75536758
REMARK  6 active torsions:
REMARK  status: ('A' for Active; 'I' for Inactive)
REMARK    1  A    between atoms: O_2  and  C_10
REMARK    2  A    between atoms: N_5  and  C_9
REMARK    3  A    between atoms: N_5  and  C_14
REMARK    4  A    between atoms: N_6  and  C_13
REMARK    5  A    between atoms: C_11  and  C_13
REMARK    6  A    between atoms: C_14  and  C_18
REMARK                            x       y       z     vdW  Elec       q    Type
REMARK                         _______ _______ _______ _____ _____    ______ ____
ROOT
ATOM      1  O   UNL     1     -11.722  -8.081  14.192  0.00  0.00    -0.371 OA
ATOM      9  C   UNL     1     -10.046  -8.426  15.840  0.00  0.00    +0.111 C 
ATOM     10  C   UNL     1     -10.526  -6.988  15.916  0.00  0.00    +0.164 C 
ATOM     11  C   UNL     1     -11.880  -7.094  15.226  0.00  0.00    +0.165 C 
ATOM     12  C   UNL     1     -10.521  -8.829  14.454  0.00  0.00    +0.181 C 
ENDROOT
BRANCH  10   2
ATOM      2  O   UNL     1     -10.648  -6.524  17.246  0.00  0.00    -0.388 OA
ATOM     27  H   UNL     1     -10.249  -5.639  17.299  0.00  0.00    +0.210 HD
ENDBRANCH  10   2
BRANCH   9   5
ATOM      5  N   UNL     1      -8.609  -8.571  16.010  0.00  0.00    -0.305 NA
ATOM     25  H   UNL     1      -8.174  -7.649  15.964  0.00  0.00    +0.123 HD
BRANCH   5  14
ATOM     14  C   UNL     1      -8.291  -9.179  17.297  0.00  0.00    +0.118 C 
BRANCH  14  18
ATOM      8  N   UNL     1      -5.189 -10.975  18.511  0.00  0.00    -0.263 NA
ATOM     18  C   UNL     1      -6.907  -9.769  17.311  0.00  0.00    -0.015 A 
ATOM     21  C   UNL     1      -6.076  -9.675  16.201  0.00  0.00    +0.008 A 
ATOM     22  C   UNL     1      -6.420 -10.424  18.432  0.00  0.00    +0.115 A 
ATOM     23  C   UNL     1      -4.801 -10.230  16.244  0.00  0.00    +0.020 A 
ATOM     24  C   UNL     1      -4.409 -10.864  17.412  0.00  0.00    +0.111 A 
ENDBRANCH  14  18
ENDBRANCH   5  14
ENDBRANCH   9   5
BRANCH  11  13
ATOM     13  C   UNL     1     -12.347  -5.785  14.618  0.00  0.00    +0.140 C 
BRANCH  13   6
ATOM      3  O   UNL     1     -11.106  -4.845   8.392  0.00  0.00    -0.377 OA
ATOM      4  O   UNL     1     -12.433  -3.508  12.967  0.00  0.00    -0.253 OA
ATOM      6  N   UNL     1     -12.178  -5.778  13.181  0.00  0.00    -0.297 N 
ATOM      7  N   UNL     1     -12.058  -4.761  11.051  0.00  0.00    -0.281 N 
ATOM     15  C   UNL     1     -12.234  -4.606  12.436  0.00  0.00    +0.302 C 
ATOM     16  C   UNL     1     -12.110  -3.579  10.188  0.00  0.00    +0.137 C 
ATOM     17  C   UNL     1     -11.970  -6.037  10.326  0.00  0.00    +0.137 C 
ATOM     19  C   UNL     1     -11.016  -3.627   9.132  0.00  0.00    +0.179 C 
ATOM     20  C   UNL     1     -10.899  -5.973   9.243  0.00  0.00    +0.179 C 
ATOM     26  H   UNL     1     -12.034  -6.678  12.748  0.00  0.00    +0.150 HD
ENDBRANCH  13   6
ENDBRANCH  11  13
TORSDOF 6
ENDMDL
MODEL 10
REMARK VINA RESULT:      -5.9     27.429     29.867
REMARK  Name = 75536758
REMARK  6 active torsions:
REMARK  status: ('A' for Active; 'I' for Inactive)
REMARK    1  A    between atoms: O_2  and  C_10
REMARK    2  A    between atoms: N_5  and  C_9
REMARK    3  A    between atoms: N_5  and  C_14
REMARK    4  A    between atoms: N_6  and  C_13
REMARK    5  A    between atoms: C_11  and  C_13
REMARK    6  A    between atoms: C_14  and  C_18
REMARK                            x       y       z     vdW  Elec       q    Type
REMARK                         _______ _______ _______ _____ _____    ______ ____
ROOT
ATOM      1  O   UNL     1     -10.268 -12.610  18.360  0.00  0.00    -0.371 OA
ATOM      9  C   UNL     1      -8.725 -11.476  19.767  0.00  0.00    +0.111 C 
ATOM     10  C   UNL     1      -9.980 -10.633  19.627  0.00  0.00    +0.164 C 
ATOM     11  C   UNL     1     -10.991 -11.683  19.187  0.00  0.00    +0.165 C 
ATOM     12  C   UNL     1      -8.860 -12.415  18.579  0.00  0.00    +0.181 C 
ENDROOT
BRANCH  10   2
ATOM      2  O   UNL     1     -10.358 -10.012  20.840  0.00  0.00    -0.388 OA
ATOM     27  H   UNL     1     -11.117 -10.495  21.207  0.00  0.00    +0.210 HD
ENDBRANCH  10   2
BRANCH   9   5
ATOM      5  N   UNL     1      -7.496 -10.702  19.741  0.00  0.00    -0.305 NA
ATOM     25  H   UNL     1      -7.393 -10.211  20.630  0.00  0.00    +0.123 HD
BRANCH   5  14
ATOM     14  C   UNL     1      -6.336 -11.563  19.541  0.00  0.00    +0.118 C 
BRANCH  14  18
ATOM      8  N   UNL     1      -5.376  -9.874  16.293  0.00  0.00    -0.263 NA
ATOM     18  C   UNL     1      -5.524 -11.142  18.346  0.00  0.00    -0.015 A 
ATOM     21  C   UNL     1      -4.223 -11.599  18.166  0.00  0.00    +0.008 A 
ATOM     22  C   UNL     1      -6.050 -10.288  17.388  0.00  0.00    +0.115 A 
ATOM     23  C   UNL     1      -3.498 -11.194  17.050  0.00  0.00    +0.020 A 
ATOM     24  C   UNL     1      -4.114 -10.338  16.152  0.00  0.00    +0.111 A 
ENDBRANCH  14  18
ENDBRANCH   5  14
ENDBRANCH   9   5
BRANCH  11  13
ATOM     13  C   UNL     1     -12.158 -11.103  18.409  0.00  0.00    +0.140 C 
BRANCH  13   6
ATOM      3  O   UNL     1     -11.338  -5.809  14.875  0.00  0.00    -0.377 OA
ATOM      4  O   UNL     1     -12.244 -10.613  15.639  0.00  0.00    -0.253 OA
ATOM      6  N   UNL     1     -11.797  -9.862  17.761  0.00  0.00    -0.297 N 
ATOM      7  N   UNL     1     -11.478  -8.438  15.901  0.00  0.00    -0.281 N 
ATOM     15  C   UNL     1     -11.868  -9.699  16.382  0.00  0.00    +0.302 C 
ATOM     16  C   UNL     1     -11.514  -8.182  14.459  0.00  0.00    +0.137 C 
ATOM     17  C   UNL     1     -10.878  -7.355  16.694  0.00  0.00    +0.137 C 
ATOM     19  C   UNL     1     -12.080  -6.801  14.165  0.00  0.00    +0.179 C 
ATOM     20  C   UNL     1     -11.451  -6.003  16.286  0.00  0.00    +0.179 C 
ATOM     26  H   UNL     1     -11.473  -9.123  18.368  0.00  0.00    +0.150 HD
ENDBRANCH  13   6
ENDBRANCH  11  13
TORSDOF 6
ENDMDL
