MODEL 1
REMARK VINA RESULT:      -7.0      0.000      0.000
REMARK  Name = 26743084
REMARK  8 active torsions:
REMARK  status: ('A' for Active; 'I' for Inactive)
REMARK    1  A    between atoms: S_1  and  C_19
REMARK    2  A    between atoms: S_1  and  C_25
REMARK    3  A    between atoms: N_5  and  C_18
REMARK    4  A    between atoms: C_7  and  C_13
REMARK    5  A    between atoms: C_8  and  C_12
REMARK    6  A    between atoms: C_12  and  C_14
REMARK    7  A    between atoms: C_13  and  C_15
REMARK    8  A    between atoms: C_17  and  C_19
REMARK                            x       y       z     vdW  Elec       q    Type
REMARK                         _______ _______ _______ _____ _____    ______ ____
ROOT
ATOM      4  N   UNL     1      -6.194 -12.528  19.325  0.00  0.00    -0.316 NA
ATOM      7  C   UNL     1      -6.860 -10.986  16.899  0.00  0.00    +0.004 C 
ATOM      8  C   UNL     1      -5.403 -11.225  17.365  0.00  0.00    +0.012 C 
ATOM      9  C   UNL     1      -7.755 -12.104  17.458  0.00  0.00    +0.019 C 
ATOM     10  C   UNL     1      -5.321 -11.439  18.886  0.00  0.00    +0.085 C 
ATOM     11  C   UNL     1      -7.589 -12.285  18.967  0.00  0.00    +0.081 C 
ATOM     31  H   UNL     1      -6.118 -12.634  20.336  0.00  0.00    +0.122 HD
ENDROOT
BRANCH   8  12
ATOM     12  C   UNL     1      -4.445 -10.117  16.925  0.00  0.00    +0.064 C 
BRANCH  12  14
ATOM      3  O   UNL     1      -1.502 -11.368  15.270  0.00  0.00    -0.359 OA
ATOM      6  N   UNL     1      -2.183 -10.917  16.395  0.00  0.00    -0.083 NA
ATOM     14  C   UNL     1      -3.415 -10.636  15.962  0.00  0.00    +0.084 A 
ATOM     16  C   UNL     1      -3.569 -10.885  14.588  0.00  0.00    +0.071 A 
ATOM     17  C   UNL     1      -2.337 -11.344  14.201  0.00  0.00    +0.148 A 
BRANCH  17  19
ATOM     19  C   UNL     1      -1.775 -11.792  12.921  0.00  0.00    +0.151 C 
BRANCH  19   1
ATOM      1  S   UNL     1      -2.980 -12.694  11.882  0.00  0.00    -0.117 S 
BRANCH   1  25
ATOM     25  C   UNL     1      -3.470 -11.414  10.736  0.00  0.00    +0.008 A 
ATOM     26  C   UNL     1      -4.342 -11.712   9.689  0.00  0.00    +0.015 A 
ATOM     27  C   UNL     1      -2.979 -10.117  10.888  0.00  0.00    +0.015 A 
ATOM     28  C   UNL     1      -4.724 -10.712   8.794  0.00  0.00    +0.001 A 
ATOM     29  C   UNL     1      -3.361  -9.118   9.994  0.00  0.00    +0.001 A 
ATOM     30  C   UNL     1      -4.233  -9.416   8.947  0.00  0.00    +0.000 A 
ENDBRANCH   1  25
ENDBRANCH  19   1
ENDBRANCH  17  19
ENDBRANCH  12  14
ENDBRANCH   8  12
BRANCH   7  13
ATOM     13  C   UNL     1      -7.415  -9.606  17.270  0.00  0.00    +0.100 C 
BRANCH  13  15
ATOM      2  O   UNL     1      -8.691  -9.600  15.227  0.00  0.00    -0.275 OA
ATOM      5  N   UNL     1      -9.403  -8.305  17.052  0.00  0.00    -0.285 N 
ATOM     15  C   UNL     1      -8.567  -9.187  16.376  0.00  0.00    +0.217 C 
ATOM     32  H   UNL     1      -9.156  -8.053  18.006  0.00  0.00    +0.155 HD
BRANCH   5  18
ATOM     18  C   UNL     1     -10.582  -7.690  16.567  0.00  0.00    +0.033 A 
ATOM     20  C   UNL     1     -11.820  -8.303  16.762  0.00  0.00    +0.023 A 
ATOM     21  C   UNL     1     -10.506  -6.471  15.894  0.00  0.00    +0.023 A 
ATOM     22  C   UNL     1     -12.981  -7.698  16.283  0.00  0.00    +0.002 A 
ATOM     23  C   UNL     1     -11.668  -5.865  15.415  0.00  0.00    +0.002 A 
ATOM     24  C   UNL     1     -12.906  -6.478  15.610  0.00  0.00    +0.000 A 
ENDBRANCH   5  18
ENDBRANCH  13  15
ENDBRANCH   7  13
TORSDOF 8
ENDMDL
MODEL 2
REMARK VINA RESULT:      -6.8     28.506     31.086
REMARK  Name = 26743084
REMARK  8 active torsions:
REMARK  status: ('A' for Active; 'I' for Inactive)
REMARK    1  A    between atoms: S_1  and  C_19
REMARK    2  A    between atoms: S_1  and  C_25
REMARK    3  A    between atoms: N_5  and  C_18
REMARK    4  A    between atoms: C_7  and  C_13
REMARK    5  A    between atoms: C_8  and  C_12
REMARK    6  A    between atoms: C_12  and  C_14
REMARK    7  A    between atoms: C_13  and  C_15
REMARK    8  A    between atoms: C_17  and  C_19
REMARK                            x       y       z     vdW  Elec       q    Type
REMARK                         _______ _______ _______ _____ _____    ______ ____
ROOT
ATOM      4  N   UNL     1      16.479  11.782  12.526  0.00  0.00    -0.316 NA
ATOM      7  C   UNL     1      16.459  11.844  15.475  0.00  0.00    +0.004 C 
ATOM      8  C   UNL     1      15.362  11.134  14.646  0.00  0.00    +0.012 C 
ATOM      9  C   UNL     1      17.748  11.921  14.640  0.00  0.00    +0.019 C 
ATOM     10  C   UNL     1      15.208  11.762  13.251  0.00  0.00    +0.085 C 
ATOM     11  C   UNL     1      17.510  12.518  13.253  0.00  0.00    +0.081 C 
ATOM     31  H   UNL     1      16.338  12.211  11.611  0.00  0.00    +0.122 HD
ENDROOT
BRANCH   8  12
ATOM     12  C   UNL     1      14.012  11.079  15.363  0.00  0.00    +0.064 C 
BRANCH  12  14
ATOM      3  O   UNL     1      13.504   7.674  16.418  0.00  0.00    -0.359 OA
ATOM      6  N   UNL     1      13.601   8.658  15.441  0.00  0.00    -0.083 NA
ATOM     14  C   UNL     1      13.843   9.788  16.111  0.00  0.00    +0.084 A 
ATOM     16  C   UNL     1      13.908   9.582  17.500  0.00  0.00    +0.071 A 
ATOM     17  C   UNL     1      13.688   8.237  17.640  0.00  0.00    +0.148 A 
BRANCH  17  19
ATOM     19  C   UNL     1      13.618   7.333  18.795  0.00  0.00    +0.151 C 
BRANCH  19   1
ATOM      1  S   UNL     1      14.338   8.049  20.314  0.00  0.00    -0.117 S 
BRANCH   1  25
ATOM     25  C   UNL     1      15.989   7.369  20.264  0.00  0.00    +0.008 A 
ATOM     26  C   UNL     1      16.953   7.809  21.172  0.00  0.00    +0.015 A 
ATOM     27  C   UNL     1      16.315   6.399  19.317  0.00  0.00    +0.015 A 
ATOM     28  C   UNL     1      18.242   7.278  21.132  0.00  0.00    +0.001 A 
ATOM     29  C   UNL     1      17.603   5.868  19.277  0.00  0.00    +0.001 A 
ATOM     30  C   UNL     1      18.567   6.307  20.184  0.00  0.00    +0.000 A 
ENDBRANCH   1  25
ENDBRANCH  19   1
ENDBRANCH  17  19
ENDBRANCH  12  14
ENDBRANCH   8  12
BRANCH   7  13
ATOM     13  C   UNL     1      16.056  13.233  15.984  0.00  0.00    +0.100 C 
BRANCH  13  15
ATOM      2  O   UNL     1      16.504  14.500  17.984  0.00  0.00    -0.275 OA
ATOM      5  N   UNL     1      16.308  12.162  18.103  0.00  0.00    -0.285 N 
ATOM     15  C   UNL     1      16.317  13.401  17.470  0.00  0.00    +0.217 C 
ATOM     32  H   UNL     1      16.144  11.337  17.530  0.00  0.00    +0.155 HD
BRANCH   5  18
ATOM     18  C   UNL     1      16.510  11.894  19.477  0.00  0.00    +0.033 A 
ATOM     20  C   UNL     1      15.413  11.735  20.326  0.00  0.00    +0.023 A 
ATOM     21  C   UNL     1      17.804  11.788  19.984  0.00  0.00    +0.023 A 
ATOM     22  C   UNL     1      15.612  11.471  21.680  0.00  0.00    +0.002 A 
ATOM     23  C   UNL     1      18.003  11.524  21.340  0.00  0.00    +0.002 A 
ATOM     24  C   UNL     1      16.907  11.365  22.188  0.00  0.00    +0.000 A 
ENDBRANCH   5  18
ENDBRANCH  13  15
ENDBRANCH   7  13
TORSDOF 8
ENDMDL
MODEL 3
REMARK VINA RESULT:      -6.6     19.471     22.792
REMARK  Name = 26743084
REMARK  8 active torsions:
REMARK  status: ('A' for Active; 'I' for Inactive)
REMARK    1  A    between atoms: S_1  and  C_19
REMARK    2  A    between atoms: S_1  and  C_25
REMARK    3  A    between atoms: N_5  and  C_18
REMARK    4  A    between atoms: C_7  and  C_13
REMARK    5  A    between atoms: C_8  and  C_12
REMARK    6  A    between atoms: C_12  and  C_14
REMARK    7  A    between atoms: C_13  and  C_15
REMARK    8  A    between atoms: C_17  and  C_19
REMARK                            x       y       z     vdW  Elec       q    Type
REMARK                         _______ _______ _______ _____ _____    ______ ____
ROOT
ATOM      4  N   UNL     1     -16.819   4.967  23.800  0.00  0.00    -0.316 NA
ATOM      7  C   UNL     1     -14.554   6.554  22.773  0.00  0.00    +0.004 C 
ATOM      8  C   UNL     1     -15.898   7.193  23.198  0.00  0.00    +0.012 C 
ATOM      9  C   UNL     1     -14.379   5.217  23.512  0.00  0.00    +0.019 C 
ATOM     10  C   UNL     1     -17.066   6.202  23.057  0.00  0.00    +0.085 C 
ATOM     11  C   UNL     1     -15.594   4.303  23.360  0.00  0.00    +0.081 C 
ATOM     31  H   UNL     1     -17.609   4.335  23.677  0.00  0.00    +0.122 HD
ENDROOT
BRANCH   8  12
ATOM     12  C   UNL     1     -16.204   8.494  22.454  0.00  0.00    +0.064 C 
BRANCH  12  14
ATOM      3  O   UNL     1     -13.520  10.757  21.654  0.00  0.00    -0.359 OA
ATOM      6  N   UNL     1     -14.622   9.984  21.307  0.00  0.00    -0.083 NA
ATOM     14  C   UNL     1     -15.015   9.412  22.449  0.00  0.00    +0.084 A 
ATOM     16  C   UNL     1     -14.207   9.782  23.538  0.00  0.00    +0.071 A 
ATOM     17  C   UNL     1     -13.283  10.628  22.984  0.00  0.00    +0.148 A 
BRANCH  17  19
ATOM     19  C   UNL     1     -12.145  11.383  23.523  0.00  0.00    +0.151 C 
BRANCH  19   1
ATOM      1  S   UNL     1     -12.607  12.501  24.894  0.00  0.00    -0.117 S 
BRANCH   1  25
ATOM     25  C   UNL     1     -12.081  11.544  26.308  0.00  0.00    +0.008 A 
ATOM     26  C   UNL     1     -11.108  10.556  26.159  0.00  0.00    +0.015 A 
ATOM     27  C   UNL     1     -12.645  11.785  27.561  0.00  0.00    +0.015 A 
ATOM     28  C   UNL     1     -10.698   9.809  27.263  0.00  0.00    +0.001 A 
ATOM     29  C   UNL     1     -12.235  11.038  28.664  0.00  0.00    +0.001 A 
ATOM     30  C   UNL     1     -11.262  10.050  28.516  0.00  0.00    +0.000 A 
ENDBRANCH   1  25
ENDBRANCH  19   1
ENDBRANCH  17  19
ENDBRANCH  12  14
ENDBRANCH   8  12
BRANCH   7  13
ATOM     13  C   UNL     1     -14.403   6.366  21.260  0.00  0.00    +0.100 C 
BRANCH  13  15
ATOM      2  O   UNL     1     -12.003   6.156  21.218  0.00  0.00    -0.275 OA
ATOM      5  N   UNL     1     -13.066   7.688  19.790  0.00  0.00    -0.285 N 
ATOM     15  C   UNL     1     -13.006   6.704  20.772  0.00  0.00    +0.217 C 
ATOM     32  H   UNL     1     -13.982   8.050  19.534  0.00  0.00    +0.155 HD
BRANCH   5  18
ATOM     18  C   UNL     1     -11.985   8.273  19.087  0.00  0.00    +0.033 A 
ATOM     20  C   UNL     1     -11.719   7.889  17.772  0.00  0.00    +0.023 A 
ATOM     21  C   UNL     1     -11.187   9.232  19.709  0.00  0.00    +0.023 A 
ATOM     22  C   UNL     1     -10.654   8.464  17.080  0.00  0.00    +0.002 A 
ATOM     23  C   UNL     1     -10.121   9.808  19.016  0.00  0.00    +0.002 A 
ATOM     24  C   UNL     1      -9.854   9.424  17.702  0.00  0.00    +0.000 A 
ENDBRANCH   5  18
ENDBRANCH  13  15
ENDBRANCH   7  13
TORSDOF 8
ENDMDL
MODEL 4
REMARK VINA RESULT:      -6.5     27.764     30.080
REMARK  Name = 26743084
REMARK  8 active torsions:
REMARK  status: ('A' for Active; 'I' for Inactive)
REMARK    1  A    between atoms: S_1  and  C_19
REMARK    2  A    between atoms: S_1  and  C_25
REMARK    3  A    between atoms: N_5  and  C_18
REMARK    4  A    between atoms: C_7  and  C_13
REMARK    5  A    between atoms: C_8  and  C_12
REMARK    6  A    between atoms: C_12  and  C_14
REMARK    7  A    between atoms: C_13  and  C_15
REMARK    8  A    between atoms: C_17  and  C_19
REMARK                            x       y       z     vdW  Elec       q    Type
REMARK                         _______ _______ _______ _____ _____    ______ ____
ROOT
ATOM      4  N   UNL     1      13.712  15.226  22.645  0.00  0.00    -0.316 NA
ATOM      7  C   UNL     1      14.441  12.605  21.503  0.00  0.00    +0.004 C 
ATOM      8  C   UNL     1      13.337  12.772  22.575  0.00  0.00    +0.012 C 
ATOM      9  C   UNL     1      14.605  13.930  20.741  0.00  0.00    +0.019 C 
ATOM     10  C   UNL     1      13.581  14.012  23.452  0.00  0.00    +0.085 C 
ATOM     11  C   UNL     1      14.802  15.121  21.678  0.00  0.00    +0.081 C 
ATOM     31  H   UNL     1      13.879  16.022  23.259  0.00  0.00    +0.122 HD
ENDROOT
BRANCH   8  12
ATOM     12  C   UNL     1      13.152  11.527  23.444  0.00  0.00    +0.064 C 
BRANCH  12  14
ATOM      3  O   UNL     1      10.480   9.440  22.234  0.00  0.00    -0.359 OA
ATOM      6  N   UNL     1      10.972  10.477  23.018  0.00  0.00    -0.083 NA
ATOM     14  C   UNL     1      12.283  10.509  22.762  0.00  0.00    +0.084 A 
ATOM     16  C   UNL     1      12.672   9.526  21.837  0.00  0.00    +0.071 A 
ATOM     17  C   UNL     1      11.501   8.881  21.536  0.00  0.00    +0.148 A 
BRANCH  17  19
ATOM     19  C   UNL     1      11.154   7.762  20.652  0.00  0.00    +0.151 C 
BRANCH  19   1
ATOM      1  S   UNL     1      12.616   6.937  19.928  0.00  0.00    -0.117 S 
BRANCH   1  25
ATOM     25  C   UNL     1      12.752   7.791  18.364  0.00  0.00    +0.008 A 
ATOM     26  C   UNL     1      11.662   8.503  17.861  0.00  0.00    +0.015 A 
ATOM     27  C   UNL     1      13.946   7.744  17.646  0.00  0.00    +0.015 A 
ATOM     28  C   UNL     1      11.769   9.168  16.640  0.00  0.00    +0.001 A 
ATOM     29  C   UNL     1      14.052   8.410  16.426  0.00  0.00    +0.001 A 
ATOM     30  C   UNL     1      12.964   9.122  15.923  0.00  0.00    +0.000 A 
ENDBRANCH   1  25
ENDBRANCH  19   1
ENDBRANCH  17  19
ENDBRANCH  12  14
ENDBRANCH   8  12
BRANCH   7  13
ATOM     13  C   UNL     1      15.785  12.126  22.061  0.00  0.00    +0.100 C 
BRANCH  13  15
ATOM      2  O   UNL     1      16.816  11.313  20.042  0.00  0.00    -0.275 OA
ATOM      5  N   UNL     1      16.510   9.860  21.862  0.00  0.00    -0.285 N 
ATOM     15  C   UNL     1      16.434  11.072  21.182  0.00  0.00    +0.217 C 
ATOM     32  H   UNL     1      16.139   9.822  22.809  0.00  0.00    +0.155 HD
BRANCH   5  18
ATOM     18  C   UNL     1      17.046   8.639  21.390  0.00  0.00    +0.033 A 
ATOM     20  C   UNL     1      16.265   7.794  20.600  0.00  0.00    +0.023 A 
ATOM     21  C   UNL     1      18.354   8.279  21.713  0.00  0.00    +0.023 A 
ATOM     22  C   UNL     1      16.793   6.590  20.135  0.00  0.00    +0.002 A 
ATOM     23  C   UNL     1      18.882   7.075  21.248  0.00  0.00    +0.002 A 
ATOM     24  C   UNL     1      18.102   6.230  20.458  0.00  0.00    +0.000 A 
ENDBRANCH   5  18
ENDBRANCH  13  15
ENDBRANCH   7  13
TORSDOF 8
ENDMDL
MODEL 5
REMARK VINA RESULT:      -6.4     27.779     30.095
REMARK  Name = 26743084
REMARK  8 active torsions:
REMARK  status: ('A' for Active; 'I' for Inactive)
REMARK    1  A    between atoms: S_1  and  C_19
REMARK    2  A    between atoms: S_1  and  C_25
REMARK    3  A    between atoms: N_5  and  C_18
REMARK    4  A    between atoms: C_7  and  C_13
REMARK    5  A    between atoms: C_8  and  C_12
REMARK    6  A    between atoms: C_12  and  C_14
REMARK    7  A    between atoms: C_13  and  C_15
REMARK    8  A    between atoms: C_17  and  C_19
REMARK                            x       y       z     vdW  Elec       q    Type
REMARK                         _______ _______ _______ _____ _____    ______ ____
ROOT
ATOM      4  N   UNL     1      12.173  15.004  18.853  0.00  0.00    -0.316 NA
ATOM      7  C   UNL     1      13.678  12.530  19.414  0.00  0.00    +0.004 C 
ATOM      8  C   UNL     1      12.388  12.915  20.178  0.00  0.00    +0.012 C 
ATOM      9  C   UNL     1      13.672  13.218  18.039  0.00  0.00    +0.019 C 
ATOM     10  C   UNL     1      12.177  14.439  20.202  0.00  0.00    +0.085 C 
ATOM     11  C   UNL     1      13.417  14.722  18.141  0.00  0.00    +0.081 C 
ATOM     31  H   UNL     1      12.039  16.014  18.912  0.00  0.00    +0.122 HD
ENDROOT
BRANCH   8  12
ATOM     12  C   UNL     1      12.337  12.342  21.594  0.00  0.00    +0.064 C 
BRANCH  12  14
ATOM      3  O   UNL     1      13.021   8.841  22.085  0.00  0.00    -0.359 OA
ATOM      6  N   UNL     1      13.260  10.188  22.332  0.00  0.00    -0.083 NA
ATOM     14  C   UNL     1      12.372  10.840  21.578  0.00  0.00    +0.084 A 
ATOM     16  C   UNL     1      11.555   9.968  20.839  0.00  0.00    +0.071 A 
ATOM     17  C   UNL     1      12.004   8.723  21.194  0.00  0.00    +0.148 A 
BRANCH  17  19
ATOM     19  C   UNL     1      11.617   7.358  20.818  0.00  0.00    +0.151 C 
BRANCH  19   1
ATOM      1  S   UNL     1      12.780   6.579  19.641  0.00  0.00    -0.117 S 
BRANCH   1  25
ATOM     25  C   UNL     1      12.941   7.869  18.416  0.00  0.00    +0.008 A 
ATOM     26  C   UNL     1      14.153   8.547  18.272  0.00  0.00    +0.015 A 
ATOM     27  C   UNL     1      11.856   8.200  17.605  0.00  0.00    +0.015 A 
ATOM     28  C   UNL     1      14.278   9.554  17.315  0.00  0.00    +0.001 A 
ATOM     29  C   UNL     1      11.983   9.207  16.648  0.00  0.00    +0.001 A 
ATOM     30  C   UNL     1      13.193   9.884  16.504  0.00  0.00    +0.000 A 
ENDBRANCH   1  25
ENDBRANCH  19   1
ENDBRANCH  17  19
ENDBRANCH  12  14
ENDBRANCH   8  12
BRANCH   7  13
ATOM     13  C   UNL     1      14.971  12.843  20.176  0.00  0.00    +0.100 C 
BRANCH  13  15
ATOM      2  O   UNL     1      16.830  11.841  19.017  0.00  0.00    -0.275 OA
ATOM      5  N   UNL     1      15.967  10.815  20.947  0.00  0.00    -0.285 N 
ATOM     15  C   UNL     1      16.041  11.789  19.955  0.00  0.00    +0.217 C 
ATOM     32  H   UNL     1      15.244  10.913  21.656  0.00  0.00    +0.155 HD
BRANCH   5  18
ATOM     18  C   UNL     1      16.787   9.671  21.094  0.00  0.00    +0.033 A 
ATOM     20  C   UNL     1      16.254   8.399  20.878  0.00  0.00    +0.023 A 
ATOM     21  C   UNL     1      18.126   9.814  21.454  0.00  0.00    +0.023 A 
ATOM     22  C   UNL     1      17.060   7.271  21.023  0.00  0.00    +0.002 A 
ATOM     23  C   UNL     1      18.933   8.685  21.599  0.00  0.00    +0.002 A 
ATOM     24  C   UNL     1      18.401   7.414  21.384  0.00  0.00    +0.000 A 
ENDBRANCH   5  18
ENDBRANCH  13  15
ENDBRANCH   7  13
TORSDOF 8
ENDMDL
MODEL 6
REMARK VINA RESULT:      -6.3     25.334     28.913
REMARK  Name = 26743084
REMARK  8 active torsions:
REMARK  status: ('A' for Active; 'I' for Inactive)
REMARK    1  A    between atoms: S_1  and  C_19
REMARK    2  A    between atoms: S_1  and  C_25
REMARK    3  A    between atoms: N_5  and  C_18
REMARK    4  A    between atoms: C_7  and  C_13
REMARK    5  A    between atoms: C_8  and  C_12
REMARK    6  A    between atoms: C_12  and  C_14
REMARK    7  A    between atoms: C_13  and  C_15
REMARK    8  A    between atoms: C_17  and  C_19
REMARK                            x       y       z     vdW  Elec       q    Type
REMARK                         _______ _______ _______ _____ _____    ______ ____
ROOT
ATOM      4  N   UNL     1      17.392  10.419   5.280  0.00  0.00    -0.316 NA
ATOM      7  C   UNL     1      15.136   8.788   4.305  0.00  0.00    +0.004 C 
ATOM      8  C   UNL     1      15.521   8.872   5.802  0.00  0.00    +0.012 C 
ATOM      9  C   UNL     1      15.632  10.053   3.587  0.00  0.00    +0.019 C 
ATOM     10  C   UNL     1      17.013   9.195   5.986  0.00  0.00    +0.085 C 
ATOM     11  C   UNL     1      17.112  10.331   3.849  0.00  0.00    +0.081 C 
ATOM     31  H   UNL     1      18.386  10.595   5.420  0.00  0.00    +0.122 HD
ENDROOT
BRANCH   8  12
ATOM     12  C   UNL     1      15.140   7.619   6.590  0.00  0.00    +0.064 C 
BRANCH  12  14
ATOM      3  O   UNL     1      11.753   6.641   7.323  0.00  0.00    -0.359 OA
ATOM      6  N   UNL     1      13.127   6.432   7.351  0.00  0.00    -0.083 NA
ATOM     14  C   UNL     1      13.650   7.501   6.742  0.00  0.00    +0.084 A 
ATOM     16  C   UNL     1      12.666   8.407   6.313  0.00  0.00    +0.071 A 
ATOM     17  C   UNL     1      11.491   7.819   6.702  0.00  0.00    +0.148 A 
BRANCH  17  19
ATOM     19  C   UNL     1      10.077   8.198   6.586  0.00  0.00    +0.151 C 
BRANCH  19   1
ATOM      1  S   UNL     1       8.972   6.772   6.291  0.00  0.00    -0.117 S 
BRANCH   1  25
ATOM     25  C   UNL     1       9.573   6.194   4.710  0.00  0.00    +0.008 A 
ATOM     26  C   UNL     1      10.202   4.952   4.615  0.00  0.00    +0.015 A 
ATOM     27  C   UNL     1       9.415   6.986   3.573  0.00  0.00    +0.015 A 
ATOM     28  C   UNL     1      10.671   4.502   3.380  0.00  0.00    +0.001 A 
ATOM     29  C   UNL     1       9.884   6.535   2.340  0.00  0.00    +0.001 A 
ATOM     30  C   UNL     1      10.512   5.294   2.244  0.00  0.00    +0.000 A 
ENDBRANCH   1  25
ENDBRANCH  19   1
ENDBRANCH  17  19
ENDBRANCH  12  14
ENDBRANCH   8  12
BRANCH   7  13
ATOM     13  C   UNL     1      15.645   7.525   3.601  0.00  0.00    +0.100 C 
BRANCH  13  15
ATOM      2  O   UNL     1      13.355   6.821   3.348  0.00  0.00    -0.275 OA
ATOM      5  N   UNL     1      15.021   5.884   1.983  0.00  0.00    -0.285 N 
ATOM     15  C   UNL     1      14.521   6.716   2.981  0.00  0.00    +0.217 C 
ATOM     32  H   UNL     1      16.022   5.909   1.802  0.00  0.00    +0.155 HD
BRANCH   5  18
ATOM     18  C   UNL     1      14.298   4.978   1.172  0.00  0.00    +0.033 A 
ATOM     20  C   UNL     1      13.866   3.761   1.700  0.00  0.00    +0.023 A 
ATOM     21  C   UNL     1      14.015   5.302  -0.154  0.00  0.00    +0.023 A 
ATOM     22  C   UNL     1      13.153   2.868   0.901  0.00  0.00    +0.002 A 
ATOM     23  C   UNL     1      13.302   4.408  -0.954  0.00  0.00    +0.002 A 
ATOM     24  C   UNL     1      12.870   3.191  -0.426  0.00  0.00    +0.000 A 
ENDBRANCH   5  18
ENDBRANCH  13  15
ENDBRANCH   7  13
TORSDOF 8
ENDMDL
MODEL 7
REMARK VINA RESULT:      -6.3     25.479     28.479
REMARK  Name = 26743084
REMARK  8 active torsions:
REMARK  status: ('A' for Active; 'I' for Inactive)
REMARK    1  A    between atoms: S_1  and  C_19
REMARK    2  A    between atoms: S_1  and  C_25
REMARK    3  A    between atoms: N_5  and  C_18
REMARK    4  A    between atoms: C_7  and  C_13
REMARK    5  A    between atoms: C_8  and  C_12
REMARK    6  A    between atoms: C_12  and  C_14
REMARK    7  A    between atoms: C_13  and  C_15
REMARK    8  A    between atoms: C_17  and  C_19
REMARK                            x       y       z     vdW  Elec       q    Type
REMARK                         _______ _______ _______ _____ _____    ______ ____
ROOT
ATOM      4  N   UNL     1      17.176  10.059   4.977  0.00  0.00    -0.316 NA
ATOM      7  C   UNL     1      14.944   8.336   4.112  0.00  0.00    +0.004 C 
ATOM      8  C   UNL     1      15.228   8.652   5.600  0.00  0.00    +0.012 C 
ATOM      9  C   UNL     1      15.526   9.460   3.240  0.00  0.00    +0.019 C 
ATOM     10  C   UNL     1      16.713   8.971   5.839  0.00  0.00    +0.085 C 
ATOM     11  C   UNL     1      16.993   9.748   3.562  0.00  0.00    +0.081 C 
ATOM     31  H   UNL     1      18.164  10.236   5.159  0.00  0.00    +0.122 HD
ENDROOT
BRANCH   8  12
ATOM     12  C   UNL     1      14.756   7.549   6.548  0.00  0.00    +0.064 C 
BRANCH  12  14
ATOM      3  O   UNL     1      11.407   8.651   7.278  0.00  0.00    -0.359 OA
ATOM      6  N   UNL     1      12.752   8.889   7.021  0.00  0.00    -0.083 NA
ATOM     14  C   UNL     1      13.291   7.679   6.851  0.00  0.00    +0.084 A 
ATOM     16  C   UNL     1      12.344   6.649   6.989  0.00  0.00    +0.071 A 
ATOM     17  C   UNL     1      11.177   7.313   7.257  0.00  0.00    +0.148 A 
BRANCH  17  19
ATOM     19  C   UNL     1       9.797   6.882   7.511  0.00  0.00    +0.151 C 
BRANCH  19   1
ATOM      1  S   UNL     1       9.090   5.890   6.148  0.00  0.00    -0.117 S 
BRANCH   1  25
ATOM     25  C   UNL     1       8.663   7.172   4.978  0.00  0.00    +0.008 A 
ATOM     26  C   UNL     1       8.000   8.321   5.413  0.00  0.00    +0.015 A 
ATOM     27  C   UNL     1       8.990   7.023   3.631  0.00  0.00    +0.015 A 
ATOM     28  C   UNL     1       7.667   9.320   4.499  0.00  0.00    +0.001 A 
ATOM     29  C   UNL     1       8.657   8.023   2.718  0.00  0.00    +0.001 A 
ATOM     30  C   UNL     1       7.995   9.171   3.152  0.00  0.00    +0.000 A 
ENDBRANCH   1  25
ENDBRANCH  19   1
ENDBRANCH  17  19
ENDBRANCH  12  14
ENDBRANCH   8  12
BRANCH   7  13
ATOM     13  C   UNL     1      15.462   6.967   3.656  0.00  0.00    +0.100 C 
BRANCH  13  15
ATOM      2  O   UNL     1      15.107   6.055   1.454  0.00  0.00    -0.275 OA
ATOM      5  N   UNL     1      13.295   6.276   2.932  0.00  0.00    -0.285 N 
ATOM     15  C   UNL     1      14.625   6.377   2.535  0.00  0.00    +0.217 C 
ATOM     32  H   UNL     1      13.052   6.596   3.867  0.00  0.00    +0.155 HD
BRANCH   5  18
ATOM     18  C   UNL     1      12.205   5.778   2.179  0.00  0.00    +0.033 A 
ATOM     20  C   UNL     1      11.727   6.499   1.083  0.00  0.00    +0.023 A 
ATOM     21  C   UNL     1      11.610   4.567   2.530  0.00  0.00    +0.023 A 
ATOM     22  C   UNL     1      10.654   6.008   0.340  0.00  0.00    +0.002 A 
ATOM     23  C   UNL     1      10.536   4.076   1.787  0.00  0.00    +0.002 A 
ATOM     24  C   UNL     1      10.058   4.797   0.692  0.00  0.00    +0.000 A 
ENDBRANCH   5  18
ENDBRANCH  13  15
ENDBRANCH   7  13
TORSDOF 8
ENDMDL
MODEL 8
REMARK VINA RESULT:      -6.3     25.594     27.914
REMARK  Name = 26743084
REMARK  8 active torsions:
REMARK  status: ('A' for Active; 'I' for Inactive)
REMARK    1  A    between atoms: S_1  and  C_19
REMARK    2  A    between atoms: S_1  and  C_25
REMARK    3  A    between atoms: N_5  and  C_18
REMARK    4  A    between atoms: C_7  and  C_13
REMARK    5  A    between atoms: C_8  and  C_12
REMARK    6  A    between atoms: C_12  and  C_14
REMARK    7  A    between atoms: C_13  and  C_15
REMARK    8  A    between atoms: C_17  and  C_19
REMARK                            x       y       z     vdW  Elec       q    Type
REMARK                         _______ _______ _______ _____ _____    ______ ____
ROOT
ATOM      4  N   UNL     1       6.322   8.890  -2.686  0.00  0.00    -0.316 NA
ATOM      7  C   UNL     1       5.350   6.232  -3.520  0.00  0.00    +0.004 C 
ATOM      8  C   UNL     1       6.855   6.564  -3.373  0.00  0.00    +0.012 C 
ATOM      9  C   UNL     1       4.537   7.184  -2.629  0.00  0.00    +0.019 C 
ATOM     10  C   UNL     1       7.129   8.063  -3.583  0.00  0.00    +0.085 C 
ATOM     11  C   UNL     1       4.892   8.652  -2.865  0.00  0.00    +0.081 C 
ATOM     31  H   UNL     1       6.526   9.874  -2.860  0.00  0.00    +0.122 HD
ENDROOT
BRANCH   8  12
ATOM     12  C   UNL     1       7.746   5.720  -4.285  0.00  0.00    +0.064 C 
BRANCH  12  14
ATOM      3  O   UNL     1       9.887   4.296  -1.765  0.00  0.00    -0.359 OA
ATOM      6  N   UNL     1       8.817   5.087  -2.166  0.00  0.00    -0.083 NA
ATOM     14  C   UNL     1       8.793   4.986  -3.498  0.00  0.00    +0.084 A 
ATOM     16  C   UNL     1       9.815   4.154  -3.989  0.00  0.00    +0.071 A 
ATOM     17  C   UNL     1      10.473   3.747  -2.859  0.00  0.00    +0.148 A 
BRANCH  17  19
ATOM     19  C   UNL     1      11.630   2.876  -2.615  0.00  0.00    +0.151 C 
BRANCH  19   1
ATOM      1  S   UNL     1      13.226   3.765  -2.675  0.00  0.00    -0.117 S 
BRANCH   1  25
ATOM     25  C   UNL     1      13.725   3.687  -0.961  0.00  0.00    +0.008 A 
ATOM     26  C   UNL     1      12.819   3.263   0.011  0.00  0.00    +0.015 A 
ATOM     27  C   UNL     1      15.021   4.053  -0.596  0.00  0.00    +0.015 A 
ATOM     28  C   UNL     1      13.210   3.204   1.349  0.00  0.00    +0.001 A 
ATOM     29  C   UNL     1      15.410   3.993   0.742  0.00  0.00    +0.001 A 
ATOM     30  C   UNL     1      14.505   3.569   1.714  0.00  0.00    +0.000 A 
ENDBRANCH   1  25
ENDBRANCH  19   1
ENDBRANCH  17  19
ENDBRANCH  12  14
ENDBRANCH   8  12
BRANCH   7  13
ATOM     13  C   UNL     1       4.842   6.271  -4.966  0.00  0.00    +0.100 C 
BRANCH  13  15
ATOM      2  O   UNL     1       2.445   6.063  -4.843  0.00  0.00    -0.275 OA
ATOM      5  N   UNL     1       3.733   4.268  -5.642  0.00  0.00    -0.285 N 
ATOM     15  C   UNL     1       3.519   5.546  -5.133  0.00  0.00    +0.217 C 
ATOM     32  H   UNL     1       4.693   3.984  -5.824  0.00  0.00    +0.155 HD
BRANCH   5  18
ATOM     18  C   UNL     1       2.760   3.284  -5.939  0.00  0.00    +0.033 A 
ATOM     20  C   UNL     1       2.633   2.160  -5.121  0.00  0.00    +0.023 A 
ATOM     21  C   UNL     1       1.929   3.437  -7.047  0.00  0.00    +0.023 A 
ATOM     22  C   UNL     1       1.675   1.190  -5.413  0.00  0.00    +0.002 A 
ATOM     23  C   UNL     1       0.970   2.467  -7.340  0.00  0.00    +0.002 A 
ATOM     24  C   UNL     1       0.843   1.343  -6.523  0.00  0.00    +0.000 A 
ENDBRANCH   5  18
ENDBRANCH  13  15
ENDBRANCH   7  13
TORSDOF 8
ENDMDL
MODEL 9
REMARK VINA RESULT:      -6.2     27.827     29.906
REMARK  Name = 26743084
REMARK  8 active torsions:
REMARK  status: ('A' for Active; 'I' for Inactive)
REMARK    1  A    between atoms: S_1  and  C_19
REMARK    2  A    between atoms: S_1  and  C_25
REMARK    3  A    between atoms: N_5  and  C_18
REMARK    4  A    between atoms: C_7  and  C_13
REMARK    5  A    between atoms: C_8  and  C_12
REMARK    6  A    between atoms: C_12  and  C_14
REMARK    7  A    between atoms: C_13  and  C_15
REMARK    8  A    between atoms: C_17  and  C_19
REMARK                            x       y       z     vdW  Elec       q    Type
REMARK                         _______ _______ _______ _____ _____    ______ ____
ROOT
ATOM      4  N   UNL     1      11.588  13.180  24.093  0.00  0.00    -0.316 NA
ATOM      7  C   UNL     1      12.644  12.522  21.418  0.00  0.00    +0.004 C 
ATOM      8  C   UNL     1      13.415  12.205  22.722  0.00  0.00    +0.012 C 
ATOM      9  C   UNL     1      11.141  12.610  21.732  0.00  0.00    +0.019 C 
ATOM     10  C   UNL     1      13.032  13.171  23.856  0.00  0.00    +0.085 C 
ATOM     11  C   UNL     1      10.842  13.556  22.895  0.00  0.00    +0.081 C 
ATOM     31  H   UNL     1      11.374  13.835  24.844  0.00  0.00    +0.122 HD
ENDROOT
BRANCH   8  12
ATOM     12  C   UNL     1      14.931  12.176  22.529  0.00  0.00    +0.064 C 
BRANCH  12  14
ATOM      3  O   UNL     1      16.372   9.558  20.521  0.00  0.00    -0.359 OA
ATOM      6  N   UNL     1      16.144  10.897  20.817  0.00  0.00    -0.083 NA
ATOM     14  C   UNL     1      15.379  10.882  21.912  0.00  0.00    +0.084 A 
ATOM     16  C   UNL     1      15.093   9.576  22.347  0.00  0.00    +0.071 A 
ATOM     17  C   UNL     1      15.741   8.782  21.438  0.00  0.00    +0.148 A 
BRANCH  17  19
ATOM     19  C   UNL     1      15.878   7.330  21.273  0.00  0.00    +0.151 C 
BRANCH  19   1
ATOM      1  S   UNL     1      14.933   6.674  19.852  0.00  0.00    -0.117 S 
BRANCH   1  25
ATOM     25  C   UNL     1      13.293   7.281  20.222  0.00  0.00    +0.008 A 
ATOM     26  C   UNL     1      12.690   8.217  19.382  0.00  0.00    +0.015 A 
ATOM     27  C   UNL     1      12.618   6.819  21.352  0.00  0.00    +0.015 A 
ATOM     28  C   UNL     1      11.410   8.690  19.672  0.00  0.00    +0.001 A 
ATOM     29  C   UNL     1      11.339   7.292  21.640  0.00  0.00    +0.001 A 
ATOM     30  C   UNL     1      10.735   8.228  20.801  0.00  0.00    +0.000 A 
ENDBRANCH   1  25
ENDBRANCH  19   1
ENDBRANCH  17  19
ENDBRANCH  12  14
ENDBRANCH   8  12
BRANCH   7  13
ATOM     13  C   UNL     1      13.126  13.788  20.700  0.00  0.00    +0.100 C 
BRANCH  13  15
ATOM      2  O   UNL     1      12.861  14.348  18.372  0.00  0.00    -0.275 OA
ATOM      5  N   UNL     1      14.035  12.406  18.979  0.00  0.00    -0.285 N 
ATOM     15  C   UNL     1      13.310  13.572  19.209  0.00  0.00    +0.217 C 
ATOM     32  H   UNL     1      14.332  11.864  19.787  0.00  0.00    +0.155 HD
BRANCH   5  18
ATOM     18  C   UNL     1      14.415  11.859  17.730  0.00  0.00    +0.033 A 
ATOM     20  C   UNL     1      13.699  10.789  17.190  0.00  0.00    +0.023 A 
ATOM     21  C   UNL     1      15.504  12.389  17.039  0.00  0.00    +0.023 A 
ATOM     22  C   UNL     1      14.073  10.250  15.960  0.00  0.00    +0.002 A 
ATOM     23  C   UNL     1      15.878  11.849  15.808  0.00  0.00    +0.002 A 
ATOM     24  C   UNL     1      15.163  10.780  15.268  0.00  0.00    +0.000 A 
ENDBRANCH   5  18
ENDBRANCH  13  15
ENDBRANCH   7  13
TORSDOF 8
ENDMDL
MODEL 10
REMARK VINA RESULT:      -6.2      6.517     11.920
REMARK  Name = 26743084
REMARK  8 active torsions:
REMARK  status: ('A' for Active; 'I' for Inactive)
REMARK    1  A    between atoms: S_1  and  C_19
REMARK    2  A    between atoms: S_1  and  C_25
REMARK    3  A    between atoms: N_5  and  C_18
REMARK    4  A    between atoms: C_7  and  C_13
REMARK    5  A    between atoms: C_8  and  C_12
REMARK    6  A    between atoms: C_12  and  C_14
REMARK    7  A    between atoms: C_13  and  C_15
REMARK    8  A    between atoms: C_17  and  C_19
REMARK                            x       y       z     vdW  Elec       q    Type
REMARK                         _______ _______ _______ _____ _____    ______ ____
ROOT
ATOM      4  N   UNL     1      -9.653 -10.750   4.212  0.00  0.00    -0.316 NA
ATOM      7  C   UNL     1      -7.713 -10.092   6.335  0.00  0.00    +0.004 C 
ATOM      8  C   UNL     1      -8.713  -9.056   5.765  0.00  0.00    +0.012 C 
ATOM      9  C   UNL     1      -8.277 -11.506   6.118  0.00  0.00    +0.019 C 
ATOM     10  C   UNL     1      -9.117  -9.393   4.320  0.00  0.00    +0.085 C 
ATOM     11  C   UNL     1      -8.694 -11.752   4.669  0.00  0.00    +0.081 C 
ATOM     31  H   UNL     1      -9.902 -10.938   3.241  0.00  0.00    +0.122 HD
ENDROOT
BRANCH   8  12
ATOM     12  C   UNL     1      -8.204  -7.618   5.860  0.00  0.00    +0.064 C 
BRANCH  12  14
ATOM      3  O   UNL     1      -9.306  -5.579   8.616  0.00  0.00    -0.359 OA
ATOM      6  N   UNL     1      -8.315  -6.192   7.858  0.00  0.00    -0.083 NA
ATOM     14  C   UNL     1      -8.970  -6.834   6.887  0.00  0.00    +0.084 A 
ATOM     16  C   UNL     1     -10.362  -6.666   6.980  0.00  0.00    +0.071 A 
ATOM     17  C   UNL     1     -10.520  -5.869   8.083  0.00  0.00    +0.148 A 
BRANCH  17  19
ATOM     19  C   UNL     1     -11.688  -5.297   8.765  0.00  0.00    +0.151 C 
BRANCH  19   1
ATOM      1  S   UNL     1     -11.354  -3.666   9.520  0.00  0.00    -0.117 S 
BRANCH   1  25
ATOM     25  C   UNL     1     -12.621  -3.605  10.778  0.00  0.00    +0.008 A 
ATOM     26  C   UNL     1     -12.321  -3.973  12.090  0.00  0.00    +0.015 A 
ATOM     27  C   UNL     1     -13.911  -3.190  10.447  0.00  0.00    +0.015 A 
ATOM     28  C   UNL     1     -13.311  -3.925  13.071  0.00  0.00    +0.001 A 
ATOM     29  C   UNL     1     -14.900  -3.142  11.429  0.00  0.00    +0.001 A 
ATOM     30  C   UNL     1     -14.601  -3.510  12.740  0.00  0.00    +0.000 A 
ENDBRANCH   1  25
ENDBRANCH  19   1
ENDBRANCH  17  19
ENDBRANCH  12  14
ENDBRANCH   8  12
BRANCH   7  13
ATOM     13  C   UNL     1      -6.298  -9.975   5.757  0.00  0.00    +0.100 C 
BRANCH  13  15
ATOM      2  O   UNL     1      -4.540 -11.521   6.325  0.00  0.00    -0.275 OA
ATOM      5  N   UNL     1      -5.240  -9.920   7.896  0.00  0.00    -0.285 N 
ATOM     15  C   UNL     1      -5.249 -10.581   6.671  0.00  0.00    +0.217 C 
ATOM     32  H   UNL     1      -5.902  -9.159   8.030  0.00  0.00    +0.155 HD
BRANCH   5  18
ATOM     18  C   UNL     1      -4.410 -10.184   9.012  0.00  0.00    +0.033 A 
ATOM     20  C   UNL     1      -3.612  -9.169   9.542  0.00  0.00    +0.023 A 
ATOM     21  C   UNL     1      -4.391 -11.456   9.582  0.00  0.00    +0.023 A 
ATOM     22  C   UNL     1      -2.794  -9.428  10.642  0.00  0.00    +0.002 A 
ATOM     23  C   UNL     1      -3.573 -11.715  10.682  0.00  0.00    +0.002 A 
ATOM     24  C   UNL     1      -2.774 -10.701  11.212  0.00  0.00    +0.000 A 
ENDBRANCH   5  18
ENDBRANCH  13  15
ENDBRANCH   7  13
TORSDOF 8
ENDMDL
