MODEL 1
REMARK VINA RESULT:      -7.1      0.000      0.000
REMARK  Name = 38029425
REMARK  14 active torsions:
REMARK  status: ('A' for Active; 'I' for Inactive)
REMARK    1  A    between atoms: O_3  and  C_22
REMARK    2  A    between atoms: O_3  and  C_26
REMARK    3  A    between atoms: N_4  and  C_14
REMARK    4  A    between atoms: N_5  and  C_21
REMARK    5  A    between atoms: C_7  and  C_11
REMARK    6  A    between atoms: C_8  and  C_14
REMARK    7  A    between atoms: C_10  and  C_15
REMARK    8  A    between atoms: C_11  and  C_16
REMARK    9  A    between atoms: C_11  and  C_17
REMARK   10  A    between atoms: C_12  and  C_18
REMARK   11  A    between atoms: C_15  and  C_19
REMARK   12  A    between atoms: C_20  and  C_22
REMARK   13  A    between atoms: C_21  and  C_23
REMARK   14  A    between atoms: C_29  and  C_34
REMARK                            x       y       z     vdW  Elec       q    Type
REMARK                         _______ _______ _______ _____ _____    ______ ____
ROOT
ATOM      7  C   UNL     1      -5.566 -10.458  10.501  0.00  0.00    +0.000 C 
ATOM      8  C   UNL     1      -4.864  -9.576   9.438  0.00  0.00    +0.032 C 
ATOM      9  C   UNL     1      -5.110 -10.062  11.914  0.00  0.00    +0.012 C 
ATOM     10  C   UNL     1      -3.586 -10.199  12.094  0.00  0.00    +0.023 C 
ATOM     12  C   UNL     1      -2.824  -9.583  10.939  0.00  0.00    -0.073 C 
ATOM     13  C   UNL     1      -3.415  -9.299   9.764  0.00  0.00    -0.022 C 
ATOM     18  C   UNL     1      -1.376  -9.257  11.180  0.00  0.00    +0.039 C 
ENDROOT
BRANCH   7  11
ATOM     11  C   UNL     1      -7.091 -10.361  10.402  0.00  0.00    -0.013 C 
ATOM     16  C   UNL     1      -7.529  -8.901  10.333  0.00  0.00    +0.007 C 
ATOM     17  C   UNL     1      -7.747 -11.067  11.585  0.00  0.00    +0.007 C 
ENDBRANCH   7  11
BRANCH   8  14
ATOM     14  C   UNL     1      -4.962 -10.204   8.044  0.00  0.00    +0.112 C 
BRANCH  14   4
ATOM      2  O   UNL     1      -7.503 -10.680   6.745  0.00  0.00    -0.272 OA
ATOM      4  N   UNL     1      -5.648  -9.332   7.142  0.00  0.00    -0.312 N 
ATOM     20  C   UNL     1      -6.875  -9.641   6.558  0.00  0.00    +0.251 C 
ATOM     36  H   UNL     1      -5.245  -8.417   6.961  0.00  0.00    +0.149 HD
BRANCH  20  22
ATOM     22  C   UNL     1      -7.371  -8.538   5.647  0.00  0.00    +0.324 C 
BRANCH  22   3
ATOM      3  O   UNL     1      -8.765  -8.368   5.785  0.00  0.00    -0.483 OA
BRANCH   3  26
ATOM     26  C   UNL     1      -9.196  -7.401   6.663  0.00  0.00    +0.121 A 
ATOM     30  C   UNL     1     -10.560  -7.150   6.811  0.00  0.00    +0.045 A 
ATOM     31  C   UNL     1      -8.267  -6.669   7.404  0.00  0.00    +0.045 A 
ATOM     32  C   UNL     1     -10.996  -6.167   7.700  0.00  0.00    +0.004 A 
ATOM     33  C   UNL     1      -8.704  -5.688   8.294  0.00  0.00    +0.004 A 
ATOM     35  C   UNL     1     -10.068  -5.437   8.442  0.00  0.00    +0.000 A 
ENDBRANCH   3  26
ENDBRANCH  22   3
ENDBRANCH  20  22
ENDBRANCH  14   4
ENDBRANCH   8  14
BRANCH  10  15
ATOM     15  C   UNL     1      -3.185 -11.664  12.296  0.00  0.00    +0.103 C 
BRANCH  15  19
ATOM      1  O   UNL     1      -2.547 -13.084  14.148  0.00  0.00    -0.276 OA
ATOM      5  N   UNL     1      -2.819 -10.802  14.496  0.00  0.00    -0.311 N 
ATOM     19  C   UNL     1      -2.814 -11.960  13.732  0.00  0.00    +0.214 C 
ATOM     37  H   UNL     1      -2.981  -9.909  14.041  0.00  0.00    +0.149 HD
BRANCH   5  21
ATOM     21  C   UNL     1      -2.503 -10.786  15.905  0.00  0.00    +0.139 C 
BRANCH  21  23
ATOM     23  C   UNL     1      -3.737 -10.822  16.759  0.00  0.00    -0.030 A 
ATOM     24  C   UNL     1      -4.902 -10.187  16.329  0.00  0.00    +0.006 A 
ATOM     25  C   UNL     1      -3.719 -11.493  17.982  0.00  0.00    +0.006 A 
ATOM     27  C   UNL     1      -6.049 -10.222  17.122  0.00  0.00    +0.019 A 
ATOM     28  C   UNL     1      -4.866 -11.528  18.775  0.00  0.00    +0.019 A 
ATOM     29  C   UNL     1      -6.032 -10.892  18.346  0.00  0.00    +0.052 A 
BRANCH  29  34
ATOM      6  N   UNL     1      -8.159 -10.957  19.819  0.00  0.00    -0.191 NA
ATOM     34  C   UNL     1      -7.206 -10.927  19.158  0.00  0.00    +0.099 C 
ENDBRANCH  29  34
ENDBRANCH  21  23
ENDBRANCH   5  21
ENDBRANCH  15  19
ENDBRANCH  10  15
TORSDOF 11
ENDMDL
MODEL 2
REMARK VINA RESULT:      -7.0     26.827     29.975
REMARK  Name = 38029425
REMARK  14 active torsions:
REMARK  status: ('A' for Active; 'I' for Inactive)
REMARK    1  A    between atoms: O_3  and  C_22
REMARK    2  A    between atoms: O_3  and  C_26
REMARK    3  A    between atoms: N_4  and  C_14
REMARK    4  A    between atoms: N_5  and  C_21
REMARK    5  A    between atoms: C_7  and  C_11
REMARK    6  A    between atoms: C_8  and  C_14
REMARK    7  A    between atoms: C_10  and  C_15
REMARK    8  A    between atoms: C_11  and  C_16
REMARK    9  A    between atoms: C_11  and  C_17
REMARK   10  A    between atoms: C_12  and  C_18
REMARK   11  A    between atoms: C_15  and  C_19
REMARK   12  A    between atoms: C_20  and  C_22
REMARK   13  A    between atoms: C_21  and  C_23
REMARK   14  A    between atoms: C_29  and  C_34
REMARK                            x       y       z     vdW  Elec       q    Type
REMARK                         _______ _______ _______ _____ _____    ______ ____
ROOT
ATOM      7  C   UNL     1      12.510  11.860  23.655  0.00  0.00    +0.000 C 
ATOM      8  C   UNL     1      11.487  11.293  22.639  0.00  0.00    +0.032 C 
ATOM      9  C   UNL     1      13.247  13.068  23.058  0.00  0.00    +0.012 C 
ATOM     10  C   UNL     1      13.995  12.712  21.760  0.00  0.00    +0.023 C 
ATOM     12  C   UNL     1      13.127  11.911  20.810  0.00  0.00    -0.073 C 
ATOM     13  C   UNL     1      12.002  11.296  21.219  0.00  0.00    -0.022 C 
ATOM     18  C   UNL     1      13.556  11.874  19.370  0.00  0.00    +0.039 C 
ENDROOT
BRANCH   7  11
ATOM     11  C   UNL     1      11.839  12.261  24.973  0.00  0.00    -0.013 C 
ATOM     16  C   UNL     1      10.542  13.016  24.702  0.00  0.00    +0.007 C 
ATOM     17  C   UNL     1      12.789  13.102  25.819  0.00  0.00    +0.007 C 
ENDBRANCH   7  11
BRANCH   8  14
ATOM     14  C   UNL     1      11.054   9.874  23.022  0.00  0.00    +0.112 C 
BRANCH  14   4
ATOM      2  O   UNL     1      10.170   7.274  22.114  0.00  0.00    -0.272 OA
ATOM      4  N   UNL     1      11.823   8.900  22.311  0.00  0.00    -0.312 N 
ATOM     20  C   UNL     1      11.316   7.665  21.909  0.00  0.00    +0.251 C 
ATOM     36  H   UNL     1      12.770   9.144  22.037  0.00  0.00    +0.149 HD
BRANCH  20  22
ATOM     22  C   UNL     1      12.346   6.834  21.175  0.00  0.00    +0.324 C 
BRANCH  22   3
ATOM      3  O   UNL     1      11.917   6.559  19.858  0.00  0.00    -0.483 OA
BRANCH   3  26
ATOM     26  C   UNL     1      12.439   7.338  18.852  0.00  0.00    +0.121 A 
ATOM     30  C   UNL     1      11.727   8.442  18.385  0.00  0.00    +0.045 A 
ATOM     31  C   UNL     1      13.680   7.023  18.299  0.00  0.00    +0.045 A 
ATOM     32  C   UNL     1      12.256   9.232  17.363  0.00  0.00    +0.004 A 
ATOM     33  C   UNL     1      14.209   7.813  17.279  0.00  0.00    +0.004 A 
ATOM     35  C   UNL     1      13.497   8.917  16.810  0.00  0.00    +0.000 A 
ENDBRANCH   3  26
ENDBRANCH  22   3
ENDBRANCH  20  22
ENDBRANCH  14   4
ENDBRANCH   8  14
BRANCH  10  15
ATOM     15  C   UNL     1      15.302  11.972  22.063  0.00  0.00    +0.103 C 
BRANCH  15  19
ATOM      1  O   UNL     1      14.577   9.910  23.100  0.00  0.00    -0.276 OA
ATOM      5  N   UNL     1      15.592   9.845  21.011  0.00  0.00    -0.311 N 
ATOM     19  C   UNL     1      15.103  10.475  22.146  0.00  0.00    +0.214 C 
ATOM     37  H   UNL     1      15.943  10.409  20.242  0.00  0.00    +0.149 HD
BRANCH   5  21
ATOM     21  C   UNL     1      15.536   8.414  20.817  0.00  0.00    +0.139 C 
BRANCH  21  23
ATOM     23  C   UNL     1      16.905   7.800  20.769  0.00  0.00    -0.030 A 
ATOM     24  C   UNL     1      17.961   8.391  21.463  0.00  0.00    +0.006 A 
ATOM     25  C   UNL     1      17.121   6.635  20.032  0.00  0.00    +0.006 A 
ATOM     27  C   UNL     1      19.232   7.820  21.419  0.00  0.00    +0.019 A 
ATOM     28  C   UNL     1      18.393   6.063  19.988  0.00  0.00    +0.019 A 
ATOM     29  C   UNL     1      19.449   6.656  20.681  0.00  0.00    +0.052 A 
BRANCH  29  34
ATOM      6  N   UNL     1      21.809   5.594  20.599  0.00  0.00    -0.191 NA
ATOM     34  C   UNL     1      20.751   6.070  20.636  0.00  0.00    +0.099 C 
ENDBRANCH  29  34
ENDBRANCH  21  23
ENDBRANCH   5  21
ENDBRANCH  15  19
ENDBRANCH  10  15
TORSDOF 11
ENDMDL
MODEL 3
REMARK VINA RESULT:      -6.9      4.189      7.946
REMARK  Name = 38029425
REMARK  14 active torsions:
REMARK  status: ('A' for Active; 'I' for Inactive)
REMARK    1  A    between atoms: O_3  and  C_22
REMARK    2  A    between atoms: O_3  and  C_26
REMARK    3  A    between atoms: N_4  and  C_14
REMARK    4  A    between atoms: N_5  and  C_21
REMARK    5  A    between atoms: C_7  and  C_11
REMARK    6  A    between atoms: C_8  and  C_14
REMARK    7  A    between atoms: C_10  and  C_15
REMARK    8  A    between atoms: C_11  and  C_16
REMARK    9  A    between atoms: C_11  and  C_17
REMARK   10  A    between atoms: C_12  and  C_18
REMARK   11  A    between atoms: C_15  and  C_19
REMARK   12  A    between atoms: C_20  and  C_22
REMARK   13  A    between atoms: C_21  and  C_23
REMARK   14  A    between atoms: C_29  and  C_34
REMARK                            x       y       z     vdW  Elec       q    Type
REMARK                         _______ _______ _______ _____ _____    ______ ____
ROOT
ATOM      7  C   UNL     1      -5.534 -10.878  17.368  0.00  0.00    +0.000 C 
ATOM      8  C   UNL     1      -4.404 -11.608  16.600  0.00  0.00    +0.032 C 
ATOM      9  C   UNL     1      -6.871 -11.611  17.180  0.00  0.00    +0.012 C 
ATOM     10  C   UNL     1      -7.276 -11.715  15.698  0.00  0.00    +0.023 C 
ATOM     12  C   UNL     1      -6.124 -12.177  14.830  0.00  0.00    -0.073 C 
ATOM     13  C   UNL     1      -4.848 -12.135  15.256  0.00  0.00    -0.022 C 
ATOM     18  C   UNL     1      -6.475 -12.733  13.478  0.00  0.00    +0.039 C 
ENDROOT
BRANCH   7  11
ATOM     11  C   UNL     1      -5.217 -10.751  18.861  0.00  0.00    -0.013 C 
ATOM     16  C   UNL     1      -4.541 -12.019  19.372  0.00  0.00    +0.007 C 
ATOM     17  C   UNL     1      -6.489 -10.458  19.652  0.00  0.00    +0.007 C 
ENDBRANCH   7  11
BRANCH   8  14
ATOM     14  C   UNL     1      -3.183 -10.701  16.416  0.00  0.00    +0.112 C 
BRANCH  14   4
ATOM      2  O   UNL     1      -0.950 -11.536  14.779  0.00  0.00    -0.272 OA
ATOM      4  N   UNL     1      -2.971 -10.412  15.032  0.00  0.00    -0.312 N 
ATOM     20  C   UNL     1      -1.861 -10.856  14.315  0.00  0.00    +0.251 C 
ATOM     36  H   UNL     1      -3.695  -9.903  14.532  0.00  0.00    +0.149 HD
BRANCH  20  22
ATOM     22  C   UNL     1      -1.894 -10.406  12.870  0.00  0.00    +0.324 C 
BRANCH  22   3
ATOM      3  O   UNL     1      -3.003 -10.965  12.199  0.00  0.00    -0.483 OA
BRANCH   3  26
ATOM     26  C   UNL     1      -3.781 -10.110  11.454  0.00  0.00    +0.121 A 
ATOM     30  C   UNL     1      -5.018  -9.687  11.941  0.00  0.00    +0.045 A 
ATOM     31  C   UNL     1      -3.333  -9.666  10.210  0.00  0.00    +0.045 A 
ATOM     32  C   UNL     1      -5.807  -8.821  11.184  0.00  0.00    +0.004 A 
ATOM     33  C   UNL     1      -4.121  -8.799   9.453  0.00  0.00    +0.004 A 
ATOM     35  C   UNL     1      -5.359  -8.377   9.940  0.00  0.00    +0.000 A 
ENDBRANCH   3  26
ENDBRANCH  22   3
ENDBRANCH  20  22
ENDBRANCH  14   4
ENDBRANCH   8  14
BRANCH  10  15
ATOM     15  C   UNL     1      -7.849 -10.388  15.188  0.00  0.00    +0.103 C 
BRANCH  15  19
ATOM      1  O   UNL     1      -9.993 -10.601  16.288  0.00  0.00    -0.276 OA
ATOM      5  N   UNL     1      -8.816  -8.604  16.452  0.00  0.00    -0.311 N 
ATOM     19  C   UNL     1      -9.013  -9.910  16.028  0.00  0.00    +0.214 C 
ATOM     37  H   UNL     1      -7.935  -8.142  16.245  0.00  0.00    +0.149 HD
BRANCH   5  21
ATOM     21  C   UNL     1      -9.768  -7.889  17.270  0.00  0.00    +0.139 C 
BRANCH  21  23
ATOM     23  C   UNL     1     -10.895  -7.323  16.456  0.00  0.00    -0.030 A 
ATOM     24  C   UNL     1     -10.661  -6.261  15.582  0.00  0.00    +0.006 A 
ATOM     25  C   UNL     1     -12.178  -7.860  16.572  0.00  0.00    +0.006 A 
ATOM     27  C   UNL     1     -11.708  -5.735  14.826  0.00  0.00    +0.019 A 
ATOM     28  C   UNL     1     -13.225  -7.334  15.815  0.00  0.00    +0.019 A 
ATOM     29  C   UNL     1     -12.991  -6.271  14.942  0.00  0.00    +0.052 A 
BRANCH  29  34
ATOM      6  N   UNL     1     -14.935  -5.296  13.539  0.00  0.00    -0.191 NA
ATOM     34  C   UNL     1     -14.063  -5.733  14.167  0.00  0.00    +0.099 C 
ENDBRANCH  29  34
ENDBRANCH  21  23
ENDBRANCH   5  21
ENDBRANCH  15  19
ENDBRANCH  10  15
TORSDOF 11
ENDMDL
MODEL 4
REMARK VINA RESULT:      -6.8     28.452     32.603
REMARK  Name = 38029425
REMARK  14 active torsions:
REMARK  status: ('A' for Active; 'I' for Inactive)
REMARK    1  A    between atoms: O_3  and  C_22
REMARK    2  A    between atoms: O_3  and  C_26
REMARK    3  A    between atoms: N_4  and  C_14
REMARK    4  A    between atoms: N_5  and  C_21
REMARK    5  A    between atoms: C_7  and  C_11
REMARK    6  A    between atoms: C_8  and  C_14
REMARK    7  A    between atoms: C_10  and  C_15
REMARK    8  A    between atoms: C_11  and  C_16
REMARK    9  A    between atoms: C_11  and  C_17
REMARK   10  A    between atoms: C_12  and  C_18
REMARK   11  A    between atoms: C_15  and  C_19
REMARK   12  A    between atoms: C_20  and  C_22
REMARK   13  A    between atoms: C_21  and  C_23
REMARK   14  A    between atoms: C_29  and  C_34
REMARK                            x       y       z     vdW  Elec       q    Type
REMARK                         _______ _______ _______ _____ _____    ______ ____
ROOT
ATOM      7  C   UNL     1      21.074   6.507  22.222  0.00  0.00    +0.000 C 
ATOM      8  C   UNL     1      21.173   5.386  21.158  0.00  0.00    +0.032 C 
ATOM      9  C   UNL     1      19.633   6.633  22.738  0.00  0.00    +0.012 C 
ATOM     10  C   UNL     1      18.634   6.944  21.608  0.00  0.00    +0.023 C 
ATOM     12  C   UNL     1      18.847   6.047  20.405  0.00  0.00    -0.073 C 
ATOM     13  C   UNL     1      19.983   5.348  20.228  0.00  0.00    -0.022 C 
ATOM     18  C   UNL     1      17.705   5.936  19.433  0.00  0.00    +0.039 C 
ENDROOT
BRANCH   7  11
ATOM     11  C   UNL     1      22.026   6.261  23.397  0.00  0.00    -0.013 C 
ATOM     16  C   UNL     1      22.167   4.766  23.664  0.00  0.00    +0.007 C 
ATOM     17  C   UNL     1      21.533   6.990  24.643  0.00  0.00    +0.007 C 
ENDBRANCH   7  11
BRANCH   8  14
ATOM     14  C   UNL     1      22.460   5.514  20.335  0.00  0.00    +0.112 C 
BRANCH  14   4
ATOM      2  O   UNL     1      25.240   5.092  19.660  0.00  0.00    -0.272 OA
ATOM      4  N   UNL     1      23.156   4.267  20.287  0.00  0.00    -0.312 N 
ATOM     20  C   UNL     1      24.504   4.152  19.950  0.00  0.00    +0.251 C 
ATOM     36  H   UNL     1      22.656   3.427  20.566  0.00  0.00    +0.149 HD
BRANCH  20  22
ATOM     22  C   UNL     1      24.982   2.716  19.980  0.00  0.00    +0.324 C 
BRANCH  22   3
ATOM      3  O   UNL     1      24.022   1.884  20.595  0.00  0.00    -0.483 OA
BRANCH   3  26
ATOM     26  C   UNL     1      24.381   1.281  21.778  0.00  0.00    +0.121 A 
ATOM     30  C   UNL     1      23.659   1.544  22.942  0.00  0.00    +0.045 A 
ATOM     31  C   UNL     1      25.468   0.407  21.813  0.00  0.00    +0.045 A 
ATOM     32  C   UNL     1      24.024   0.933  24.142  0.00  0.00    +0.004 A 
ATOM     33  C   UNL     1      25.832  -0.204  23.013  0.00  0.00    +0.004 A 
ATOM     35  C   UNL     1      25.111   0.059  24.177  0.00  0.00    +0.000 A 
ENDBRANCH   3  26
ENDBRANCH  22   3
ENDBRANCH  20  22
ENDBRANCH  14   4
ENDBRANCH   8  14
BRANCH  10  15
ATOM     15  C   UNL     1      18.697   8.421  21.207  0.00  0.00    +0.103 C 
BRANCH  15  19
ATOM      1  O   UNL     1      17.272  10.364  21.429  0.00  0.00    -0.276 OA
ATOM      5  N   UNL     1      16.398   8.251  21.839  0.00  0.00    -0.311 N 
ATOM     19  C   UNL     1      17.401   9.145  21.495  0.00  0.00    +0.214 C 
ATOM     37  H   UNL     1      16.585   7.254  21.793  0.00  0.00    +0.149 HD
BRANCH   5  21
ATOM     21  C   UNL     1      15.052   8.662  22.167  0.00  0.00    +0.139 C 
BRANCH  21  23
ATOM     23  C   UNL     1      14.130   8.559  20.987  0.00  0.00    -0.030 A 
ATOM     24  C   UNL     1      14.361   7.599  20.002  0.00  0.00    +0.006 A 
ATOM     25  C   UNL     1      13.039   9.423  20.876  0.00  0.00    +0.006 A 
ATOM     27  C   UNL     1      13.503   7.503  18.906  0.00  0.00    +0.019 A 
ATOM     28  C   UNL     1      12.182   9.327  19.781  0.00  0.00    +0.019 A 
ATOM     29  C   UNL     1      12.413   8.367  18.795  0.00  0.00    +0.052 A 
BRANCH  29  34
ATOM      6  N   UNL     1      10.821   8.189  16.761  0.00  0.00    -0.191 NA
ATOM     34  C   UNL     1      11.535   8.269  17.673  0.00  0.00    +0.099 C 
ENDBRANCH  29  34
ENDBRANCH  21  23
ENDBRANCH   5  21
ENDBRANCH  15  19
ENDBRANCH  10  15
TORSDOF 11
ENDMDL
MODEL 5
REMARK VINA RESULT:      -6.8      3.910      9.514
REMARK  Name = 38029425
REMARK  14 active torsions:
REMARK  status: ('A' for Active; 'I' for Inactive)
REMARK    1  A    between atoms: O_3  and  C_22
REMARK    2  A    between atoms: O_3  and  C_26
REMARK    3  A    between atoms: N_4  and  C_14
REMARK    4  A    between atoms: N_5  and  C_21
REMARK    5  A    between atoms: C_7  and  C_11
REMARK    6  A    between atoms: C_8  and  C_14
REMARK    7  A    between atoms: C_10  and  C_15
REMARK    8  A    between atoms: C_11  and  C_16
REMARK    9  A    between atoms: C_11  and  C_17
REMARK   10  A    between atoms: C_12  and  C_18
REMARK   11  A    between atoms: C_15  and  C_19
REMARK   12  A    between atoms: C_20  and  C_22
REMARK   13  A    between atoms: C_21  and  C_23
REMARK   14  A    between atoms: C_29  and  C_34
REMARK                            x       y       z     vdW  Elec       q    Type
REMARK                         _______ _______ _______ _____ _____    ______ ____
ROOT
ATOM      7  C   UNL     1      -6.196 -10.303  15.359  0.00  0.00    +0.000 C 
ATOM      8  C   UNL     1      -6.983 -10.453  16.684  0.00  0.00    +0.032 C 
ATOM      9  C   UNL     1      -5.194 -11.456  15.196  0.00  0.00    +0.012 C 
ATOM     10  C   UNL     1      -4.186 -11.522  16.358  0.00  0.00    +0.023 C 
ATOM     12  C   UNL     1      -4.870 -11.405  17.705  0.00  0.00    -0.073 C 
ATOM     13  C   UNL     1      -6.126 -10.938  17.830  0.00  0.00    -0.022 C 
ATOM     18  C   UNL     1      -4.095 -11.881  18.902  0.00  0.00    +0.039 C 
ENDROOT
BRANCH   7  11
ATOM     11  C   UNL     1      -7.129 -10.251  14.146  0.00  0.00    -0.013 C 
ATOM     16  C   UNL     1      -8.016 -11.491  14.102  0.00  0.00    +0.007 C 
ATOM     17  C   UNL     1      -6.321 -10.117  12.858  0.00  0.00    +0.007 C 
ENDBRANCH   7  11
BRANCH   8  14
ATOM     14  C   UNL     1      -7.664  -9.137  17.077  0.00  0.00    +0.112 C 
BRANCH  14   4
ATOM      2  O   UNL     1     -10.432  -9.862  16.655  0.00  0.00    -0.272 OA
ATOM      4  N   UNL     1      -8.660  -9.361  18.078  0.00  0.00    -0.312 N 
ATOM     20  C   UNL     1      -9.977  -9.709  17.786  0.00  0.00    +0.251 C 
ATOM     36  H   UNL     1      -8.377  -9.317  19.053  0.00  0.00    +0.149 HD
BRANCH  20  22
ATOM     22  C   UNL     1     -10.814  -9.885  19.036  0.00  0.00    +0.324 C 
BRANCH  22   3
ATOM      3  O   UNL     1     -10.053 -10.482  20.064  0.00  0.00    -0.483 OA
BRANCH   3  26
ATOM     26  C   UNL     1     -10.074 -11.856  20.141  0.00  0.00    +0.121 A 
ATOM     30  C   UNL     1     -11.243 -12.515  20.518  0.00  0.00    +0.045 A 
ATOM     31  C   UNL     1      -8.924 -12.588  19.844  0.00  0.00    +0.045 A 
ATOM     32  C   UNL     1     -11.264 -13.908  20.598  0.00  0.00    +0.004 A 
ATOM     33  C   UNL     1      -8.946 -13.980  19.924  0.00  0.00    +0.004 A 
ATOM     35  C   UNL     1     -10.115 -14.641  20.300  0.00  0.00    +0.000 A 
ENDBRANCH   3  26
ENDBRANCH  22   3
ENDBRANCH  20  22
ENDBRANCH  14   4
ENDBRANCH   8  14
BRANCH  10  15
ATOM     15  C   UNL     1      -3.096 -10.456  16.203  0.00  0.00    +0.103 C 
BRANCH  15  19
ATOM      1  O   UNL     1      -1.097 -11.483  15.305  0.00  0.00    -0.276 OA
ATOM      5  N   UNL     1      -2.493 -10.271  13.897  0.00  0.00    -0.311 N 
ATOM     19  C   UNL     1      -2.106 -10.809  15.116  0.00  0.00    +0.214 C 
ATOM     37  H   UNL     1      -3.385  -9.789  13.829  0.00  0.00    +0.149 HD
BRANCH   5  21
ATOM     21  C   UNL     1      -1.735 -10.446  12.680  0.00  0.00    +0.139 C 
BRANCH  21  23
ATOM     23  C   UNL     1      -2.608 -10.387  11.461  0.00  0.00    -0.030 A 
ATOM     24  C   UNL     1      -2.745  -9.189  10.758  0.00  0.00    +0.006 A 
ATOM     25  C   UNL     1      -3.280 -11.530  11.027  0.00  0.00    +0.006 A 
ATOM     27  C   UNL     1      -3.556  -9.134   9.624  0.00  0.00    +0.019 A 
ATOM     28  C   UNL     1      -4.091 -11.475   9.894  0.00  0.00    +0.019 A 
ATOM     29  C   UNL     1      -4.229 -10.277   9.191  0.00  0.00    +0.052 A 
BRANCH  29  34
ATOM      6  N   UNL     1      -5.733 -10.175   7.087  0.00  0.00    -0.191 NA
ATOM     34  C   UNL     1      -5.059 -10.221   8.031  0.00  0.00    +0.099 C 
ENDBRANCH  29  34
ENDBRANCH  21  23
ENDBRANCH   5  21
ENDBRANCH  15  19
ENDBRANCH  10  15
TORSDOF 11
ENDMDL
MODEL 6
REMARK VINA RESULT:      -6.8      3.837      7.577
REMARK  Name = 38029425
REMARK  14 active torsions:
REMARK  status: ('A' for Active; 'I' for Inactive)
REMARK    1  A    between atoms: O_3  and  C_22
REMARK    2  A    between atoms: O_3  and  C_26
REMARK    3  A    between atoms: N_4  and  C_14
REMARK    4  A    between atoms: N_5  and  C_21
REMARK    5  A    between atoms: C_7  and  C_11
REMARK    6  A    between atoms: C_8  and  C_14
REMARK    7  A    between atoms: C_10  and  C_15
REMARK    8  A    between atoms: C_11  and  C_16
REMARK    9  A    between atoms: C_11  and  C_17
REMARK   10  A    between atoms: C_12  and  C_18
REMARK   11  A    between atoms: C_15  and  C_19
REMARK   12  A    between atoms: C_20  and  C_22
REMARK   13  A    between atoms: C_21  and  C_23
REMARK   14  A    between atoms: C_29  and  C_34
REMARK                            x       y       z     vdW  Elec       q    Type
REMARK                         _______ _______ _______ _____ _____    ______ ____
ROOT
ATOM      7  C   UNL     1      -4.026 -12.744  12.933  0.00  0.00    +0.000 C 
ATOM      8  C   UNL     1      -2.531 -12.659  12.539  0.00  0.00    +0.032 C 
ATOM      9  C   UNL     1      -4.913 -12.225  11.790  0.00  0.00    +0.012 C 
ATOM     10  C   UNL     1      -4.589 -10.766  11.417  0.00  0.00    +0.023 C 
ATOM     12  C   UNL     1      -3.098 -10.539  11.274  0.00  0.00    -0.073 C 
ATOM     13  C   UNL     1      -2.193 -11.403  11.769  0.00  0.00    -0.022 C 
ATOM     18  C   UNL     1      -2.670  -9.319  10.506  0.00  0.00    +0.039 C 
ENDROOT
BRANCH   7  11
ATOM     11  C   UNL     1      -4.437 -14.174  13.299  0.00  0.00    -0.013 C 
ATOM     16  C   UNL     1      -4.063 -15.139  12.179  0.00  0.00    +0.007 C 
ATOM     17  C   UNL     1      -5.932 -14.239  13.593  0.00  0.00    +0.007 C 
ENDBRANCH   7  11
BRANCH   8  14
ATOM     14  C   UNL     1      -1.626 -12.760  13.772  0.00  0.00    +0.112 C 
BRANCH  14   4
ATOM      2  O   UNL     1      -1.354 -10.100  14.873  0.00  0.00    -0.272 OA
ATOM      4  N   UNL     1      -2.283 -12.233  14.927  0.00  0.00    -0.312 N 
ATOM     20  C   UNL     1      -2.094 -10.932  15.391  0.00  0.00    +0.251 C 
ATOM     36  H   UNL     1      -2.965 -12.819  15.400  0.00  0.00    +0.149 HD
BRANCH  20  22
ATOM     22  C   UNL     1      -2.914 -10.641  16.630  0.00  0.00    +0.324 C 
BRANCH  22   3
ATOM      3  O   UNL     1      -4.287 -10.563  16.310  0.00  0.00    -0.483 OA
BRANCH   3  26
ATOM     26  C   UNL     1      -5.165 -11.197  17.158  0.00  0.00    +0.121 A 
ATOM     30  C   UNL     1      -5.147 -10.910  18.523  0.00  0.00    +0.045 A 
ATOM     31  C   UNL     1      -6.072 -12.128  16.653  0.00  0.00    +0.045 A 
ATOM     32  C   UNL     1      -6.036 -11.554  19.384  0.00  0.00    +0.004 A 
ATOM     33  C   UNL     1      -6.962 -12.772  17.514  0.00  0.00    +0.004 A 
ATOM     35  C   UNL     1      -6.944 -12.485  18.879  0.00  0.00    +0.000 A 
ENDBRANCH   3  26
ENDBRANCH  22   3
ENDBRANCH  20  22
ENDBRANCH  14   4
ENDBRANCH   8  14
BRANCH  10  15
ATOM     15  C   UNL     1      -5.197  -9.791  12.430  0.00  0.00    +0.103 C 
BRANCH  15  19
ATOM      1  O   UNL     1      -7.342  -9.812  11.311  0.00  0.00    -0.276 OA
ATOM      5  N   UNL     1      -7.263  -9.683  13.629  0.00  0.00    -0.311 N 
ATOM     19  C   UNL     1      -6.708  -9.765  12.361  0.00  0.00    +0.214 C 
ATOM     37  H   UNL     1      -6.653  -9.724  14.441  0.00  0.00    +0.149 HD
BRANCH   5  21
ATOM     21  C   UNL     1      -8.687  -9.641  13.866  0.00  0.00    +0.139 C 
BRANCH  21  23
ATOM     23  C   UNL     1      -9.023  -9.858  15.313  0.00  0.00    -0.030 A 
ATOM     24  C   UNL     1      -8.324  -9.168  16.303  0.00  0.00    +0.006 A 
ATOM     25  C   UNL     1     -10.036 -10.750  15.667  0.00  0.00    +0.006 A 
ATOM     27  C   UNL     1      -8.637  -9.370  17.648  0.00  0.00    +0.019 A 
ATOM     28  C   UNL     1     -10.349 -10.952  17.011  0.00  0.00    +0.019 A 
ATOM     29  C   UNL     1      -9.650 -10.262  18.002  0.00  0.00    +0.052 A 
BRANCH  29  34
ATOM      6  N   UNL     1     -10.231 -10.637  20.497  0.00  0.00    -0.191 NA
ATOM     34  C   UNL     1      -9.970 -10.469  19.378  0.00  0.00    +0.099 C 
ENDBRANCH  29  34
ENDBRANCH  21  23
ENDBRANCH   5  21
ENDBRANCH  15  19
ENDBRANCH  10  15
TORSDOF 11
ENDMDL
MODEL 7
REMARK VINA RESULT:      -6.6      4.360      8.440
REMARK  Name = 38029425
REMARK  14 active torsions:
REMARK  status: ('A' for Active; 'I' for Inactive)
REMARK    1  A    between atoms: O_3  and  C_22
REMARK    2  A    between atoms: O_3  and  C_26
REMARK    3  A    between atoms: N_4  and  C_14
REMARK    4  A    between atoms: N_5  and  C_21
REMARK    5  A    between atoms: C_7  and  C_11
REMARK    6  A    between atoms: C_8  and  C_14
REMARK    7  A    between atoms: C_10  and  C_15
REMARK    8  A    between atoms: C_11  and  C_16
REMARK    9  A    between atoms: C_11  and  C_17
REMARK   10  A    between atoms: C_12  and  C_18
REMARK   11  A    between atoms: C_15  and  C_19
REMARK   12  A    between atoms: C_20  and  C_22
REMARK   13  A    between atoms: C_21  and  C_23
REMARK   14  A    between atoms: C_29  and  C_34
REMARK                            x       y       z     vdW  Elec       q    Type
REMARK                         _______ _______ _______ _____ _____    ______ ____
ROOT
ATOM      7  C   UNL     1      -6.286 -11.394  15.794  0.00  0.00    +0.000 C 
ATOM      8  C   UNL     1      -4.898 -11.469  16.478  0.00  0.00    +0.032 C 
ATOM      9  C   UNL     1      -7.091 -10.206  16.342  0.00  0.00    +0.012 C 
ATOM     10  C   UNL     1      -7.301 -10.296  17.865  0.00  0.00    +0.023 C 
ATOM     12  C   UNL     1      -6.016 -10.637  18.592  0.00  0.00    -0.073 C 
ATOM     13  C   UNL     1      -4.948 -11.147  17.953  0.00  0.00    -0.022 C 
ATOM     18  C   UNL     1      -5.970 -10.333  20.064  0.00  0.00    +0.039 C 
ENDROOT
BRANCH   7  11
ATOM     11  C   UNL     1      -6.164 -11.280  14.272  0.00  0.00    -0.013 C 
ATOM     16  C   UNL     1      -5.394 -10.019  13.892  0.00  0.00    +0.007 C 
ATOM     17  C   UNL     1      -7.546 -11.285  13.625  0.00  0.00    +0.007 C 
ENDBRANCH   7  11
BRANCH   8  14
ATOM     14  C   UNL     1      -4.255 -12.846  16.277  0.00  0.00    +0.112 C 
BRANCH  14   4
ATOM      2  O   UNL     1      -2.040 -11.026  15.889  0.00  0.00    -0.272 OA
ATOM      4  N   UNL     1      -3.339 -12.822  15.180  0.00  0.00    -0.312 N 
ATOM     20  C   UNL     1      -2.294 -11.906  15.071  0.00  0.00    +0.251 C 
ATOM     36  H   UNL     1      -3.421 -13.546  14.471  0.00  0.00    +0.149 HD
BRANCH  20  22
ATOM     22  C   UNL     1      -1.481 -12.111  13.811  0.00  0.00    +0.324 C 
BRANCH  22   3
ATOM      3  O   UNL     1      -2.322 -12.425  12.721  0.00  0.00    -0.483 OA
BRANCH   3  26
ATOM     26  C   UNL     1      -2.613 -11.409  11.841  0.00  0.00    +0.121 A 
ATOM     30  C   UNL     1      -1.849 -10.242  11.847  0.00  0.00    +0.045 A 
ATOM     31  C   UNL     1      -3.673 -11.545  10.945  0.00  0.00    +0.045 A 
ATOM     32  C   UNL     1      -2.146  -9.209  10.955  0.00  0.00    +0.004 A 
ATOM     33  C   UNL     1      -3.969 -10.513  10.054  0.00  0.00    +0.004 A 
ATOM     35  C   UNL     1      -3.206  -9.346  10.058  0.00  0.00    +0.000 A 
ENDBRANCH   3  26
ENDBRANCH  22   3
ENDBRANCH  20  22
ENDBRANCH  14   4
ENDBRANCH   8  14
BRANCH  10  15
ATOM     15  C   UNL     1      -8.408 -11.299  18.210  0.00  0.00    +0.103 C 
BRANCH  15  19
ATOM      1  O   UNL     1      -9.977 -10.690  19.947  0.00  0.00    -0.276 OA
ATOM      5  N   UNL     1     -10.313  -9.920  17.781  0.00  0.00    -0.311 N 
ATOM     19  C   UNL     1      -9.637 -10.620  18.770  0.00  0.00    +0.214 C 
ATOM     37  H   UNL     1      -9.909  -9.862  16.850  0.00  0.00    +0.149 HD
BRANCH   5  21
ATOM     21  C   UNL     1     -11.525  -9.175  18.029  0.00  0.00    +0.139 C 
BRANCH  21  23
ATOM     23  C   UNL     1     -11.753  -8.111  16.995  0.00  0.00    -0.030 A 
ATOM     24  C   UNL     1     -12.969  -8.049  16.314  0.00  0.00    +0.006 A 
ATOM     25  C   UNL     1     -10.750  -7.183  16.716  0.00  0.00    +0.006 A 
ATOM     27  C   UNL     1     -13.182  -7.060  15.354  0.00  0.00    +0.019 A 
ATOM     28  C   UNL     1     -10.962  -6.194  15.755  0.00  0.00    +0.019 A 
ATOM     29  C   UNL     1     -12.178  -6.132  15.074  0.00  0.00    +0.052 A 
BRANCH  29  34
ATOM      6  N   UNL     1     -12.572  -4.297  13.291  0.00  0.00    -0.191 NA
ATOM     34  C   UNL     1     -12.395  -5.120  14.090  0.00  0.00    +0.099 C 
ENDBRANCH  29  34
ENDBRANCH  21  23
ENDBRANCH   5  21
ENDBRANCH  15  19
ENDBRANCH  10  15
TORSDOF 11
ENDMDL
MODEL 8
REMARK VINA RESULT:      -6.5     22.534     26.094
REMARK  Name = 38029425
REMARK  14 active torsions:
REMARK  status: ('A' for Active; 'I' for Inactive)
REMARK    1  A    between atoms: O_3  and  C_22
REMARK    2  A    between atoms: O_3  and  C_26
REMARK    3  A    between atoms: N_4  and  C_14
REMARK    4  A    between atoms: N_5  and  C_21
REMARK    5  A    between atoms: C_7  and  C_11
REMARK    6  A    between atoms: C_8  and  C_14
REMARK    7  A    between atoms: C_10  and  C_15
REMARK    8  A    between atoms: C_11  and  C_16
REMARK    9  A    between atoms: C_11  and  C_17
REMARK   10  A    between atoms: C_12  and  C_18
REMARK   11  A    between atoms: C_15  and  C_19
REMARK   12  A    between atoms: C_20  and  C_22
REMARK   13  A    between atoms: C_21  and  C_23
REMARK   14  A    between atoms: C_29  and  C_34
REMARK                            x       y       z     vdW  Elec       q    Type
REMARK                         _______ _______ _______ _____ _____    ______ ____
ROOT
ATOM      7  C   UNL     1      10.716   6.538   7.020  0.00  0.00    +0.000 C 
ATOM      8  C   UNL     1       9.825   7.594   7.721  0.00  0.00    +0.032 C 
ATOM      9  C   UNL     1      12.201   6.825   7.288  0.00  0.00    +0.012 C 
ATOM     10  C   UNL     1      12.623   8.222   6.798  0.00  0.00    +0.023 C 
ATOM     12  C   UNL     1      11.639   9.292   7.228  0.00  0.00    -0.073 C 
ATOM     13  C   UNL     1      10.398   8.990   7.651  0.00  0.00    -0.022 C 
ATOM     18  C   UNL     1      12.130  10.712   7.205  0.00  0.00    +0.039 C 
ENDROOT
BRANCH   7  11
ATOM     11  C   UNL     1      10.372   5.115   7.471  0.00  0.00    -0.013 C 
ATOM     16  C   UNL     1       9.608   4.379   6.375  0.00  0.00    +0.007 C 
ATOM     17  C   UNL     1       9.566   5.147   8.765  0.00  0.00    +0.007 C 
ENDBRANCH   7  11
BRANCH   8  14
ATOM     14  C   UNL     1       8.406   7.594   7.143  0.00  0.00    +0.112 C 
BRANCH  14   4
ATOM      2  O   UNL     1       7.978   9.667   5.171  0.00  0.00    -0.272 OA
ATOM      4  N   UNL     1       8.438   7.453   5.721  0.00  0.00    -0.312 N 
ATOM     20  C   UNL     1       8.220   8.509   4.838  0.00  0.00    +0.251 C 
ATOM     36  H   UNL     1       8.688   6.546   5.335  0.00  0.00    +0.149 HD
BRANCH  20  22
ATOM     22  C   UNL     1       8.315   8.076   3.391  0.00  0.00    +0.324 C 
BRANCH  22   3
ATOM      3  O   UNL     1       9.664   7.911   3.008  0.00  0.00    -0.483 OA
BRANCH   3  26
ATOM     26  C   UNL     1      10.035   6.672   2.539  0.00  0.00    +0.121 A 
ATOM     30  C   UNL     1      10.681   5.771   3.385  0.00  0.00    +0.045 A 
ATOM     31  C   UNL     1       9.766   6.318   1.217  0.00  0.00    +0.045 A 
ATOM     32  C   UNL     1      11.059   4.515   2.908  0.00  0.00    +0.004 A 
ATOM     33  C   UNL     1      10.143   5.062   0.741  0.00  0.00    +0.004 A 
ATOM     35  C   UNL     1      10.789   4.161   1.586  0.00  0.00    +0.000 A 
ENDBRANCH   3  26
ENDBRANCH  22   3
ENDBRANCH  20  22
ENDBRANCH  14   4
ENDBRANCH   8  14
BRANCH  10  15
ATOM     15  C   UNL     1      12.820   8.237   5.279  0.00  0.00    +0.103 C 
BRANCH  15  19
ATOM      1  O   UNL     1      15.103   7.484   5.548  0.00  0.00    -0.276 OA
ATOM      5  N   UNL     1      13.938   6.936   3.614  0.00  0.00    -0.311 N 
ATOM     19  C   UNL     1      14.087   7.525   4.861  0.00  0.00    +0.214 C 
ATOM     37  H   UNL     1      13.031   6.964   3.157  0.00  0.00    +0.149 HD
BRANCH   5  21
ATOM     21  C   UNL     1      14.989   6.188   2.964  0.00  0.00    +0.139 C 
BRANCH  21  23
ATOM     23  C   UNL     1      14.518   5.544   1.693  0.00  0.00    -0.030 A 
ATOM     24  C   UNL     1      14.641   4.165   1.522  0.00  0.00    +0.006 A 
ATOM     25  C   UNL     1      13.954   6.324   0.682  0.00  0.00    +0.006 A 
ATOM     27  C   UNL     1      14.202   3.566   0.341  0.00  0.00    +0.019 A 
ATOM     28  C   UNL     1      13.516   5.725  -0.499  0.00  0.00    +0.019 A 
ATOM     29  C   UNL     1      13.640   4.346  -0.670  0.00  0.00    +0.052 A 
BRANCH  29  34
ATOM      6  N   UNL     1      12.826   3.236  -2.863  0.00  0.00    -0.191 NA
ATOM     34  C   UNL     1      13.191   3.733  -1.879  0.00  0.00    +0.099 C 
ENDBRANCH  29  34
ENDBRANCH  21  23
ENDBRANCH   5  21
ENDBRANCH  15  19
ENDBRANCH  10  15
TORSDOF 11
ENDMDL
MODEL 9
REMARK VINA RESULT:      -6.5     22.988     26.699
REMARK  Name = 38029425
REMARK  14 active torsions:
REMARK  status: ('A' for Active; 'I' for Inactive)
REMARK    1  A    between atoms: O_3  and  C_22
REMARK    2  A    between atoms: O_3  and  C_26
REMARK    3  A    between atoms: N_4  and  C_14
REMARK    4  A    between atoms: N_5  and  C_21
REMARK    5  A    between atoms: C_7  and  C_11
REMARK    6  A    between atoms: C_8  and  C_14
REMARK    7  A    between atoms: C_10  and  C_15
REMARK    8  A    between atoms: C_11  and  C_16
REMARK    9  A    between atoms: C_11  and  C_17
REMARK   10  A    between atoms: C_12  and  C_18
REMARK   11  A    between atoms: C_15  and  C_19
REMARK   12  A    between atoms: C_20  and  C_22
REMARK   13  A    between atoms: C_21  and  C_23
REMARK   14  A    between atoms: C_29  and  C_34
REMARK                            x       y       z     vdW  Elec       q    Type
REMARK                         _______ _______ _______ _____ _____    ______ ____
ROOT
ATOM      7  C   UNL     1       8.991   8.471   5.876  0.00  0.00    +0.000 C 
ATOM      8  C   UNL     1       8.925   8.461   7.424  0.00  0.00    +0.032 C 
ATOM      9  C   UNL     1       8.439   7.156   5.306  0.00  0.00    +0.012 C 
ATOM     10  C   UNL     1       9.213   5.927   5.820  0.00  0.00    +0.023 C 
ATOM     12  C   UNL     1       9.423   5.980   7.319  0.00  0.00    -0.073 C 
ATOM     13  C   UNL     1       9.276   7.118   8.021  0.00  0.00    -0.022 C 
ATOM     18  C   UNL     1       9.761   4.683   8.001  0.00  0.00    +0.039 C 
ENDROOT
BRANCH   7  11
ATOM     11  C   UNL     1       8.223   9.656   5.283  0.00  0.00    -0.013 C 
ATOM     16  C   UNL     1       7.257   9.179   4.203  0.00  0.00    +0.007 C 
ATOM     17  C   UNL     1       9.193  10.691   4.721  0.00  0.00    +0.007 C 
ENDBRANCH   7  11
BRANCH   8  14
ATOM     14  C   UNL     1       9.832   9.540   8.025  0.00  0.00    +0.112 C 
BRANCH  14   4
ATOM      2  O   UNL     1      11.684  11.495   6.968  0.00  0.00    -0.272 OA
ATOM      4  N   UNL     1      11.194   9.324   7.649  0.00  0.00    -0.312 N 
ATOM     20  C   UNL     1      12.021  10.327   7.146  0.00  0.00    +0.251 C 
ATOM     36  H   UNL     1      11.595   8.404   7.810  0.00  0.00    +0.149 HD
BRANCH  20  22
ATOM     22  C   UNL     1      13.413   9.819   6.833  0.00  0.00    +0.324 C 
BRANCH  22   3
ATOM      3  O   UNL     1      13.782  10.160   5.514  0.00  0.00    -0.483 OA
BRANCH   3  26
ATOM     26  C   UNL     1      13.750   9.155   4.575  0.00  0.00    +0.121 A 
ATOM     30  C   UNL     1      12.611   8.968   3.793  0.00  0.00    +0.045 A 
ATOM     31  C   UNL     1      14.856   8.322   4.407  0.00  0.00    +0.045 A 
ATOM     32  C   UNL     1      12.577   7.947   2.842  0.00  0.00    +0.004 A 
ATOM     33  C   UNL     1      14.823   7.303   3.456  0.00  0.00    +0.004 A 
ATOM     35  C   UNL     1      13.684   7.115   2.673  0.00  0.00    +0.000 A 
ENDBRANCH   3  26
ENDBRANCH  22   3
ENDBRANCH  20  22
ENDBRANCH  14   4
ENDBRANCH   8  14
BRANCH  10  15
ATOM     15  C   UNL     1      10.548   5.771   5.084  0.00  0.00    +0.103 C 
BRANCH  15  19
ATOM      1  O   UNL     1      10.196   3.408   4.703  0.00  0.00    -0.276 OA
ATOM      5  N   UNL     1      11.201   4.696   3.051  0.00  0.00    -0.311 N 
ATOM     19  C   UNL     1      10.613   4.485   4.289  0.00  0.00    +0.214 C 
ATOM     37  H   UNL     1      11.446   5.641   2.772  0.00  0.00    +0.149 HD
BRANCH   5  21
ATOM     21  C   UNL     1      11.395   3.643   2.081  0.00  0.00    +0.139 C 
BRANCH  21  23
ATOM     23  C   UNL     1      12.661   3.827   1.296  0.00  0.00    -0.030 A 
ATOM     24  C   UNL     1      13.886   3.454   1.850  0.00  0.00    +0.006 A 
ATOM     25  C   UNL     1      12.613   4.371   0.012  0.00  0.00    +0.006 A 
ATOM     27  C   UNL     1      15.063   3.625   1.121  0.00  0.00    +0.019 A 
ATOM     28  C   UNL     1      13.790   4.541  -0.717  0.00  0.00    +0.019 A 
ATOM     29  C   UNL     1      15.016   4.168  -0.163  0.00  0.00    +0.052 A 
BRANCH  29  34
ATOM      6  N   UNL     1      17.199   4.486  -1.517  0.00  0.00    -0.191 NA
ATOM     34  C   UNL     1      16.220   4.344  -0.910  0.00  0.00    +0.099 C 
ENDBRANCH  29  34
ENDBRANCH  21  23
ENDBRANCH   5  21
ENDBRANCH  15  19
ENDBRANCH  10  15
TORSDOF 11
ENDMDL
MODEL 10
REMARK VINA RESULT:      -6.4     27.802     31.045
REMARK  Name = 38029425
REMARK  14 active torsions:
REMARK  status: ('A' for Active; 'I' for Inactive)
REMARK    1  A    between atoms: O_3  and  C_22
REMARK    2  A    between atoms: O_3  and  C_26
REMARK    3  A    between atoms: N_4  and  C_14
REMARK    4  A    between atoms: N_5  and  C_21
REMARK    5  A    between atoms: C_7  and  C_11
REMARK    6  A    between atoms: C_8  and  C_14
REMARK    7  A    between atoms: C_10  and  C_15
REMARK    8  A    between atoms: C_11  and  C_16
REMARK    9  A    between atoms: C_11  and  C_17
REMARK   10  A    between atoms: C_12  and  C_18
REMARK   11  A    between atoms: C_15  and  C_19
REMARK   12  A    between atoms: C_20  and  C_22
REMARK   13  A    between atoms: C_21  and  C_23
REMARK   14  A    between atoms: C_29  and  C_34
REMARK                            x       y       z     vdW  Elec       q    Type
REMARK                         _______ _______ _______ _____ _____    ______ ____
ROOT
ATOM      7  C   UNL     1      17.359   8.460  21.645  0.00  0.00    +0.000 C 
ATOM      8  C   UNL     1      16.426   7.460  20.918  0.00  0.00    +0.032 C 
ATOM      9  C   UNL     1      18.708   8.562  20.917  0.00  0.00    +0.012 C 
ATOM     10  C   UNL     1      19.426   7.202  20.826  0.00  0.00    +0.023 C 
ATOM     12  C   UNL     1      18.491   6.101  20.368  0.00  0.00    -0.073 C 
ATOM     13  C   UNL     1      17.154   6.240  20.404  0.00  0.00    -0.022 C 
ATOM     18  C   UNL     1      19.130   4.854  19.825  0.00  0.00    +0.039 C 
ENDROOT
BRANCH   7  11
ATOM     11  C   UNL     1      16.725   9.850  21.759  0.00  0.00    -0.013 C 
ATOM     16  C   UNL     1      16.011  10.217  20.462  0.00  0.00    +0.007 C 
ATOM     17  C   UNL     1      17.784  10.891  22.107  0.00  0.00    +0.007 C 
ENDBRANCH   7  11
BRANCH   8  14
ATOM     14  C   UNL     1      15.271   7.022  21.825  0.00  0.00    +0.112 C 
BRANCH  14   4
ATOM      2  O   UNL     1      12.980   8.787  21.874  0.00  0.00    -0.272 OA
ATOM      4  N   UNL     1      14.061   6.888  21.075  0.00  0.00    -0.312 N 
ATOM     20  C   UNL     1      13.001   7.789  21.159  0.00  0.00    +0.251 C 
ATOM     36  H   UNL     1      13.994   6.126  20.405  0.00  0.00    +0.149 HD
BRANCH  20  22
ATOM     22  C   UNL     1      11.849   7.404  20.255  0.00  0.00    +0.324 C 
BRANCH  22   3
ATOM      3  O   UNL     1      12.325   6.809  19.067  0.00  0.00    -0.483 OA
BRANCH   3  26
ATOM     26  C   UNL     1      12.546   7.642  17.994  0.00  0.00    +0.121 A 
ATOM     30  C   UNL     1      13.830   7.772  17.466  0.00  0.00    +0.045 A 
ATOM     31  C   UNL     1      11.486   8.356  17.436  0.00  0.00    +0.045 A 
ATOM     32  C   UNL     1      14.055   8.618  16.379  0.00  0.00    +0.004 A 
ATOM     33  C   UNL     1      11.710   9.200  16.349  0.00  0.00    +0.004 A 
ATOM     35  C   UNL     1      12.994   9.332  15.820  0.00  0.00    +0.000 A 
ENDBRANCH   3  26
ENDBRANCH  22   3
ENDBRANCH  20  22
ENDBRANCH  14   4
ENDBRANCH   8  14
BRANCH  10  15
ATOM     15  C   UNL     1      20.090   6.839  22.158  0.00  0.00    +0.103 C 
BRANCH  15  19
ATOM      1  O   UNL     1      22.272   7.661  22.802  0.00  0.00    -0.276 OA
ATOM      5  N   UNL     1      22.099   6.075  21.113  0.00  0.00    -0.311 N 
ATOM     19  C   UNL     1      21.598   6.927  22.086  0.00  0.00    +0.214 C 
ATOM     37  H   UNL     1      21.463   5.451  20.624  0.00  0.00    +0.149 HD
BRANCH   5  21
ATOM     21  C   UNL     1      23.509   5.951  20.823  0.00  0.00    +0.139 C 
BRANCH  21  23
ATOM     23  C   UNL     1      24.023   4.571  21.111  0.00  0.00    -0.030 A 
ATOM     24  C   UNL     1      25.336   4.392  21.549  0.00  0.00    +0.006 A 
ATOM     25  C   UNL     1      23.188   3.465  20.944  0.00  0.00    +0.006 A 
ATOM     27  C   UNL     1      25.814   3.110  21.818  0.00  0.00    +0.019 A 
ATOM     28  C   UNL     1      23.666   2.183  21.212  0.00  0.00    +0.019 A 
ATOM     29  C   UNL     1      24.979   2.005  21.650  0.00  0.00    +0.052 A 
BRANCH  29  34
ATOM      6  N   UNL     1      25.865  -0.376  22.148  0.00  0.00    -0.191 NA
ATOM     34  C   UNL     1      25.468   0.691  21.925  0.00  0.00    +0.099 C 
ENDBRANCH  29  34
ENDBRANCH  21  23
ENDBRANCH   5  21
ENDBRANCH  15  19
ENDBRANCH  10  15
TORSDOF 11
ENDMDL
