MODEL 1
REMARK VINA RESULT:      -7.1      0.000      0.000
REMARK  Name = 40777383
REMARK  9 active torsions:
REMARK  status: ('A' for Active; 'I' for Inactive)
REMARK    1  A    between atoms: O_3  and  C_26
REMARK    2  A    between atoms: O_3  and  C_31
REMARK    3  A    between atoms: O_4  and  C_27
REMARK    4  A    between atoms: O_4  and  C_32
REMARK    5  A    between atoms: C_8  and  C_12
REMARK    6  A    between atoms: C_9  and  C_14
REMARK    7  A    between atoms: C_12  and  C_15
REMARK    8  A    between atoms: C_14  and  C_16
REMARK    9  A    between atoms: C_25  and  C_28
REMARK                            x       y       z     vdW  Elec       q    Type
REMARK                         _______ _______ _______ _____ _____    ______ ____
ROOT
ATOM      5  N   UNL     1       3.655  10.135  -2.508  0.00  0.00    -0.316 NA
ATOM      8  C   UNL     1       4.006   9.631   0.379  0.00  0.00    +0.004 C 
ATOM      9  C   UNL     1       2.743  10.310  -0.204  0.00  0.00    +0.012 C 
ATOM     10  C   UNL     1       4.662   8.767  -0.712  0.00  0.00    +0.019 C 
ATOM     11  C   UNL     1       3.048  11.035  -1.526  0.00  0.00    +0.085 C 
ATOM     13  C   UNL     1       4.895   9.543  -2.008  0.00  0.00    +0.081 C 
ATOM     36  H   UNL     1       3.850  10.652  -3.364  0.00  0.00    +0.122 HD
ENDROOT
BRANCH   8  12
ATOM     12  C   UNL     1       5.021  10.612   0.980  0.00  0.00    +0.100 C 
BRANCH  12  15
ATOM      1  O   UNL     1       4.421  10.273   3.249  0.00  0.00    -0.276 OA
ATOM      6  N   UNL     1       6.630   9.832   2.684  0.00  0.00    -0.297 N 
ATOM     15  C   UNL     1       5.322  10.227   2.406  0.00  0.00    +0.216 C 
ATOM     17  C   UNL     1       7.743   9.858   1.730  0.00  0.00    +0.113 C 
ATOM     18  C   UNL     1       6.993   9.441   4.050  0.00  0.00    +0.143 C 
ATOM     19  C   UNL     1       8.354   8.465   1.608  0.00  0.00    +0.054 C 
ATOM     20  C   UNL     1       8.008   8.326   4.111  0.00  0.00    -0.023 A 
ATOM     21  C   UNL     1       8.677   7.878   2.957  0.00  0.00    -0.038 A 
ATOM     23  C   UNL     1       8.313   7.748   5.352  0.00  0.00    +0.054 A 
ATOM     24  C   UNL     1       9.611   6.838   3.058  0.00  0.00    +0.053 A 
ATOM     26  C   UNL     1       9.255   6.723   5.443  0.00  0.00    +0.162 A 
ATOM     27  C   UNL     1       9.902   6.268   4.297  0.00  0.00    +0.162 A 
BRANCH  26   3
ATOM      3  O   UNL     1       9.538   6.180   6.660  0.00  0.00    -0.491 OA
ATOM     31  C   UNL     1      10.251   6.999   7.585  0.00  0.00    +0.277 C 
ENDBRANCH  26   3
BRANCH  27   4
ATOM      4  O   UNL     1      10.820   5.263   4.373  0.00  0.00    -0.491 OA
ATOM     32  C   UNL     1      10.960   4.426   3.225  0.00  0.00    +0.277 C 
ENDBRANCH  27   4
ENDBRANCH  12  15
ENDBRANCH   8  12
BRANCH   9  14
ATOM     14  C   UNL     1       2.063  11.258   0.784  0.00  0.00    +0.064 C 
BRANCH  14  16
ATOM      2  O   UNL     1      -1.073   9.600   1.398  0.00  0.00    -0.354 OA
ATOM      7  N   UNL     1      -0.063  10.049   0.555  0.00  0.00    -0.083 NA
ATOM     16  C   UNL     1       0.820  10.646   1.361  0.00  0.00    +0.085 A 
ATOM     22  C   UNL     1       0.425  10.604   2.710  0.00  0.00    +0.076 A 
ATOM     25  C   UNL     1      -0.770   9.937   2.678  0.00  0.00    +0.167 A 
BRANCH  25  28
ATOM     28  C   UNL     1      -1.728   9.537   3.669  0.00  0.00    +0.020 A 
ATOM     29  C   UNL     1      -3.091   9.572   3.375  0.00  0.00    +0.011 A 
ATOM     30  C   UNL     1      -1.296   9.114   4.925  0.00  0.00    +0.011 A 
ATOM     33  C   UNL     1      -4.022   9.183   4.337  0.00  0.00    +0.001 A 
ATOM     34  C   UNL     1      -2.227   8.724   5.888  0.00  0.00    +0.001 A 
ATOM     35  C   UNL     1      -3.590   8.759   5.594  0.00  0.00    +0.000 A 
ENDBRANCH  25  28
ENDBRANCH  14  16
ENDBRANCH   9  14
TORSDOF 7
ENDMDL
MODEL 2
REMARK VINA RESULT:      -7.0     23.753     28.784
REMARK  Name = 40777383
REMARK  9 active torsions:
REMARK  status: ('A' for Active; 'I' for Inactive)
REMARK    1  A    between atoms: O_3  and  C_26
REMARK    2  A    between atoms: O_3  and  C_31
REMARK    3  A    between atoms: O_4  and  C_27
REMARK    4  A    between atoms: O_4  and  C_32
REMARK    5  A    between atoms: C_8  and  C_12
REMARK    6  A    between atoms: C_9  and  C_14
REMARK    7  A    between atoms: C_12  and  C_15
REMARK    8  A    between atoms: C_14  and  C_16
REMARK    9  A    between atoms: C_25  and  C_28
REMARK                            x       y       z     vdW  Elec       q    Type
REMARK                         _______ _______ _______ _____ _____    ______ ____
ROOT
ATOM      5  N   UNL     1      -9.612 -14.747  19.030  0.00  0.00    -0.316 NA
ATOM      8  C   UNL     1      -8.958 -12.082  17.946  0.00  0.00    +0.004 C 
ATOM      9  C   UNL     1      -7.970 -12.896  18.816  0.00  0.00    +0.012 C 
ATOM     10  C   UNL     1      -9.943 -13.048  17.267  0.00  0.00    +0.019 C 
ATOM     11  C   UNL     1      -8.709 -13.858  19.762  0.00  0.00    +0.085 C 
ATOM     13  C   UNL     1     -10.606 -13.999  18.262  0.00  0.00    +0.081 C 
ATOM     36  H   UNL     1     -10.088 -15.362  19.689  0.00  0.00    +0.122 HD
ENDROOT
BRANCH   8  12
ATOM     12  C   UNL     1      -9.709 -10.986  18.712  0.00  0.00    +0.100 C 
BRANCH  12  15
ATOM      1  O   UNL     1      -8.428  -9.317  17.620  0.00  0.00    -0.276 OA
ATOM      6  N   UNL     1     -10.703  -8.904  17.829  0.00  0.00    -0.297 N 
ATOM     15  C   UNL     1      -9.547  -9.664  18.006  0.00  0.00    +0.216 C 
ATOM     17  C   UNL     1     -12.028  -9.242  18.358  0.00  0.00    +0.113 C 
ATOM     18  C   UNL     1     -10.620  -7.609  17.148  0.00  0.00    +0.143 C 
ATOM     19  C   UNL     1     -13.039  -9.315  17.219  0.00  0.00    +0.054 C 
ATOM     20  C   UNL     1     -11.826  -7.292  16.299  0.00  0.00    -0.023 A 
ATOM     21  C   UNL     1     -12.988  -8.085  16.349  0.00  0.00    -0.038 A 
ATOM     23  C   UNL     1     -11.799  -6.165  15.466  0.00  0.00    +0.054 A 
ATOM     24  C   UNL     1     -14.086  -7.757  15.543  0.00  0.00    +0.053 A 
ATOM     26  C   UNL     1     -12.903  -5.839  14.678  0.00  0.00    +0.162 A 
ATOM     27  C   UNL     1     -14.045  -6.636  14.715  0.00  0.00    +0.162 A 
BRANCH  26   3
ATOM      3  O   UNL     1     -12.854  -4.736  13.879  0.00  0.00    -0.491 OA
ATOM     31  C   UNL     1     -12.247  -4.890  12.597  0.00  0.00    +0.277 C 
ENDBRANCH  26   3
BRANCH  27   4
ATOM      4  O   UNL     1     -15.127  -6.331  13.945  0.00  0.00    -0.491 OA
ATOM     32  C   UNL     1     -16.369  -6.931  14.309  0.00  0.00    +0.277 C 
ENDBRANCH  27   4
ENDBRANCH  12  15
ENDBRANCH   8  12
BRANCH   9  14
ATOM     14  C   UNL     1      -6.997 -12.015  19.600  0.00  0.00    +0.064 C 
BRANCH  14  16
ATOM      2  O   UNL     1      -3.627 -11.555  18.417  0.00  0.00    -0.354 OA
ATOM      7  N   UNL     1      -4.553 -11.855  19.411  0.00  0.00    -0.083 NA
ATOM     16  C   UNL     1      -5.744 -11.753  18.815  0.00  0.00    +0.085 A 
ATOM     22  C   UNL     1      -5.635 -11.396  17.460  0.00  0.00    +0.076 A 
ATOM     25  C   UNL     1      -4.285 -11.284  17.261  0.00  0.00    +0.167 A 
BRANCH  25  28
ATOM     28  C   UNL     1      -3.455 -10.954  16.138  0.00  0.00    +0.020 A 
ATOM     29  C   UNL     1      -2.093 -10.716  16.323  0.00  0.00    +0.011 A 
ATOM     30  C   UNL     1      -4.010 -10.872  14.862  0.00  0.00    +0.011 A 
ATOM     33  C   UNL     1      -1.287 -10.396  15.232  0.00  0.00    +0.001 A 
ATOM     34  C   UNL     1      -3.204 -10.552  13.769  0.00  0.00    +0.001 A 
ATOM     35  C   UNL     1      -1.842 -10.314  13.955  0.00  0.00    +0.000 A 
ENDBRANCH  25  28
ENDBRANCH  14  16
ENDBRANCH   9  14
TORSDOF 7
ENDMDL
MODEL 3
REMARK VINA RESULT:      -7.0     23.092     26.378
REMARK  Name = 40777383
REMARK  9 active torsions:
REMARK  status: ('A' for Active; 'I' for Inactive)
REMARK    1  A    between atoms: O_3  and  C_26
REMARK    2  A    between atoms: O_3  and  C_31
REMARK    3  A    between atoms: O_4  and  C_27
REMARK    4  A    between atoms: O_4  and  C_32
REMARK    5  A    between atoms: C_8  and  C_12
REMARK    6  A    between atoms: C_9  and  C_14
REMARK    7  A    between atoms: C_12  and  C_15
REMARK    8  A    between atoms: C_14  and  C_16
REMARK    9  A    between atoms: C_25  and  C_28
REMARK                            x       y       z     vdW  Elec       q    Type
REMARK                         _______ _______ _______ _____ _____    ______ ____
ROOT
ATOM      5  N   UNL     1     -13.146 -10.646  19.269  0.00  0.00    -0.316 NA
ATOM      8  C   UNL     1     -10.348  -9.900  18.700  0.00  0.00    +0.004 C 
ATOM      9  C   UNL     1     -11.525  -9.500  17.777  0.00  0.00    +0.012 C 
ATOM     10  C   UNL     1     -10.884 -10.137  20.122  0.00  0.00    +0.019 C 
ATOM     11  C   UNL     1     -12.693 -10.494  17.886  0.00  0.00    +0.085 C 
ATOM     13  C   UNL     1     -12.068 -11.102  20.146  0.00  0.00    +0.081 C 
ATOM     36  H   UNL     1     -13.913 -11.316  19.301  0.00  0.00    +0.122 HD
ENDROOT
BRANCH   8  12
ATOM     12  C   UNL     1      -9.553 -11.115  18.207  0.00  0.00    +0.100 C 
BRANCH  12  15
ATOM      1  O   UNL     1      -7.693 -11.137  19.677  0.00  0.00    -0.276 OA
ATOM      6  N   UNL     1      -7.265 -10.545  17.472  0.00  0.00    -0.297 N 
ATOM     15  C   UNL     1      -8.091 -10.934  18.526  0.00  0.00    +0.216 C 
ATOM     17  C   UNL     1      -7.719 -10.205  16.121  0.00  0.00    +0.113 C 
ATOM     18  C   UNL     1      -5.830 -10.355  17.710  0.00  0.00    +0.143 C 
ATOM     19  C   UNL     1      -7.015 -11.090  15.098  0.00  0.00    +0.054 C 
ATOM     20  C   UNL     1      -4.964 -10.763  16.545  0.00  0.00    -0.023 A 
ATOM     21  C   UNL     1      -5.521 -11.088  15.294  0.00  0.00    -0.038 A 
ATOM     23  C   UNL     1      -3.571 -10.788  16.705  0.00  0.00    +0.054 A 
ATOM     24  C   UNL     1      -4.680 -11.463  14.238  0.00  0.00    +0.053 A 
ATOM     26  C   UNL     1      -2.742 -11.150  15.643  0.00  0.00    +0.162 A 
ATOM     27  C   UNL     1      -3.296 -11.490  14.411  0.00  0.00    +0.162 A 
BRANCH  26   3
ATOM      3  O   UNL     1      -1.391 -11.163  15.821  0.00  0.00    -0.491 OA
ATOM     31  C   UNL     1      -0.702  -9.928  15.638  0.00  0.00    +0.277 C 
ENDBRANCH  26   3
BRANCH  27   4
ATOM      4  O   UNL     1      -2.497 -11.851  13.368  0.00  0.00    -0.491 OA
ATOM     32  C   UNL     1      -2.250 -10.861  12.370  0.00  0.00    +0.277 C 
ENDBRANCH  27   4
ENDBRANCH  12  15
ENDBRANCH   8  12
BRANCH   9  14
ATOM     14  C   UNL     1     -11.106  -9.321  16.317  0.00  0.00    +0.064 C 
BRANCH  14  16
ATOM      2  O   UNL     1     -11.596  -5.806  15.709  0.00  0.00    -0.354 OA
ATOM      7  N   UNL     1     -11.071  -6.867  16.437  0.00  0.00    -0.083 NA
ATOM     16  C   UNL     1     -11.491  -7.965  15.801  0.00  0.00    +0.085 A 
ATOM     22  C   UNL     1     -12.276  -7.661  14.675  0.00  0.00    +0.076 A 
ATOM     25  C   UNL     1     -12.311  -6.293  14.662  0.00  0.00    +0.167 A 
BRANCH  25  28
ATOM     28  C   UNL     1     -12.918  -5.308  13.814  0.00  0.00    +0.020 A 
ATOM     29  C   UNL     1     -14.308  -5.201  13.752  0.00  0.00    +0.011 A 
ATOM     30  C   UNL     1     -12.119  -4.457  13.051  0.00  0.00    +0.011 A 
ATOM     33  C   UNL     1     -14.898  -4.244  12.928  0.00  0.00    +0.001 A 
ATOM     34  C   UNL     1     -12.709  -3.499  12.227  0.00  0.00    +0.001 A 
ATOM     35  C   UNL     1     -14.099  -3.393  12.165  0.00  0.00    +0.000 A 
ENDBRANCH  25  28
ENDBRANCH  14  16
ENDBRANCH   9  14
TORSDOF 7
ENDMDL
MODEL 4
REMARK VINA RESULT:      -6.9     20.914     22.499
REMARK  Name = 40777383
REMARK  9 active torsions:
REMARK  status: ('A' for Active; 'I' for Inactive)
REMARK    1  A    between atoms: O_3  and  C_26
REMARK    2  A    between atoms: O_3  and  C_31
REMARK    3  A    between atoms: O_4  and  C_27
REMARK    4  A    between atoms: O_4  and  C_32
REMARK    5  A    between atoms: C_8  and  C_12
REMARK    6  A    between atoms: C_9  and  C_14
REMARK    7  A    between atoms: C_12  and  C_15
REMARK    8  A    between atoms: C_14  and  C_16
REMARK    9  A    between atoms: C_25  and  C_28
REMARK                            x       y       z     vdW  Elec       q    Type
REMARK                         _______ _______ _______ _____ _____    ______ ____
ROOT
ATOM      5  N   UNL     1      -9.543 -10.291   6.877  0.00  0.00    -0.316 NA
ATOM      8  C   UNL     1      -7.663  -9.230   8.888  0.00  0.00    +0.004 C 
ATOM      9  C   UNL     1      -8.617  -8.323   8.074  0.00  0.00    +0.012 C 
ATOM     10  C   UNL     1      -8.253 -10.649   8.954  0.00  0.00    +0.019 C 
ATOM     11  C   UNL     1      -8.977  -8.952   6.718  0.00  0.00    +0.085 C 
ATOM     13  C   UNL     1      -8.624 -11.190   7.574  0.00  0.00    +0.081 C 
ATOM     36  H   UNL     1      -9.761 -10.677   5.959  0.00  0.00    +0.122 HD
ENDROOT
BRANCH   8  12
ATOM     12  C   UNL     1      -6.225  -9.261   8.355  0.00  0.00    +0.100 C 
BRANCH  12  15
ATOM      1  O   UNL     1      -5.330  -7.874  10.056  0.00  0.00    -0.276 OA
ATOM      6  N   UNL     1      -4.325  -9.949   9.776  0.00  0.00    -0.297 N 
ATOM     15  C   UNL     1      -5.258  -8.958   9.471  0.00  0.00    +0.216 C 
ATOM     17  C   UNL     1      -4.152 -11.205   9.040  0.00  0.00    +0.113 C 
ATOM     18  C   UNL     1      -3.356  -9.723  10.853  0.00  0.00    +0.143 C 
ATOM     19  C   UNL     1      -4.312 -12.389   9.988  0.00  0.00    +0.054 C 
ATOM     20  C   UNL     1      -3.022 -10.967  11.638  0.00  0.00    -0.023 A 
ATOM     21  C   UNL     1      -3.451 -12.240  11.216  0.00  0.00    -0.038 A 
ATOM     23  C   UNL     1      -2.239 -10.855  12.796  0.00  0.00    +0.054 A 
ATOM     24  C   UNL     1      -3.120 -13.370  11.975  0.00  0.00    +0.053 A 
ATOM     26  C   UNL     1      -1.903 -11.989  13.537  0.00  0.00    +0.162 A 
ATOM     27  C   UNL     1      -2.345 -13.244  13.128  0.00  0.00    +0.162 A 
BRANCH  26   3
ATOM      3  O   UNL     1      -1.137 -11.854  14.656  0.00  0.00    -0.491 OA
ATOM     31  C   UNL     1      -1.334 -10.677  15.438  0.00  0.00    +0.277 C 
ENDBRANCH  26   3
BRANCH  27   4
ATOM      4  O   UNL     1      -2.028 -14.358  13.847  0.00  0.00    -0.491 OA
ATOM     32  C   UNL     1      -1.068 -15.245  13.275  0.00  0.00    +0.277 C 
ENDBRANCH  27   4
ENDBRANCH  12  15
ENDBRANCH   8  12
BRANCH   9  14
ATOM     14  C   UNL     1      -8.076  -6.905   7.882  0.00  0.00    +0.064 C 
BRANCH  14  16
ATOM      2  O   UNL     1      -9.778  -3.928   8.983  0.00  0.00    -0.354 OA
ATOM      7  N   UNL     1      -8.684  -4.590   8.436  0.00  0.00    -0.083 NA
ATOM     16  C   UNL     1      -9.032  -5.879   8.419  0.00  0.00    +0.085 A 
ATOM     22  C   UNL     1     -10.323  -6.090   8.935  0.00  0.00    +0.076 A 
ATOM     25  C   UNL     1     -10.746  -4.834   9.276  0.00  0.00    +0.167 A 
BRANCH  25  28
ATOM     28  C   UNL     1     -11.945  -4.295   9.851  0.00  0.00    +0.020 A 
ATOM     29  C   UNL     1     -12.120  -4.305  11.235  0.00  0.00    +0.011 A 
ATOM     30  C   UNL     1     -12.935  -3.762   9.027  0.00  0.00    +0.011 A 
ATOM     33  C   UNL     1     -13.285  -3.782  11.794  0.00  0.00    +0.001 A 
ATOM     34  C   UNL     1     -14.101  -3.238   9.586  0.00  0.00    +0.001 A 
ATOM     35  C   UNL     1     -14.276  -3.248  10.970  0.00  0.00    +0.000 A 
ENDBRANCH  25  28
ENDBRANCH  14  16
ENDBRANCH   9  14
TORSDOF 7
ENDMDL
MODEL 5
REMARK VINA RESULT:      -6.9     23.906     30.017
REMARK  Name = 40777383
REMARK  9 active torsions:
REMARK  status: ('A' for Active; 'I' for Inactive)
REMARK    1  A    between atoms: O_3  and  C_26
REMARK    2  A    between atoms: O_3  and  C_31
REMARK    3  A    between atoms: O_4  and  C_27
REMARK    4  A    between atoms: O_4  and  C_32
REMARK    5  A    between atoms: C_8  and  C_12
REMARK    6  A    between atoms: C_9  and  C_14
REMARK    7  A    between atoms: C_12  and  C_15
REMARK    8  A    between atoms: C_14  and  C_16
REMARK    9  A    between atoms: C_25  and  C_28
REMARK                            x       y       z     vdW  Elec       q    Type
REMARK                         _______ _______ _______ _____ _____    ______ ____
ROOT
ATOM      5  N   UNL     1     -19.008   3.185  23.591  0.00  0.00    -0.316 NA
ATOM      8  C   UNL     1     -16.184   3.905  24.056  0.00  0.00    +0.004 C 
ATOM      9  C   UNL     1     -17.199   3.715  25.209  0.00  0.00    +0.012 C 
ATOM     10  C   UNL     1     -16.658   3.104  22.832  0.00  0.00    +0.019 C 
ATOM     11  C   UNL     1     -18.639   4.000  24.749  0.00  0.00    +0.085 C 
ATOM     13  C   UNL     1     -18.108   3.410  22.461  0.00  0.00    +0.081 C 
ATOM     36  H   UNL     1     -19.962   3.408  23.312  0.00  0.00    +0.122 HD
ENDROOT
BRANCH   8  12
ATOM     12  C   UNL     1     -15.930   5.371  23.683  0.00  0.00    +0.100 C 
BRANCH  12  15
ATOM      1  O   UNL     1     -13.671   4.709  23.410  0.00  0.00    -0.276 OA
ATOM      6  N   UNL     1     -14.347   6.592  22.232  0.00  0.00    -0.297 N 
ATOM     15  C   UNL     1     -14.547   5.521  23.103  0.00  0.00    +0.216 C 
ATOM     17  C   UNL     1     -15.338   7.627  21.921  0.00  0.00    +0.113 C 
ATOM     18  C   UNL     1     -13.027   6.796  21.628  0.00  0.00    +0.143 C 
ATOM     19  C   UNL     1     -15.582   7.677  20.416  0.00  0.00    +0.054 C 
ATOM     20  C   UNL     1     -13.083   7.325  20.216  0.00  0.00    -0.023 A 
ATOM     21  C   UNL     1     -14.290   7.770  19.646  0.00  0.00    -0.038 A 
ATOM     23  C   UNL     1     -11.899   7.406  19.469  0.00  0.00    +0.054 A 
ATOM     24  C   UNL     1     -14.298   8.254  18.330  0.00  0.00    +0.053 A 
ATOM     26  C   UNL     1     -11.916   7.901  18.165  0.00  0.00    +0.162 A 
ATOM     27  C   UNL     1     -13.115   8.323  17.596  0.00  0.00    +0.162 A 
BRANCH  26   3
ATOM      3  O   UNL     1     -10.751   7.973  17.461  0.00  0.00    -0.491 OA
ATOM     31  C   UNL     1     -10.009   9.187  17.559  0.00  0.00    +0.277 C 
ENDBRANCH  26   3
BRANCH  27   4
ATOM      4  O   UNL     1     -13.144   8.804  16.321  0.00  0.00    -0.491 OA
ATOM     32  C   UNL     1     -13.815   8.008  15.345  0.00  0.00    +0.277 C 
ENDBRANCH  27   4
ENDBRANCH  12  15
ENDBRANCH   8  12
BRANCH   9  14
ATOM     14  C   UNL     1     -16.857   4.541  26.450  0.00  0.00    +0.064 C 
BRANCH  14  16
ATOM      2  O   UNL     1     -15.903   1.848  28.641  0.00  0.00    -0.354 OA
ATOM      7  N   UNL     1     -16.266   2.353  27.398  0.00  0.00    -0.083 NA
ATOM     16  C   UNL     1     -16.451   3.661  27.596  0.00  0.00    +0.085 A 
ATOM     22  C   UNL     1     -16.219   4.036  28.931  0.00  0.00    +0.076 A 
ATOM     25  C   UNL     1     -15.878   2.861  29.545  0.00  0.00    +0.167 A 
BRANCH  25  28
ATOM     28  C   UNL     1     -15.516   2.490  30.883  0.00  0.00    +0.020 A 
ATOM     29  C   UNL     1     -15.046   1.203  31.147  0.00  0.00    +0.011 A 
ATOM     30  C   UNL     1     -15.634   3.415  31.919  0.00  0.00    +0.011 A 
ATOM     33  C   UNL     1     -14.695   0.842  32.447  0.00  0.00    +0.001 A 
ATOM     34  C   UNL     1     -15.282   3.055  33.220  0.00  0.00    +0.001 A 
ATOM     35  C   UNL     1     -14.813   1.768  33.484  0.00  0.00    +0.000 A 
ENDBRANCH  25  28
ENDBRANCH  14  16
ENDBRANCH   9  14
TORSDOF 7
ENDMDL
MODEL 6
REMARK VINA RESULT:      -6.8      6.960     10.851
REMARK  Name = 40777383
REMARK  9 active torsions:
REMARK  status: ('A' for Active; 'I' for Inactive)
REMARK    1  A    between atoms: O_3  and  C_26
REMARK    2  A    between atoms: O_3  and  C_31
REMARK    3  A    between atoms: O_4  and  C_27
REMARK    4  A    between atoms: O_4  and  C_32
REMARK    5  A    between atoms: C_8  and  C_12
REMARK    6  A    between atoms: C_9  and  C_14
REMARK    7  A    between atoms: C_12  and  C_15
REMARK    8  A    between atoms: C_14  and  C_16
REMARK    9  A    between atoms: C_25  and  C_28
REMARK                            x       y       z     vdW  Elec       q    Type
REMARK                         _______ _______ _______ _____ _____    ______ ____
ROOT
ATOM      5  N   UNL     1      14.711   5.703  -3.225  0.00  0.00    -0.316 NA
ATOM      8  C   UNL     1      13.169   5.136  -0.773  0.00  0.00    +0.004 C 
ATOM      9  C   UNL     1      14.571   5.791  -0.747  0.00  0.00    +0.012 C 
ATOM     10  C   UNL     1      12.512   5.412  -2.136  0.00  0.00    +0.019 C 
ATOM     11  C   UNL     1      15.406   5.392  -1.976  0.00  0.00    +0.085 C 
ATOM     13  C   UNL     1      13.416   5.029  -3.307  0.00  0.00    +0.081 C 
ATOM     36  H   UNL     1      15.290   5.418  -4.013  0.00  0.00    +0.122 HD
ENDROOT
BRANCH   8  12
ATOM     12  C   UNL     1      13.176   3.634  -0.465  0.00  0.00    +0.100 C 
BRANCH  12  15
ATOM      1  O   UNL     1      13.685   2.825   1.704  0.00  0.00    -0.276 OA
ATOM      6  N   UNL     1      11.637   3.890   1.451  0.00  0.00    -0.297 N 
ATOM     15  C   UNL     1      12.863   3.408   0.992  0.00  0.00    +0.216 C 
ATOM     17  C   UNL     1      10.601   4.500   0.614  0.00  0.00    +0.113 C 
ATOM     18  C   UNL     1      11.270   3.708   2.858  0.00  0.00    +0.143 C 
ATOM     19  C   UNL     1      10.270   5.896   1.132  0.00  0.00    +0.054 C 
ATOM     20  C   UNL     1      10.480   4.859   3.432  0.00  0.00    -0.023 A 
ATOM     21  C   UNL     1       9.979   5.887   2.611  0.00  0.00    -0.038 A 
ATOM     23  C   UNL     1      10.211   4.885   4.808  0.00  0.00    +0.054 A 
ATOM     24  C   UNL     1       9.251   6.938   3.184  0.00  0.00    +0.053 A 
ATOM     26  C   UNL     1       9.473   5.930   5.365  0.00  0.00    +0.162 A 
ATOM     27  C   UNL     1       8.996   6.956   4.555  0.00  0.00    +0.162 A 
BRANCH  26   3
ATOM      3  O   UNL     1       9.222   5.931   6.705  0.00  0.00    -0.491 OA
ATOM     31  C   UNL     1      10.029   5.079   7.516  0.00  0.00    +0.277 C 
ENDBRANCH  26   3
BRANCH  27   4
ATOM      4  O   UNL     1       8.279   7.984   5.089  0.00  0.00    -0.491 OA
ATOM     32  C   UNL     1       7.880   9.026   4.199  0.00  0.00    +0.277 C 
ENDBRANCH  27   4
ENDBRANCH  12  15
ENDBRANCH   8  12
BRANCH   9  14
ATOM     14  C   UNL     1      15.342   5.504   0.542  0.00  0.00    +0.064 C 
BRANCH  14  16
ATOM      2  O   UNL     1      14.974   8.128   2.980  0.00  0.00    -0.354 OA
ATOM      7  N   UNL     1      15.636   7.515   1.922  0.00  0.00    -0.083 NA
ATOM     16  C   UNL     1      14.916   6.424   1.650  0.00  0.00    +0.085 A 
ATOM     22  C   UNL     1      13.798   6.297   2.493  0.00  0.00    +0.076 A 
ATOM     25  C   UNL     1      13.881   7.393   3.310  0.00  0.00    +0.167 A 
BRANCH  25  28
ATOM     28  C   UNL     1      13.093   7.905   4.393  0.00  0.00    +0.020 A 
ATOM     29  C   UNL     1      13.174   7.315   5.655  0.00  0.00    +0.011 A 
ATOM     30  C   UNL     1      12.246   8.993   4.185  0.00  0.00    +0.011 A 
ATOM     33  C   UNL     1      12.407   7.813   6.708  0.00  0.00    +0.001 A 
ATOM     34  C   UNL     1      11.479   9.492   5.239  0.00  0.00    +0.001 A 
ATOM     35  C   UNL     1      11.559   8.901   6.500  0.00  0.00    +0.000 A 
ENDBRANCH  25  28
ENDBRANCH  14  16
ENDBRANCH   9  14
TORSDOF 7
ENDMDL
MODEL 7
REMARK VINA RESULT:      -6.8     21.314     22.520
REMARK  Name = 40777383
REMARK  9 active torsions:
REMARK  status: ('A' for Active; 'I' for Inactive)
REMARK    1  A    between atoms: O_3  and  C_26
REMARK    2  A    between atoms: O_3  and  C_31
REMARK    3  A    between atoms: O_4  and  C_27
REMARK    4  A    between atoms: O_4  and  C_32
REMARK    5  A    between atoms: C_8  and  C_12
REMARK    6  A    between atoms: C_9  and  C_14
REMARK    7  A    between atoms: C_12  and  C_15
REMARK    8  A    between atoms: C_14  and  C_16
REMARK    9  A    between atoms: C_25  and  C_28
REMARK                            x       y       z     vdW  Elec       q    Type
REMARK                         _______ _______ _______ _____ _____    ______ ____
ROOT
ATOM      5  N   UNL     1      -7.390  -9.798   4.682  0.00  0.00    -0.316 NA
ATOM      8  C   UNL     1      -8.086  -9.336   7.512  0.00  0.00    +0.004 C 
ATOM      9  C   UNL     1      -8.287  -8.263   6.416  0.00  0.00    +0.012 C 
ATOM     10  C   UNL     1      -8.094 -10.729   6.860  0.00  0.00    +0.019 C 
ATOM     11  C   UNL     1      -7.302  -8.452   5.249  0.00  0.00    +0.085 C 
ATOM     13  C   UNL     1      -7.123 -10.828   5.685  0.00  0.00    +0.081 C 
ATOM     36  H   UNL     1      -6.719  -9.888   3.920  0.00  0.00    +0.122 HD
ENDROOT
BRANCH   8  12
ATOM     12  C   UNL     1      -6.821  -9.137   8.355  0.00  0.00    +0.100 C 
BRANCH  12  15
ATOM      1  O   UNL     1      -8.296  -9.608  10.150  0.00  0.00    -0.276 OA
ATOM      6  N   UNL     1      -6.083  -9.184  10.713  0.00  0.00    -0.297 N 
ATOM     15  C   UNL     1      -7.141  -9.331   9.815  0.00  0.00    +0.216 C 
ATOM     17  C   UNL     1      -4.725  -8.763  10.359  0.00  0.00    +0.113 C 
ATOM     18  C   UNL     1      -6.323  -9.363  12.148  0.00  0.00    +0.143 C 
ATOM     19  C   UNL     1      -3.720  -9.817  10.812  0.00  0.00    +0.054 C 
ATOM     20  C   UNL     1      -5.168 -10.000  12.880  0.00  0.00    -0.023 A 
ATOM     21  C   UNL     1      -3.921 -10.193  12.257  0.00  0.00    -0.038 A 
ATOM     23  C   UNL     1      -5.333 -10.377  14.221  0.00  0.00    +0.054 A 
ATOM     24  C   UNL     1      -2.874 -10.790  12.973  0.00  0.00    +0.053 A 
ATOM     26  C   UNL     1      -4.280 -10.958  14.928  0.00  0.00    +0.162 A 
ATOM     27  C   UNL     1      -3.053 -11.167  14.304  0.00  0.00    +0.162 A 
BRANCH  26   3
ATOM      3  O   UNL     1      -4.464 -11.313  16.231  0.00  0.00    -0.491 OA
ATOM     31  C   UNL     1      -4.908 -10.292  17.123  0.00  0.00    +0.277 C 
ENDBRANCH  26   3
BRANCH  27   4
ATOM      4  O   UNL     1      -2.019 -11.738  14.983  0.00  0.00    -0.491 OA
ATOM     32  C   UNL     1      -1.076 -10.855  15.590  0.00  0.00    +0.277 C 
ENDBRANCH  27   4
ENDBRANCH  12  15
ENDBRANCH   8  12
BRANCH   9  14
ATOM     14  C   UNL     1      -8.212  -6.834   6.955  0.00  0.00    +0.064 C 
BRANCH  14  16
ATOM      2  O   UNL     1     -11.672  -6.183   7.709  0.00  0.00    -0.354 OA
ATOM      7  N   UNL     1     -10.667  -6.733   6.922  0.00  0.00    -0.083 NA
ATOM     16  C   UNL     1      -9.527  -6.399   7.534  0.00  0.00    +0.085 A 
ATOM     22  C   UNL     1      -9.749  -5.648   8.702  0.00  0.00    +0.076 A 
ATOM     25  C   UNL     1     -11.112  -5.539   8.765  0.00  0.00    +0.167 A 
BRANCH  25  28
ATOM     28  C   UNL     1     -12.033  -4.917   9.673  0.00  0.00    +0.020 A 
ATOM     29  C   UNL     1     -13.380  -5.280   9.657  0.00  0.00    +0.011 A 
ATOM     30  C   UNL     1     -11.582  -3.950  10.570  0.00  0.00    +0.011 A 
ATOM     33  C   UNL     1     -14.275  -4.676  10.538  0.00  0.00    +0.001 A 
ATOM     34  C   UNL     1     -12.477  -3.346  11.452  0.00  0.00    +0.001 A 
ATOM     35  C   UNL     1     -13.824  -3.708  11.436  0.00  0.00    +0.000 A 
ENDBRANCH  25  28
ENDBRANCH  14  16
ENDBRANCH   9  14
TORSDOF 7
ENDMDL
MODEL 8
REMARK VINA RESULT:      -6.5     21.463     25.100
REMARK  Name = 40777383
REMARK  9 active torsions:
REMARK  status: ('A' for Active; 'I' for Inactive)
REMARK    1  A    between atoms: O_3  and  C_26
REMARK    2  A    between atoms: O_3  and  C_31
REMARK    3  A    between atoms: O_4  and  C_27
REMARK    4  A    between atoms: O_4  and  C_32
REMARK    5  A    between atoms: C_8  and  C_12
REMARK    6  A    between atoms: C_9  and  C_14
REMARK    7  A    between atoms: C_12  and  C_15
REMARK    8  A    between atoms: C_14  and  C_16
REMARK    9  A    between atoms: C_25  and  C_28
REMARK                            x       y       z     vdW  Elec       q    Type
REMARK                         _______ _______ _______ _____ _____    ______ ____
ROOT
ATOM      5  N   UNL     1      -3.494 -13.774  12.145  0.00  0.00    -0.316 NA
ATOM      8  C   UNL     1      -3.246 -11.095  10.934  0.00  0.00    +0.004 C 
ATOM      9  C   UNL     1      -2.364 -11.563  12.116  0.00  0.00    +0.012 C 
ATOM     10  C   UNL     1      -3.741 -12.327  10.157  0.00  0.00    +0.019 C 
ATOM     11  C   UNL     1      -3.071 -12.636  12.961  0.00  0.00    +0.085 C 
ATOM     13  C   UNL     1      -4.395 -13.366  11.068  0.00  0.00    +0.081 C 
ATOM     36  H   UNL     1      -3.964 -14.458  12.737  0.00  0.00    +0.122 HD
ENDROOT
BRANCH   8  12
ATOM     12  C   UNL     1      -4.423 -10.203  11.348  0.00  0.00    +0.100 C 
BRANCH  12  15
ATOM      1  O   UNL     1      -3.874  -8.888   9.453  0.00  0.00    -0.276 OA
ATOM      6  N   UNL     1      -6.090  -8.833  10.145  0.00  0.00    -0.297 N 
ATOM     15  C   UNL     1      -4.762  -9.250  10.230  0.00  0.00    +0.216 C 
ATOM     17  C   UNL     1      -7.145  -9.167  11.106  0.00  0.00    +0.113 C 
ATOM     18  C   UNL     1      -6.491  -7.909   9.080  0.00  0.00    +0.143 C 
ATOM     19  C   UNL     1      -8.304  -9.852  10.387  0.00  0.00    +0.054 C 
ATOM     20  C   UNL     1      -7.881  -8.163   8.550  0.00  0.00    -0.023 A 
ATOM     21  C   UNL     1      -8.755  -9.065   9.184  0.00  0.00    -0.038 A 
ATOM     23  C   UNL     1      -8.321  -7.459   7.419  0.00  0.00    +0.054 A 
ATOM     24  C   UNL     1     -10.038  -9.272   8.658  0.00  0.00    +0.053 A 
ATOM     26  C   UNL     1      -9.604  -7.663   6.912  0.00  0.00    +0.162 A 
ATOM     27  C   UNL     1     -10.461  -8.571   7.530  0.00  0.00    +0.162 A 
BRANCH  26   3
ATOM      3  O   UNL     1     -10.009  -6.964   5.815  0.00  0.00    -0.491 OA
ATOM     31  C   UNL     1      -9.433  -7.332   4.563  0.00  0.00    +0.277 C 
ENDBRANCH  26   3
BRANCH  27   4
ATOM      4  O   UNL     1     -11.715  -8.782   7.040  0.00  0.00    -0.491 OA
ATOM     32  C   UNL     1     -12.789  -8.116   7.703  0.00  0.00    +0.277 C 
ENDBRANCH  27   4
ENDBRANCH  12  15
ENDBRANCH   8  12
BRANCH   9  14
ATOM     14  C   UNL     1      -1.887 -10.410  13.001  0.00  0.00    +0.064 C 
BRANCH  14  16
ATOM      2  O   UNL     1      -2.143 -10.916  16.556  0.00  0.00    -0.354 OA
ATOM      7  N   UNL     1      -1.411 -10.779  15.382  0.00  0.00    -0.083 NA
ATOM     16  C   UNL     1      -2.324 -10.598  14.424  0.00  0.00    +0.085 A 
ATOM     22  C   UNL     1      -3.637 -10.610  14.929  0.00  0.00    +0.076 A 
ATOM     25  C   UNL     1      -3.467 -10.814  16.272  0.00  0.00    +0.167 A 
BRANCH  25  28
ATOM     28  C   UNL     1      -4.354 -10.935  17.393  0.00  0.00    +0.020 A 
ATOM     29  C   UNL     1      -3.960 -11.660  18.518  0.00  0.00    +0.011 A 
ATOM     30  C   UNL     1      -5.609 -10.330  17.359  0.00  0.00    +0.011 A 
ATOM     33  C   UNL     1      -4.821 -11.779  19.608  0.00  0.00    +0.001 A 
ATOM     34  C   UNL     1      -6.471 -10.448  18.449  0.00  0.00    +0.001 A 
ATOM     35  C   UNL     1      -6.077 -11.173  19.574  0.00  0.00    +0.000 A 
ENDBRANCH  25  28
ENDBRANCH  14  16
ENDBRANCH   9  14
TORSDOF 7
ENDMDL
MODEL 9
REMARK VINA RESULT:      -6.5     25.166     28.789
REMARK  Name = 40777383
REMARK  9 active torsions:
REMARK  status: ('A' for Active; 'I' for Inactive)
REMARK    1  A    between atoms: O_3  and  C_26
REMARK    2  A    between atoms: O_3  and  C_31
REMARK    3  A    between atoms: O_4  and  C_27
REMARK    4  A    between atoms: O_4  and  C_32
REMARK    5  A    between atoms: C_8  and  C_12
REMARK    6  A    between atoms: C_9  and  C_14
REMARK    7  A    between atoms: C_12  and  C_15
REMARK    8  A    between atoms: C_14  and  C_16
REMARK    9  A    between atoms: C_25  and  C_28
REMARK                            x       y       z     vdW  Elec       q    Type
REMARK                         _______ _______ _______ _____ _____    ______ ____
ROOT
ATOM      5  N   UNL     1     -12.343 -11.278  16.674  0.00  0.00    -0.316 NA
ATOM      8  C   UNL     1     -10.228 -11.934  18.625  0.00  0.00    +0.004 C 
ATOM      9  C   UNL     1     -11.733 -11.950  18.986  0.00  0.00    +0.012 C 
ATOM     10  C   UNL     1     -10.072 -12.149  17.110  0.00  0.00    +0.019 C 
ATOM     11  C   UNL     1     -12.540 -10.990  18.095  0.00  0.00    +0.085 C 
ATOM     13  C   UNL     1     -10.934 -11.188  16.293  0.00  0.00    +0.081 C 
ATOM     36  H   UNL     1     -12.885 -10.618  16.118  0.00  0.00    +0.122 HD
ENDROOT
BRANCH   8  12
ATOM     12  C   UNL     1      -9.492 -10.665  19.073  0.00  0.00    +0.100 C 
BRANCH  12  15
ATOM      1  O   UNL     1      -7.592 -11.691  20.051  0.00  0.00    -0.276 OA
ATOM      6  N   UNL     1      -7.198 -10.305  18.230  0.00  0.00    -0.297 N 
ATOM     15  C   UNL     1      -8.013 -10.937  19.170  0.00  0.00    +0.216 C 
ATOM     17  C   UNL     1      -7.654  -9.332  17.233  0.00  0.00    +0.113 C 
ATOM     18  C   UNL     1      -5.750 -10.528  18.263  0.00  0.00    +0.143 C 
ATOM     19  C   UNL     1      -7.283  -9.811  15.833  0.00  0.00    +0.054 C 
ATOM     20  C   UNL     1      -5.110 -10.559  16.897  0.00  0.00    -0.023 A 
ATOM     21  C   UNL     1      -5.828 -10.193  15.742  0.00  0.00    -0.038 A 
ATOM     23  C   UNL     1      -3.763 -10.929  16.780  0.00  0.00    +0.054 A 
ATOM     24  C   UNL     1      -5.196 -10.236  14.492  0.00  0.00    +0.053 A 
ATOM     26  C   UNL     1      -3.140 -10.955  15.532  0.00  0.00    +0.162 A 
ATOM     27  C   UNL     1      -3.857 -10.612  14.389  0.00  0.00    +0.162 A 
BRANCH  26   3
ATOM      3  O   UNL     1      -1.829 -11.314  15.446  0.00  0.00    -0.491 OA
ATOM     31  C   UNL     1      -0.862 -10.326  15.798  0.00  0.00    +0.277 C 
ENDBRANCH  26   3
BRANCH  27   4
ATOM      4  O   UNL     1      -3.261 -10.639  13.164  0.00  0.00    -0.491 OA
ATOM     32  C   UNL     1      -4.044 -11.128  12.075  0.00  0.00    +0.277 C 
ENDBRANCH  27   4
ENDBRANCH  12  15
ENDBRANCH   8  12
BRANCH   9  14
ATOM     14  C   UNL     1     -11.997 -11.662  20.464  0.00  0.00    +0.064 C 
BRANCH  14  16
ATOM      2  O   UNL     1     -15.522 -11.083  20.917  0.00  0.00    -0.354 OA
ATOM      7  N   UNL     1     -14.428 -11.916  20.713  0.00  0.00    -0.083 NA
ATOM     16  C   UNL     1     -13.373 -11.098  20.673  0.00  0.00    +0.085 A 
ATOM     22  C   UNL     1     -13.735  -9.751  20.845  0.00  0.00    +0.076 A 
ATOM     25  C   UNL     1     -15.095  -9.796  20.994  0.00  0.00    +0.167 A 
BRANCH  25  28
ATOM     28  C   UNL     1     -16.120  -8.814  21.204  0.00  0.00    +0.020 A 
ATOM     29  C   UNL     1     -17.462  -9.162  21.047  0.00  0.00    +0.011 A 
ATOM     30  C   UNL     1     -15.775  -7.513  21.566  0.00  0.00    +0.011 A 
ATOM     33  C   UNL     1     -18.458  -8.208  21.251  0.00  0.00    +0.001 A 
ATOM     34  C   UNL     1     -16.771  -6.558  21.772  0.00  0.00    +0.001 A 
ATOM     35  C   UNL     1     -18.113  -6.906  21.613  0.00  0.00    +0.000 A 
ENDBRANCH  25  28
ENDBRANCH  14  16
ENDBRANCH   9  14
TORSDOF 7
ENDMDL
MODEL 10
REMARK VINA RESULT:      -6.4     21.130     24.653
REMARK  Name = 40777383
REMARK  9 active torsions:
REMARK  status: ('A' for Active; 'I' for Inactive)
REMARK    1  A    between atoms: O_3  and  C_26
REMARK    2  A    between atoms: O_3  and  C_31
REMARK    3  A    between atoms: O_4  and  C_27
REMARK    4  A    between atoms: O_4  and  C_32
REMARK    5  A    between atoms: C_8  and  C_12
REMARK    6  A    between atoms: C_9  and  C_14
REMARK    7  A    between atoms: C_12  and  C_15
REMARK    8  A    between atoms: C_14  and  C_16
REMARK    9  A    between atoms: C_25  and  C_28
REMARK                            x       y       z     vdW  Elec       q    Type
REMARK                         _______ _______ _______ _____ _____    ______ ____
ROOT
ATOM      5  N   UNL     1      -3.195  -9.211   9.727  0.00  0.00    -0.316 NA
ATOM      8  C   UNL     1      -5.804  -9.599  11.048  0.00  0.00    +0.004 C 
ATOM      9  C   UNL     1      -4.490 -10.201  11.600  0.00  0.00    +0.012 C 
ATOM     10  C   UNL     1      -5.471  -8.368  10.188  0.00  0.00    +0.019 C 
ATOM     11  C   UNL     1      -3.460 -10.436  10.482  0.00  0.00    +0.085 C 
ATOM     13  C   UNL     1      -4.413  -8.668   9.128  0.00  0.00    +0.081 C 
ATOM     36  H   UNL     1      -2.516  -9.408   8.992  0.00  0.00    +0.122 HD
ENDROOT
BRANCH   8  12
ATOM     12  C   UNL     1      -6.666 -10.596  10.263  0.00  0.00    +0.100 C 
BRANCH  12  15
ATOM      1  O   UNL     1      -8.634  -9.292  10.478  0.00  0.00    -0.276 OA
ATOM      6  N   UNL     1      -8.078  -9.982   8.331  0.00  0.00    -0.297 N 
ATOM     15  C   UNL     1      -7.882  -9.898   9.710  0.00  0.00    +0.216 C 
ATOM     17  C   UNL     1      -7.259 -10.770   7.406  0.00  0.00    +0.113 C 
ATOM     18  C   UNL     1      -9.238  -9.323   7.725  0.00  0.00    +0.143 C 
ATOM     19  C   UNL     1      -6.691  -9.867   6.316  0.00  0.00    +0.054 C 
ATOM     20  C   UNL     1      -8.964  -8.752   6.356  0.00  0.00    -0.023 A 
ATOM     21  C   UNL     1      -7.765  -9.030   5.671  0.00  0.00    -0.038 A 
ATOM     23  C   UNL     1      -9.938  -7.954   5.739  0.00  0.00    +0.054 A 
ATOM     24  C   UNL     1      -7.549  -8.478   4.401  0.00  0.00    +0.053 A 
ATOM     26  C   UNL     1      -9.718  -7.421   4.469  0.00  0.00    +0.162 A 
ATOM     27  C   UNL     1      -8.524  -7.681   3.802  0.00  0.00    +0.162 A 
BRANCH  26   3
ATOM      3  O   UNL     1     -10.682  -6.651   3.889  0.00  0.00    -0.491 OA
ATOM     31  C   UNL     1     -11.788  -7.333   3.300  0.00  0.00    +0.277 C 
ENDBRANCH  26   3
BRANCH  27   4
ATOM      4  O   UNL     1      -8.296  -7.161   2.563  0.00  0.00    -0.491 OA
ATOM     32  C   UNL     1      -8.463  -8.041   1.451  0.00  0.00    +0.277 C 
ENDBRANCH  27   4
ENDBRANCH  12  15
ENDBRANCH   8  12
BRANCH   9  14
ATOM     14  C   UNL     1      -4.709 -11.483  12.405  0.00  0.00    +0.064 C 
BRANCH  14  16
ATOM      2  O   UNL     1      -3.641 -10.545  15.713  0.00  0.00    -0.354 OA
ATOM      7  N   UNL     1      -3.467 -10.607  14.335  0.00  0.00    -0.083 NA
ATOM     16  C   UNL     1      -4.553 -11.236  13.878  0.00  0.00    +0.085 A 
ATOM     22  C   UNL     1      -5.439 -11.591  14.910  0.00  0.00    +0.076 A 
ATOM     25  C   UNL     1      -4.819 -11.135  16.042  0.00  0.00    +0.167 A 
BRANCH  25  28
ATOM     28  C   UNL     1      -5.137 -11.148  17.441  0.00  0.00    +0.020 A 
ATOM     29  C   UNL     1      -6.290 -10.510  17.900  0.00  0.00    +0.011 A 
ATOM     30  C   UNL     1      -4.294 -11.797  18.342  0.00  0.00    +0.011 A 
ATOM     33  C   UNL     1      -6.600 -10.522  19.259  0.00  0.00    +0.001 A 
ATOM     34  C   UNL     1      -4.604 -11.809  19.702  0.00  0.00    +0.001 A 
ATOM     35  C   UNL     1      -5.757 -11.172  20.161  0.00  0.00    +0.000 A 
ENDBRANCH  25  28
ENDBRANCH  14  16
ENDBRANCH   9  14
TORSDOF 7
ENDMDL
