MODEL 1
REMARK VINA RESULT:      -7.3      0.000      0.000
REMARK  Name = 26743644
REMARK  6 active torsions:
REMARK  status: ('A' for Active; 'I' for Inactive)
REMARK    1  A    between atoms: O_4  and  C_13
REMARK    2  A    between atoms: N_6  and  C_15
REMARK    3  A    between atoms: C_11  and  C_16
REMARK    4  A    between atoms: C_15  and  C_17
REMARK    5  A    between atoms: C_18  and  C_19
REMARK    6  A    between atoms: C_26  and  C_27
REMARK                            x       y       z     vdW  Elec       q    Type
REMARK                         _______ _______ _______ _____ _____    ______ ____
ROOT
ATOM      5  O   UNL     1      14.592   6.845  19.298  0.00  0.00    -0.336 OA
ATOM      7  N   UNL     1      15.746   7.453  21.120  0.00  0.00    -0.190 NA
ATOM     10  N   UNL     1      15.867   6.282  19.158  0.00  0.00    -0.056 NA
ATOM     16  C   UNL     1      14.606   7.517  20.480  0.00  0.00    +0.245 A 
ATOM     18  C   UNL     1      16.488   6.685  20.270  0.00  0.00    +0.202 A 
ENDROOT
BRANCH  18  19
ATOM     19  C   UNL     1      17.850   6.339  20.561  0.00  0.00    +0.022 A 
ATOM     22  C   UNL     1      18.512   6.952  21.625  0.00  0.00    +0.012 A 
ATOM     23  C   UNL     1      18.510   5.391  19.782  0.00  0.00    +0.012 A 
ATOM     24  C   UNL     1      19.835   6.616  21.909  0.00  0.00    +0.013 A 
ATOM     25  C   UNL     1      19.835   5.055  20.065  0.00  0.00    +0.013 A 
ATOM     26  C   UNL     1      20.497   5.667  21.129  0.00  0.00    +0.055 A 
BRANCH  26  27
ATOM      1  F   UNL     1      22.047   4.106  22.068  0.00  0.00    -0.166 F 
ATOM      2  F   UNL     1      22.522   6.220  22.243  0.00  0.00    -0.166 F 
ATOM      3  F   UNL     1      22.704   5.217  20.323  0.00  0.00    -0.166 F 
ATOM     27  C   UNL     1      21.912   5.309  21.433  0.00  0.00    +0.417 C 
ENDBRANCH  26  27
ENDBRANCH  18  19
BRANCH  16  11
ATOM      6  N   UNL     1      12.527   8.642  19.699  0.00  0.00    -0.282 NA
ATOM     11  C   UNL     1      13.324   8.224  20.869  0.00  0.00    +0.149 C 
ATOM     12  C   UNL     1      12.379   7.330  21.692  0.00  0.00    +0.061 C 
ATOM     13  C   UNL     1      11.060   7.342  20.929  0.00  0.00    +0.130 C 
ATOM     14  C   UNL     1      11.128   8.627  20.124  0.00  0.00    +0.117 C 
BRANCH  13   4
ATOM      4  O   UNL     1       9.963   7.340  21.821  0.00  0.00    -0.390 OA
ATOM     28  H   UNL     1      10.009   8.160  22.341  0.00  0.00    +0.210 HD
ENDBRANCH  13   4
BRANCH   6  15
ATOM     15  C   UNL     1      12.923   9.937  19.165  0.00  0.00    +0.159 C 
BRANCH  15  17
ATOM      8  N   UNL     1      13.582   8.621  17.136  0.00  0.00    -0.347 N 
ATOM      9  N   UNL     1      13.695  10.829  16.933  0.00  0.00    -0.239 NA
ATOM     17  C   UNL     1      13.402   9.834  17.740  0.00  0.00    +0.121 A 
ATOM     20  C   UNL     1      14.017   8.858  15.863  0.00  0.00    +0.104 A 
ATOM     21  C   UNL     1      14.079  10.228  15.761  0.00  0.00    +0.130 A 
ATOM     29  H   UNL     1      13.425   7.713  17.555  0.00  0.00    +0.167 HD
ENDBRANCH  15  17
ENDBRANCH   6  15
ENDBRANCH  16  11
TORSDOF 6
ENDMDL
MODEL 2
REMARK VINA RESULT:      -7.1      1.704      3.510
REMARK  Name = 26743644
REMARK  6 active torsions:
REMARK  status: ('A' for Active; 'I' for Inactive)
REMARK    1  A    between atoms: O_4  and  C_13
REMARK    2  A    between atoms: N_6  and  C_15
REMARK    3  A    between atoms: C_11  and  C_16
REMARK    4  A    between atoms: C_15  and  C_17
REMARK    5  A    between atoms: C_18  and  C_19
REMARK    6  A    between atoms: C_26  and  C_27
REMARK                            x       y       z     vdW  Elec       q    Type
REMARK                         _______ _______ _______ _____ _____    ______ ____
ROOT
ATOM      5  O   UNL     1      14.947   8.526  20.049  0.00  0.00    -0.336 OA
ATOM      7  N   UNL     1      15.910   6.733  19.113  0.00  0.00    -0.190 NA
ATOM     10  N   UNL     1      16.151   8.328  20.736  0.00  0.00    -0.056 NA
ATOM     16  C   UNL     1      14.883   7.544  19.111  0.00  0.00    +0.245 A 
ATOM     18  C   UNL     1      16.662   7.253  20.126  0.00  0.00    +0.202 A 
ENDROOT
BRANCH  18  19
ATOM     19  C   UNL     1      17.918   6.674  20.507  0.00  0.00    +0.022 A 
ATOM     22  C   UNL     1      18.613   7.179  21.607  0.00  0.00    +0.012 A 
ATOM     23  C   UNL     1      18.443   5.608  19.779  0.00  0.00    +0.012 A 
ATOM     24  C   UNL     1      19.833   6.615  21.978  0.00  0.00    +0.013 A 
ATOM     25  C   UNL     1      19.665   5.045  20.149  0.00  0.00    +0.013 A 
ATOM     26  C   UNL     1      20.360   5.548  21.249  0.00  0.00    +0.055 A 
BRANCH  26  27
ATOM      1  F   UNL     1      22.153   5.432  22.827  0.00  0.00    -0.166 F 
ATOM      2  F   UNL     1      22.647   5.169  20.726  0.00  0.00    -0.166 F 
ATOM      3  F   UNL     1      21.616   3.592  21.810  0.00  0.00    -0.166 F 
ATOM     27  C   UNL     1      21.665   4.947  21.646  0.00  0.00    +0.417 C 
ENDBRANCH  26  27
ENDBRANCH  18  19
BRANCH  16  11
ATOM      6  N   UNL     1      12.627   8.500  18.667  0.00  0.00    -0.282 NA
ATOM     11  C   UNL     1      13.656   7.539  18.222  0.00  0.00    +0.149 C 
ATOM     12  C   UNL     1      13.972   7.943  16.771  0.00  0.00    +0.061 C 
ATOM     13  C   UNL     1      13.040   9.111  16.474  0.00  0.00    +0.130 C 
ATOM     14  C   UNL     1      11.908   8.922  17.467  0.00  0.00    +0.117 C 
BRANCH  13   4
ATOM      4  O   UNL     1      12.579   9.060  15.138  0.00  0.00    -0.390 OA
ATOM     28  H   UNL     1      11.684   8.680  15.153  0.00  0.00    +0.210 HD
ENDBRANCH  13   4
BRANCH   6  15
ATOM     15  C   UNL     1      11.733   7.958  19.681  0.00  0.00    +0.159 C 
BRANCH  15  17
ATOM      8  N   UNL     1      12.335  10.019  20.974  0.00  0.00    -0.347 N 
ATOM      9  N   UNL     1      10.659   8.818  21.797  0.00  0.00    -0.239 NA
ATOM     17  C   UNL     1      11.546   8.911  20.832  0.00  0.00    +0.121 A 
ATOM     20  C   UNL     1      11.924  10.672  22.101  0.00  0.00    +0.104 A 
ATOM     21  C   UNL     1      10.889   9.912  22.592  0.00  0.00    +0.130 A 
ATOM     29  H   UNL     1      13.087  10.302  20.360  0.00  0.00    +0.167 HD
ENDBRANCH  15  17
ENDBRANCH   6  15
ENDBRANCH  16  11
TORSDOF 6
ENDMDL
MODEL 3
REMARK VINA RESULT:      -7.0      2.196      2.983
REMARK  Name = 26743644
REMARK  6 active torsions:
REMARK  status: ('A' for Active; 'I' for Inactive)
REMARK    1  A    between atoms: O_4  and  C_13
REMARK    2  A    between atoms: N_6  and  C_15
REMARK    3  A    between atoms: C_11  and  C_16
REMARK    4  A    between atoms: C_15  and  C_17
REMARK    5  A    between atoms: C_18  and  C_19
REMARK    6  A    between atoms: C_26  and  C_27
REMARK                            x       y       z     vdW  Elec       q    Type
REMARK                         _______ _______ _______ _____ _____    ______ ____
ROOT
ATOM      5  O   UNL     1      14.877  10.542  21.790  0.00  0.00    -0.336 OA
ATOM      7  N   UNL     1      14.865   8.360  21.282  0.00  0.00    -0.190 NA
ATOM     10  N   UNL     1      16.220  10.149  21.724  0.00  0.00    -0.056 NA
ATOM     16  C   UNL     1      14.146   9.428  21.518  0.00  0.00    +0.245 A 
ATOM     18  C   UNL     1      16.130   8.851  21.420  0.00  0.00    +0.202 A 
ENDROOT
BRANCH  18  19
ATOM     19  C   UNL     1      17.285   8.018  21.249  0.00  0.00    +0.022 A 
ATOM     22  C   UNL     1      17.213   6.885  20.437  0.00  0.00    +0.012 A 
ATOM     23  C   UNL     1      18.478   8.339  21.893  0.00  0.00    +0.012 A 
ATOM     24  C   UNL     1      18.336   6.075  20.269  0.00  0.00    +0.013 A 
ATOM     25  C   UNL     1      19.602   7.528  21.727  0.00  0.00    +0.013 A 
ATOM     26  C   UNL     1      19.530   6.397  20.915  0.00  0.00    +0.055 A 
BRANCH  26  27
ATOM      1  F   UNL     1      20.467   4.361  20.078  0.00  0.00    -0.166 F 
ATOM      2  F   UNL     1      21.294   5.162  21.922  0.00  0.00    -0.166 F 
ATOM      3  F   UNL     1      21.733   6.122  20.022  0.00  0.00    -0.166 F 
ATOM     27  C   UNL     1      20.730   5.529  20.736  0.00  0.00    +0.417 C 
ENDBRANCH  26  27
ENDBRANCH  18  19
BRANCH  16  11
ATOM      6  N   UNL     1      11.952   8.478  22.213  0.00  0.00    -0.282 NA
ATOM     11  C   UNL     1      12.640   9.591  21.527  0.00  0.00    +0.149 C 
ATOM     12  C   UNL     1      12.182  10.857  22.273  0.00  0.00    +0.061 C 
ATOM     13  C   UNL     1      11.205  10.361  23.331  0.00  0.00    +0.130 C 
ATOM     14  C   UNL     1      10.722   9.035  22.773  0.00  0.00    +0.117 C 
BRANCH  13   4
ATOM      4  O   UNL     1      10.141  11.276  23.501  0.00  0.00    -0.390 OA
ATOM     28  H   UNL     1      10.046  11.771  22.668  0.00  0.00    +0.210 HD
ENDBRANCH  13   4
BRANCH   6  15
ATOM     15  C   UNL     1      11.692   7.339  21.343  0.00  0.00    +0.159 C 
BRANCH  15  17
ATOM      8  N   UNL     1      12.673   7.359  19.037  0.00  0.00    -0.347 N 
ATOM      9  N   UNL     1      10.754   8.449  19.280  0.00  0.00    -0.239 NA
ATOM     17  C   UNL     1      11.673   7.735  19.890  0.00  0.00    +0.121 A 
ATOM     20  C   UNL     1      12.372   7.867  17.805  0.00  0.00    +0.104 A 
ATOM     21  C   UNL     1      11.184   8.535  17.980  0.00  0.00    +0.130 A 
ATOM     29  H   UNL     1      13.489   6.809  19.274  0.00  0.00    +0.167 HD
ENDBRANCH  15  17
ENDBRANCH   6  15
ENDBRANCH  16  11
TORSDOF 6
ENDMDL
MODEL 4
REMARK VINA RESULT:      -7.0      1.954      3.454
REMARK  Name = 26743644
REMARK  6 active torsions:
REMARK  status: ('A' for Active; 'I' for Inactive)
REMARK    1  A    between atoms: O_4  and  C_13
REMARK    2  A    between atoms: N_6  and  C_15
REMARK    3  A    between atoms: C_11  and  C_16
REMARK    4  A    between atoms: C_15  and  C_17
REMARK    5  A    between atoms: C_18  and  C_19
REMARK    6  A    between atoms: C_26  and  C_27
REMARK                            x       y       z     vdW  Elec       q    Type
REMARK                         _______ _______ _______ _____ _____    ______ ____
ROOT
ATOM      5  O   UNL     1      16.194   5.935  18.305  0.00  0.00    -0.336 OA
ATOM      7  N   UNL     1      16.676   6.854  20.291  0.00  0.00    -0.190 NA
ATOM     10  N   UNL     1      17.491   5.515  18.624  0.00  0.00    -0.056 NA
ATOM     16  C   UNL     1      15.787   6.719  19.339  0.00  0.00    +0.245 A 
ATOM     18  C   UNL     1      17.704   6.097  19.808  0.00  0.00    +0.202 A 
ENDROOT
BRANCH  18  19
ATOM     19  C   UNL     1      18.933   5.945  20.532  0.00  0.00    +0.022 A 
ATOM     22  C   UNL     1      19.183   6.736  21.655  0.00  0.00    +0.012 A 
ATOM     23  C   UNL     1      19.876   5.008  20.116  0.00  0.00    +0.012 A 
ATOM     24  C   UNL     1      20.376   6.588  22.360  0.00  0.00    +0.013 A 
ATOM     25  C   UNL     1      21.071   4.860  20.820  0.00  0.00    +0.013 A 
ATOM     26  C   UNL     1      21.321   5.650  21.943  0.00  0.00    +0.055 A 
BRANCH  26  27
ATOM      1  F   UNL     1      23.329   4.404  22.313  0.00  0.00    -0.166 F 
ATOM      2  F   UNL     1      22.401   5.345  24.039  0.00  0.00    -0.166 F 
ATOM      3  F   UNL     1      23.446   6.556  22.566  0.00  0.00    -0.166 F 
ATOM     27  C   UNL     1      22.598   5.492  22.697  0.00  0.00    +0.417 C 
ENDBRANCH  26  27
ENDBRANCH  18  19
BRANCH  16  11
ATOM      6  N   UNL     1      14.247   8.559  20.000  0.00  0.00    -0.282 NA
ATOM     11  C   UNL     1      14.395   7.306  19.234  0.00  0.00    +0.149 C 
ATOM     12  C   UNL     1      14.012   7.678  17.791  0.00  0.00    +0.061 C 
ATOM     13  C   UNL     1      13.621   9.149  17.853  0.00  0.00    +0.130 C 
ATOM     14  C   UNL     1      13.234   9.352  19.305  0.00  0.00    +0.117 C 
BRANCH  13   4
ATOM      4  O   UNL     1      12.542   9.419  16.980  0.00  0.00    -0.390 OA
ATOM     28  H   UNL     1      12.916   9.764  16.151  0.00  0.00    +0.210 HD
ENDBRANCH  13   4
BRANCH   6  15
ATOM     15  C   UNL     1      13.908   8.342  21.400  0.00  0.00    +0.159 C 
BRANCH  15  17
ATOM      8  N   UNL     1      12.491   6.276  21.330  0.00  0.00    -0.347 N 
ATOM      9  N   UNL     1      11.442   8.147  21.903  0.00  0.00    -0.239 NA
ATOM     17  C   UNL     1      12.595   7.621  21.554  0.00  0.00    +0.121 A 
ATOM     20  C   UNL     1      11.190   5.924  21.548  0.00  0.00    +0.104 A 
ATOM     21  C   UNL     1      10.562   7.095  21.900  0.00  0.00    +0.130 A 
ATOM     29  H   UNL     1      13.240   5.655  21.050  0.00  0.00    +0.167 HD
ENDBRANCH  15  17
ENDBRANCH   6  15
ENDBRANCH  16  11
TORSDOF 6
ENDMDL
MODEL 5
REMARK VINA RESULT:      -6.5      5.273      9.356
REMARK  Name = 26743644
REMARK  6 active torsions:
REMARK  status: ('A' for Active; 'I' for Inactive)
REMARK    1  A    between atoms: O_4  and  C_13
REMARK    2  A    between atoms: N_6  and  C_15
REMARK    3  A    between atoms: C_11  and  C_16
REMARK    4  A    between atoms: C_15  and  C_17
REMARK    5  A    between atoms: C_18  and  C_19
REMARK    6  A    between atoms: C_26  and  C_27
REMARK                            x       y       z     vdW  Elec       q    Type
REMARK                         _______ _______ _______ _____ _____    ______ ____
ROOT
ATOM      5  O   UNL     1      18.348   5.663  19.349  0.00  0.00    -0.336 OA
ATOM      7  N   UNL     1      17.488   6.827  21.059  0.00  0.00    -0.190 NA
ATOM     10  N   UNL     1      16.999   5.872  19.038  0.00  0.00    -0.056 NA
ATOM     16  C   UNL     1      18.553   6.257  20.554  0.00  0.00    +0.245 A 
ATOM     18  C   UNL     1      16.560   6.565  20.094  0.00  0.00    +0.202 A 
ENDROOT
BRANCH  18  19
ATOM     19  C   UNL     1      15.200   7.007  20.215  0.00  0.00    +0.022 A 
ATOM     22  C   UNL     1      14.376   7.042  19.090  0.00  0.00    +0.012 A 
ATOM     23  C   UNL     1      14.703   7.400  21.456  0.00  0.00    +0.012 A 
ATOM     24  C   UNL     1      13.054   7.471  19.207  0.00  0.00    +0.013 A 
ATOM     25  C   UNL     1      13.381   7.830  21.574  0.00  0.00    +0.013 A 
ATOM     26  C   UNL     1      12.557   7.865  20.450  0.00  0.00    +0.055 A 
BRANCH  26  27
ATOM      1  F   UNL     1      11.004   9.474  21.299  0.00  0.00    -0.166 F 
ATOM      2  F   UNL     1      10.345   7.405  21.190  0.00  0.00    -0.166 F 
ATOM      3  F   UNL     1      10.544   8.584  19.375  0.00  0.00    -0.166 F 
ATOM     27  C   UNL     1      11.143   8.324  20.574  0.00  0.00    +0.417 C 
ENDBRANCH  26  27
ENDBRANCH  18  19
BRANCH  16  11
ATOM      6  N   UNL     1      20.816   5.238  20.366  0.00  0.00    -0.282 NA
ATOM     11  C   UNL     1      19.956   6.173  21.119  0.00  0.00    +0.149 C 
ATOM     12  C   UNL     1      20.699   7.519  21.070  0.00  0.00    +0.061 C 
ATOM     13  C   UNL     1      21.987   7.232  20.308  0.00  0.00    +0.130 C 
ATOM     14  C   UNL     1      22.183   5.739  20.494  0.00  0.00    +0.117 C 
BRANCH  13   4
ATOM      4  O   UNL     1      23.065   7.973  20.845  0.00  0.00    -0.390 OA
ATOM     28  H   UNL     1      22.989   7.937  21.814  0.00  0.00    +0.210 HD
ENDBRANCH  13   4
BRANCH   6  15
ATOM     15  C   UNL     1      20.694   3.857  20.814  0.00  0.00    +0.159 C 
BRANCH  15  17
ATOM      8  N   UNL     1      22.765   2.493  20.445  0.00  0.00    -0.347 N 
ATOM      9  N   UNL     1      22.600   3.482  22.426  0.00  0.00    -0.239 NA
ATOM     17  C   UNL     1      22.017   3.294  21.263  0.00  0.00    +0.121 A 
ATOM     20  C   UNL     1      23.894   2.148  21.131  0.00  0.00    +0.104 A 
ATOM     21  C   UNL     1      23.770   2.770  22.351  0.00  0.00    +0.130 A 
ATOM     29  H   UNL     1      22.525   2.205  19.505  0.00  0.00    +0.167 HD
ENDBRANCH  15  17
ENDBRANCH   6  15
ENDBRANCH  16  11
TORSDOF 6
ENDMDL
MODEL 6
REMARK VINA RESULT:      -6.4     15.641     18.765
REMARK  Name = 26743644
REMARK  6 active torsions:
REMARK  status: ('A' for Active; 'I' for Inactive)
REMARK    1  A    between atoms: O_4  and  C_13
REMARK    2  A    between atoms: N_6  and  C_15
REMARK    3  A    between atoms: C_11  and  C_16
REMARK    4  A    between atoms: C_15  and  C_17
REMARK    5  A    between atoms: C_18  and  C_19
REMARK    6  A    between atoms: C_26  and  C_27
REMARK                            x       y       z     vdW  Elec       q    Type
REMARK                         _______ _______ _______ _____ _____    ______ ____
ROOT
ATOM      5  O   UNL     1      10.329   4.172   4.677  0.00  0.00    -0.336 OA
ATOM      7  N   UNL     1      10.286   5.636   2.981  0.00  0.00    -0.190 NA
ATOM     10  N   UNL     1      10.893   3.512   3.578  0.00  0.00    -0.056 NA
ATOM     16  C   UNL     1       9.999   5.416   4.239  0.00  0.00    +0.245 A 
ATOM     18  C   UNL     1      10.833   4.440   2.618  0.00  0.00    +0.202 A 
ENDROOT
BRANCH  18  19
ATOM     19  C   UNL     1      11.308   4.202   1.285  0.00  0.00    +0.022 A 
ATOM     22  C   UNL     1      10.527   4.574   0.190  0.00  0.00    +0.012 A 
ATOM     23  C   UNL     1      12.549   3.600   1.084  0.00  0.00    +0.012 A 
ATOM     24  C   UNL     1      10.989   4.345  -1.105  0.00  0.00    +0.013 A 
ATOM     25  C   UNL     1      13.011   3.369  -0.212  0.00  0.00    +0.013 A 
ATOM     26  C   UNL     1      12.231   3.742  -1.307  0.00  0.00    +0.055 A 
BRANCH  26  27
ATOM      1  F   UNL     1      14.049   3.783  -2.860  0.00  0.00    -0.166 F 
ATOM      2  F   UNL     1      12.067   4.245  -3.624  0.00  0.00    -0.166 F 
ATOM      3  F   UNL     1      12.585   2.200  -3.101  0.00  0.00    -0.166 F 
ATOM     27  C   UNL     1      12.724   3.496  -2.693  0.00  0.00    +0.417 C 
ENDBRANCH  26  27
ENDBRANCH  18  19
BRANCH  16  11
ATOM      6  N   UNL     1      10.295   7.377   5.743  0.00  0.00    -0.282 NA
ATOM     11  C   UNL     1       9.362   6.342   5.255  0.00  0.00    +0.149 C 
ATOM     12  C   UNL     1       8.169   7.125   4.681  0.00  0.00    +0.061 C 
ATOM     13  C   UNL     1       8.501   8.591   4.932  0.00  0.00    +0.130 C 
ATOM     14  C   UNL     1       9.479   8.539   6.090  0.00  0.00    +0.117 C 
BRANCH  13   4
ATOM      4  O   UNL     1       7.335   9.321   5.262  0.00  0.00    -0.390 OA
ATOM     28  H   UNL     1       7.620  10.193   5.586  0.00  0.00    +0.210 HD
ENDBRANCH  13   4
BRANCH   6  15
ATOM     15  C   UNL     1      11.117   6.932   6.860  0.00  0.00    +0.159 C 
BRANCH  15  17
ATOM      8  N   UNL     1      10.572   4.669   7.790  0.00  0.00    -0.347 N 
ATOM      9  N   UNL     1       9.443   6.370   8.664  0.00  0.00    -0.239 NA
ATOM     17  C   UNL     1      10.358   6.019   7.787  0.00  0.00    +0.121 A 
ATOM     20  C   UNL     1       9.741   4.125   8.728  0.00  0.00    +0.104 A 
ATOM     21  C   UNL     1       9.055   5.194   9.253  0.00  0.00    +0.130 A 
ATOM     29  H   UNL     1      11.224   4.164   7.204  0.00  0.00    +0.167 HD
ENDBRANCH  15  17
ENDBRANCH   6  15
ENDBRANCH  16  11
TORSDOF 6
ENDMDL
MODEL 7
REMARK VINA RESULT:      -6.3     26.859     29.606
REMARK  Name = 26743644
REMARK  6 active torsions:
REMARK  status: ('A' for Active; 'I' for Inactive)
REMARK    1  A    between atoms: O_4  and  C_13
REMARK    2  A    between atoms: N_6  and  C_15
REMARK    3  A    between atoms: C_11  and  C_16
REMARK    4  A    between atoms: C_15  and  C_17
REMARK    5  A    between atoms: C_18  and  C_19
REMARK    6  A    between atoms: C_26  and  C_27
REMARK                            x       y       z     vdW  Elec       q    Type
REMARK                         _______ _______ _______ _____ _____    ______ ____
ROOT
ATOM      5  O   UNL     1      -5.640 -12.027  16.456  0.00  0.00    -0.336 OA
ATOM      7  N   UNL     1      -5.843 -10.068  15.387  0.00  0.00    -0.190 NA
ATOM     10  N   UNL     1      -6.926 -11.555  16.747  0.00  0.00    -0.056 NA
ATOM     16  C   UNL     1      -5.070 -11.092  15.650  0.00  0.00    +0.245 A 
ATOM     18  C   UNL     1      -6.970 -10.397  16.081  0.00  0.00    +0.202 A 
ENDROOT
BRANCH  18  19
ATOM     19  C   UNL     1      -8.124  -9.544  16.092  0.00  0.00    +0.022 A 
ATOM     22  C   UNL     1      -8.512  -8.910  17.272  0.00  0.00    +0.012 A 
ATOM     23  C   UNL     1      -8.858  -9.349  14.922  0.00  0.00    +0.012 A 
ATOM     24  C   UNL     1      -9.633  -8.081  17.282  0.00  0.00    +0.013 A 
ATOM     25  C   UNL     1      -9.980  -8.521  14.932  0.00  0.00    +0.013 A 
ATOM     26  C   UNL     1     -10.367  -7.886  16.112  0.00  0.00    +0.055 A 
BRANCH  26  27
ATOM      1  F   UNL     1     -12.649  -7.553  16.747  0.00  0.00    -0.166 F 
ATOM      2  F   UNL     1     -11.992  -6.675  14.869  0.00  0.00    -0.166 F 
ATOM      3  F   UNL     1     -11.360  -5.808  16.760  0.00  0.00    -0.166 F 
ATOM     27  C   UNL     1     -11.566  -6.999  16.124  0.00  0.00    +0.417 C 
ENDBRANCH  26  27
ENDBRANCH  18  19
BRANCH  16  11
ATOM      6  N   UNL     1      -3.248 -10.517  14.055  0.00  0.00    -0.282 NA
ATOM     11  C   UNL     1      -3.656 -11.373  15.187  0.00  0.00    +0.149 C 
ATOM     12  C   UNL     1      -2.607 -11.105  16.281  0.00  0.00    +0.061 C 
ATOM     13  C   UNL     1      -1.626 -10.121  15.656  0.00  0.00    +0.130 C 
ATOM     14  C   UNL     1      -1.801 -10.346  14.166  0.00  0.00    +0.117 C 
BRANCH  13   4
ATOM      4  O   UNL     1      -0.304 -10.394  16.076  0.00  0.00    -0.390 OA
ATOM     28  H   UNL     1      -0.357 -11.028  16.812  0.00  0.00    +0.210 HD
ENDBRANCH  13   4
BRANCH   6  15
ATOM     15  C   UNL     1      -3.639 -11.054  12.758  0.00  0.00    +0.159 C 
BRANCH  15  17
ATOM      8  N   UNL     1      -5.714  -9.711  12.341  0.00  0.00    -0.347 N 
ATOM      9  N   UNL     1      -4.077  -9.442  10.866  0.00  0.00    -0.239 NA
ATOM     17  C   UNL     1      -4.449 -10.064  11.962  0.00  0.00    +0.121 A 
ATOM     20  C   UNL     1      -6.178  -8.808  11.428  0.00  0.00    +0.104 A 
ATOM     21  C   UNL     1      -5.150  -8.658  10.527  0.00  0.00    +0.130 A 
ATOM     29  H   UNL     1      -6.217 -10.058  13.148  0.00  0.00    +0.167 HD
ENDBRANCH  15  17
ENDBRANCH   6  15
ENDBRANCH  16  11
TORSDOF 6
ENDMDL
MODEL 8
REMARK VINA RESULT:      -6.3     31.222     32.828
REMARK  Name = 26743644
REMARK  6 active torsions:
REMARK  status: ('A' for Active; 'I' for Inactive)
REMARK    1  A    between atoms: O_4  and  C_13
REMARK    2  A    between atoms: N_6  and  C_15
REMARK    3  A    between atoms: C_11  and  C_16
REMARK    4  A    between atoms: C_15  and  C_17
REMARK    5  A    between atoms: C_18  and  C_19
REMARK    6  A    between atoms: C_26  and  C_27
REMARK                            x       y       z     vdW  Elec       q    Type
REMARK                         _______ _______ _______ _____ _____    ______ ____
ROOT
ATOM      5  O   UNL     1     -14.020   6.242  34.814  0.00  0.00    -0.336 OA
ATOM      7  N   UNL     1     -13.686   5.970  32.616  0.00  0.00    -0.190 NA
ATOM     10  N   UNL     1     -14.217   4.880  34.556  0.00  0.00    -0.056 NA
ATOM     16  C   UNL     1     -13.711   6.811  33.619  0.00  0.00    +0.245 A 
ATOM     18  C   UNL     1     -14.002   4.798  33.239  0.00  0.00    +0.202 A 
ENDROOT
BRANCH  18  19
ATOM     19  C   UNL     1     -14.098   3.562  32.517  0.00  0.00    +0.022 A 
ATOM     22  C   UNL     1     -14.727   2.461  33.100  0.00  0.00    +0.012 A 
ATOM     23  C   UNL     1     -13.565   3.461  31.233  0.00  0.00    +0.012 A 
ATOM     24  C   UNL     1     -14.821   1.260  32.398  0.00  0.00    +0.013 A 
ATOM     25  C   UNL     1     -13.658   2.259  30.531  0.00  0.00    +0.013 A 
ATOM     26  C   UNL     1     -14.287   1.159  31.114  0.00  0.00    +0.055 A 
BRANCH  26  27
ATOM      1  F   UNL     1     -15.208  -1.043  30.959  0.00  0.00    -0.166 F 
ATOM      2  F   UNL     1     -13.183  -0.750  30.225  0.00  0.00    -0.166 F 
ATOM      3  F   UNL     1     -14.875   0.017  29.096  0.00  0.00    -0.166 F 
ATOM     27  C   UNL     1     -14.388  -0.126  30.364  0.00  0.00    +0.417 C 
ENDBRANCH  26  27
ENDBRANCH  18  19
BRANCH  16  11
ATOM      6  N   UNL     1     -12.261   8.664  34.432  0.00  0.00    -0.282 NA
ATOM     11  C   UNL     1     -13.447   8.302  33.629  0.00  0.00    +0.149 C 
ATOM     12  C   UNL     1     -13.160   8.865  32.226  0.00  0.00    +0.061 C 
ATOM     13  C   UNL     1     -11.812   9.565  32.349  0.00  0.00    +0.130 C 
ATOM     14  C   UNL     1     -11.708   9.876  33.831  0.00  0.00    +0.117 C 
BRANCH  13   4
ATOM      4  O   UNL     1     -11.782  10.740  31.563  0.00  0.00    -0.390 OA
ATOM     28  H   UNL     1     -12.207  10.533  30.713  0.00  0.00    +0.210 HD
ENDBRANCH  13   4
BRANCH   6  15
ATOM     15  C   UNL     1     -12.556   8.839  35.848  0.00  0.00    +0.159 C 
BRANCH  15  17
ATOM      8  N   UNL     1     -11.478   7.156  37.360  0.00  0.00    -0.347 N 
ATOM      9  N   UNL     1     -10.301   8.998  36.970  0.00  0.00    -0.239 NA
ATOM     17  C   UNL     1     -11.424   8.363  36.720  0.00  0.00    +0.121 A 
ATOM     20  C   UNL     1     -10.316   7.014  38.064  0.00  0.00    +0.104 A 
ATOM     21  C   UNL     1      -9.606   8.163  37.808  0.00  0.00    +0.130 A 
ATOM     29  H   UNL     1     -12.239   6.491  37.323  0.00  0.00    +0.167 HD
ENDBRANCH  15  17
ENDBRANCH   6  15
ENDBRANCH  16  11
TORSDOF 6
ENDMDL
MODEL 9
REMARK VINA RESULT:      -6.3     26.989     29.000
REMARK  Name = 26743644
REMARK  6 active torsions:
REMARK  status: ('A' for Active; 'I' for Inactive)
REMARK    1  A    between atoms: O_4  and  C_13
REMARK    2  A    between atoms: N_6  and  C_15
REMARK    3  A    between atoms: C_11  and  C_16
REMARK    4  A    between atoms: C_15  and  C_17
REMARK    5  A    between atoms: C_18  and  C_19
REMARK    6  A    between atoms: C_26  and  C_27
REMARK                            x       y       z     vdW  Elec       q    Type
REMARK                         _______ _______ _______ _____ _____    ______ ____
ROOT
ATOM      5  O   UNL     1      -2.522 -10.356  11.103  0.00  0.00    -0.336 OA
ATOM      7  N   UNL     1      -4.443 -10.008  12.203  0.00  0.00    -0.190 NA
ATOM     10  N   UNL     1      -2.293 -10.761  12.424  0.00  0.00    -0.056 NA
ATOM     16  C   UNL     1      -3.811  -9.926  11.059  0.00  0.00    +0.245 A 
ATOM     18  C   UNL     1      -3.471 -10.526  13.010  0.00  0.00    +0.202 A 
ENDROOT
BRANCH  18  19
ATOM     19  C   UNL     1      -3.709 -10.794  14.399  0.00  0.00    +0.022 A 
ATOM     22  C   UNL     1      -2.651 -10.755  15.307  0.00  0.00    +0.012 A 
ATOM     23  C   UNL     1      -4.997 -11.093  14.841  0.00  0.00    +0.012 A 
ATOM     24  C   UNL     1      -2.881 -11.015  16.658  0.00  0.00    +0.013 A 
ATOM     25  C   UNL     1      -5.228 -11.355  16.192  0.00  0.00    +0.013 A 
ATOM     26  C   UNL     1      -4.170 -11.315  17.100  0.00  0.00    +0.055 A 
BRANCH  26  27
ATOM      1  F   UNL     1      -3.272 -11.786  19.266  0.00  0.00    -0.166 F 
ATOM      2  F   UNL     1      -5.166 -12.715  18.743  0.00  0.00    -0.166 F 
ATOM      3  F   UNL     1      -5.080 -10.589  19.190  0.00  0.00    -0.166 F 
ATOM     27  C   UNL     1      -4.416 -11.593  18.544  0.00  0.00    +0.417 C 
ENDBRANCH  26  27
ENDBRANCH  18  19
BRANCH  16  11
ATOM      6  N   UNL     1      -5.212 -10.394   9.055  0.00  0.00    -0.282 NA
ATOM     11  C   UNL     1      -4.312  -9.430   9.719  0.00  0.00    +0.149 C 
ATOM     12  C   UNL     1      -5.138  -8.136   9.834  0.00  0.00    +0.061 C 
ATOM     13  C   UNL     1      -6.470  -8.456   9.168  0.00  0.00    +0.130 C 
ATOM     14  C   UNL     1      -6.133  -9.607   8.238  0.00  0.00    +0.117 C 
BRANCH  13   4
ATOM      4  O   UNL     1      -6.960  -7.335   8.460  0.00  0.00    -0.390 OA
ATOM     28  H   UNL     1      -6.193  -6.872   8.081  0.00  0.00    +0.210 HD
ENDBRANCH  13   4
BRANCH   6  15
ATOM     15  C   UNL     1      -4.503 -11.396   8.271  0.00  0.00    +0.159 C 
BRANCH  15  17
ATOM      8  N   UNL     1      -3.643 -13.117   9.877  0.00  0.00    -0.347 N 
ATOM      9  N   UNL     1      -5.413 -13.716   8.676  0.00  0.00    -0.239 NA
ATOM     17  C   UNL     1      -4.550 -12.754   8.921  0.00  0.00    +0.121 A 
ATOM     20  C   UNL     1      -3.946 -14.391  10.266  0.00  0.00    +0.104 A 
ATOM     21  C   UNL     1      -5.041 -14.739   9.511  0.00  0.00    +0.130 A 
ATOM     29  H   UNL     1      -2.884 -12.549  10.230  0.00  0.00    +0.167 HD
ENDBRANCH  15  17
ENDBRANCH   6  15
ENDBRANCH  16  11
TORSDOF 6
ENDMDL
MODEL 10
REMARK VINA RESULT:      -6.2      5.234      9.189
REMARK  Name = 26743644
REMARK  6 active torsions:
REMARK  status: ('A' for Active; 'I' for Inactive)
REMARK    1  A    between atoms: O_4  and  C_13
REMARK    2  A    between atoms: N_6  and  C_15
REMARK    3  A    between atoms: C_11  and  C_16
REMARK    4  A    between atoms: C_15  and  C_17
REMARK    5  A    between atoms: C_18  and  C_19
REMARK    6  A    between atoms: C_26  and  C_27
REMARK                            x       y       z     vdW  Elec       q    Type
REMARK                         _______ _______ _______ _____ _____    ______ ____
ROOT
ATOM      5  O   UNL     1      19.416   8.194  21.245  0.00  0.00    -0.336 OA
ATOM      7  N   UNL     1      18.138   6.357  21.146  0.00  0.00    -0.190 NA
ATOM     10  N   UNL     1      18.089   8.642  21.246  0.00  0.00    -0.056 NA
ATOM     16  C   UNL     1      19.355   6.837  21.184  0.00  0.00    +0.245 A 
ATOM     18  C   UNL     1      17.396   7.501  21.186  0.00  0.00    +0.202 A 
ENDROOT
BRANCH  18  19
ATOM     19  C   UNL     1      15.962   7.471  21.163  0.00  0.00    +0.022 A 
ATOM     22  C   UNL     1      15.233   8.298  22.018  0.00  0.00    +0.012 A 
ATOM     23  C   UNL     1      15.297   6.616  20.285  0.00  0.00    +0.012 A 
ATOM     24  C   UNL     1      13.839   8.270  21.994  0.00  0.00    +0.013 A 
ATOM     25  C   UNL     1      13.902   6.586  20.262  0.00  0.00    +0.013 A 
ATOM     26  C   UNL     1      13.173   7.414  21.116  0.00  0.00    +0.055 A 
BRANCH  26  27
ATOM      1  F   UNL     1      11.106   7.956  22.191  0.00  0.00    -0.166 F 
ATOM      2  F   UNL     1      11.183   6.115  21.038  0.00  0.00    -0.166 F 
ATOM      3  F   UNL     1      11.139   8.037  20.023  0.00  0.00    -0.166 F 
ATOM     27  C   UNL     1      11.683   7.383  21.092  0.00  0.00    +0.417 C 
ENDBRANCH  26  27
ENDBRANCH  18  19
BRANCH  16  11
ATOM      6  N   UNL     1      21.073   5.618  22.511  0.00  0.00    -0.282 NA
ATOM     11  C   UNL     1      20.679   6.102  21.172  0.00  0.00    +0.149 C 
ATOM     12  C   UNL     1      20.652   4.842  20.289  0.00  0.00    +0.061 C 
ATOM     13  C   UNL     1      21.088   3.707  21.208  0.00  0.00    +0.130 C 
ATOM     14  C   UNL     1      21.873   4.414  22.296  0.00  0.00    +0.117 C 
BRANCH  13   4
ATOM      4  O   UNL     1      21.886   2.773  20.508  0.00  0.00    -0.390 OA
ATOM     28  H   UNL     1      21.643   1.886  20.826  0.00  0.00    +0.210 HD
ENDBRANCH  13   4
BRANCH   6  15
ATOM     15  C   UNL     1      21.785   6.617  23.297  0.00  0.00    +0.159 C 
BRANCH  15  17
ATOM      8  N   UNL     1      22.359   6.005  25.659  0.00  0.00    -0.347 N 
ATOM      9  N   UNL     1      20.337   6.871  25.349  0.00  0.00    -0.239 NA
ATOM     17  C   UNL     1      21.458   6.512  24.764  0.00  0.00    +0.121 A 
ATOM     20  C   UNL     1      21.773   6.042  26.893  0.00  0.00    +0.104 A 
ATOM     21  C   UNL     1      20.527   6.580  26.676  0.00  0.00    +0.130 A 
ATOM     29  H   UNL     1      23.286   5.663  25.448  0.00  0.00    +0.167 HD
ENDBRANCH  15  17
ENDBRANCH   6  15
ENDBRANCH  16  11
TORSDOF 6
ENDMDL
