MODEL 1
REMARK VINA RESULT:      -7.5      0.000      0.000
REMARK  Name = 45784069
REMARK  4 active torsions:
REMARK  status: ('A' for Active; 'I' for Inactive)
REMARK    1  A    between atoms: O_2  and  C_17
REMARK    2  A    between atoms: O_2  and  C_25
REMARK    3  A    between atoms: N_6  and  C_19
REMARK    4  A    between atoms: C_7  and  C_11
REMARK                            x       y       z     vdW  Elec       q    Type
REMARK                         _______ _______ _______ _____ _____    ______ ____
ROOT
ATOM      1  O   UNL     1      12.682  11.533  20.238  0.00  0.00    -0.252 OA
ATOM      3  N   UNL     1      12.706   9.239  20.185  0.00  0.00    -0.285 N 
ATOM      6  N   UNL     1      11.735  10.340  22.005  0.00  0.00    -0.269 N 
ATOM      7  C   UNL     1      13.875   7.711  18.785  0.00  0.00    +0.074 C 
ATOM      8  C   UNL     1      12.783   6.960  19.561  0.00  0.00    +0.032 C 
ATOM      9  C   UNL     1      13.404   9.165  18.905  0.00  0.00    +0.120 C 
ATOM     10  C   UNL     1      12.424   7.902  20.703  0.00  0.00    +0.110 C 
ATOM     12  C   UNL     1      12.387  10.465  20.779  0.00  0.00    +0.306 C 
ATOM     27  H   UNL     1      11.571   9.403  22.361  0.00  0.00    +0.156 HD
ENDROOT
BRANCH   7  11
ATOM      4  N   UNL     1      15.950   6.291  18.908  0.00  0.00    -0.341 N 
ATOM      5  N   UNL     1      15.937   8.097  20.206  0.00  0.00    -0.232 NA
ATOM     11  C   UNL     1      15.259   7.396  19.324  0.00  0.00    +0.113 A 
ATOM     13  C   UNL     1      17.153   6.279  19.566  0.00  0.00    +0.070 A 
ATOM     14  C   UNL     1      17.122   7.414  20.370  0.00  0.00    +0.089 A 
ATOM     15  C   UNL     1      18.234   5.396  19.528  0.00  0.00    +0.073 A 
ATOM     16  C   UNL     1      18.224   7.704  21.191  0.00  0.00    +0.033 A 
ATOM     17  C   UNL     1      19.323   5.700  20.351  0.00  0.00    +0.122 A 
ATOM     18  C   UNL     1      19.320   6.833  21.169  0.00  0.00    +0.048 A 
ATOM     26  H   UNL     1      15.631   5.605  18.238  0.00  0.00    +0.167 HD
BRANCH  17   2
ATOM      2  O   UNL     1      20.408   4.874  20.355  0.00  0.00    -0.495 OA
ATOM     25  C   UNL     1      21.691   5.491  20.411  0.00  0.00    +0.277 C 
ENDBRANCH  17   2
ENDBRANCH   7  11
BRANCH   6  19
ATOM     19  C   UNL     1      11.279  11.376  22.858  0.00  0.00    +0.035 A 
ATOM     20  C   UNL     1      11.268  11.188  24.239  0.00  0.00    +0.023 A 
ATOM     21  C   UNL     1      10.840  12.584  22.315  0.00  0.00    +0.023 A 
ATOM     22  C   UNL     1      10.820  12.208  25.079  0.00  0.00    +0.002 A 
ATOM     23  C   UNL     1      10.391  13.603  23.154  0.00  0.00    +0.002 A 
ATOM     24  C   UNL     1      10.381  13.415  24.535  0.00  0.00    +0.000 A 
ENDBRANCH   6  19
TORSDOF 3
ENDMDL
MODEL 2
REMARK VINA RESULT:      -7.4      1.896      8.569
REMARK  Name = 45784069
REMARK  4 active torsions:
REMARK  status: ('A' for Active; 'I' for Inactive)
REMARK    1  A    between atoms: O_2  and  C_17
REMARK    2  A    between atoms: O_2  and  C_25
REMARK    3  A    between atoms: N_6  and  C_19
REMARK    4  A    between atoms: C_7  and  C_11
REMARK                            x       y       z     vdW  Elec       q    Type
REMARK                         _______ _______ _______ _____ _____    ______ ____
ROOT
ATOM      1  O   UNL     1      15.557   5.957  21.399  0.00  0.00    -0.252 OA
ATOM      3  N   UNL     1      14.645   7.498  19.962  0.00  0.00    -0.285 N 
ATOM      6  N   UNL     1      16.967   7.408  20.236  0.00  0.00    -0.269 N 
ATOM      7  C   UNL     1      12.399   8.213  19.642  0.00  0.00    +0.074 C 
ATOM      8  C   UNL     1      13.264   8.713  18.477  0.00  0.00    +0.032 C 
ATOM      9  C   UNL     1      13.268   7.091  20.223  0.00  0.00    +0.120 C 
ATOM     10  C   UNL     1      14.692   8.593  18.997  0.00  0.00    +0.110 C 
ATOM     12  C   UNL     1      15.727   6.877  20.597  0.00  0.00    +0.306 C 
ATOM     27  H   UNL     1      16.976   8.186  19.584  0.00  0.00    +0.156 HD
ENDROOT
BRANCH   7  11
ATOM      4  N   UNL     1      11.658   9.097  21.880  0.00  0.00    -0.341 N 
ATOM      5  N   UNL     1      12.005  10.627  20.304  0.00  0.00    -0.232 NA
ATOM     11  C   UNL     1      12.025   9.343  20.585  0.00  0.00    +0.113 A 
ATOM     13  C   UNL     1      11.383  10.302  22.472  0.00  0.00    +0.070 A 
ATOM     14  C   UNL     1      11.606  11.241  21.470  0.00  0.00    +0.089 A 
ATOM     15  C   UNL     1      10.969  10.641  23.761  0.00  0.00    +0.073 A 
ATOM     16  C   UNL     1      11.411  12.604  21.751  0.00  0.00    +0.033 A 
ATOM     17  C   UNL     1      10.779  12.002  24.024  0.00  0.00    +0.122 A 
ATOM     18  C   UNL     1      10.996  12.967  23.038  0.00  0.00    +0.048 A 
ATOM     26  H   UNL     1      11.598   8.189  22.321  0.00  0.00    +0.167 HD
BRANCH  17   2
ATOM      2  O   UNL     1      10.376  12.391  25.267  0.00  0.00    -0.495 OA
ATOM     25  C   UNL     1      10.525  13.771  25.592  0.00  0.00    +0.277 C 
ENDBRANCH  17   2
ENDBRANCH   7  11
BRANCH   6  19
ATOM     19  C   UNL     1      18.248   7.011  20.691  0.00  0.00    +0.035 A 
ATOM     20  C   UNL     1      18.862   5.882  20.151  0.00  0.00    +0.023 A 
ATOM     21  C   UNL     1      18.896   7.751  21.680  0.00  0.00    +0.023 A 
ATOM     22  C   UNL     1      20.124   5.492  20.598  0.00  0.00    +0.002 A 
ATOM     23  C   UNL     1      20.158   7.361  22.128  0.00  0.00    +0.002 A 
ATOM     24  C   UNL     1      20.772   6.231  21.588  0.00  0.00    +0.000 A 
ENDBRANCH   6  19
TORSDOF 3
ENDMDL
MODEL 3
REMARK VINA RESULT:      -7.3      3.728      6.040
REMARK  Name = 45784069
REMARK  4 active torsions:
REMARK  status: ('A' for Active; 'I' for Inactive)
REMARK    1  A    between atoms: O_2  and  C_17
REMARK    2  A    between atoms: O_2  and  C_25
REMARK    3  A    between atoms: N_6  and  C_19
REMARK    4  A    between atoms: C_7  and  C_11
REMARK                            x       y       z     vdW  Elec       q    Type
REMARK                         _______ _______ _______ _____ _____    ______ ____
ROOT
ATOM      1  O   UNL     1      13.885   8.551  15.052  0.00  0.00    -0.252 OA
ATOM      3  N   UNL     1      13.847   9.077  17.286  0.00  0.00    -0.285 N 
ATOM      6  N   UNL     1      14.229  10.763  15.709  0.00  0.00    -0.269 N 
ATOM      7  C   UNL     1      13.878   7.701  19.226  0.00  0.00    +0.074 C 
ATOM      8  C   UNL     1      13.497   9.135  19.623  0.00  0.00    +0.032 C 
ATOM      9  C   UNL     1      13.598   7.706  17.718  0.00  0.00    +0.120 C 
ATOM     10  C   UNL     1      13.935   9.978  18.432  0.00  0.00    +0.110 C 
ATOM     12  C   UNL     1      13.979   9.408  15.932  0.00  0.00    +0.306 C 
ATOM     27  H   UNL     1      14.312  11.368  16.520  0.00  0.00    +0.156 HD
ENDROOT
BRANCH   7  11
ATOM      4  N   UNL     1      15.955   6.281  19.137  0.00  0.00    -0.341 N 
ATOM      5  N   UNL     1      16.030   8.015  20.527  0.00  0.00    -0.232 NA
ATOM     11  C   UNL     1      15.295   7.361  19.656  0.00  0.00    +0.113 A 
ATOM     13  C   UNL     1      17.198   6.236  19.712  0.00  0.00    +0.070 A 
ATOM     14  C   UNL     1      17.222   7.327  20.576  0.00  0.00    +0.089 A 
ATOM     15  C   UNL     1      18.273   5.359  19.557  0.00  0.00    +0.073 A 
ATOM     16  C   UNL     1      18.377   7.575  21.337  0.00  0.00    +0.033 A 
ATOM     17  C   UNL     1      19.414   5.620  20.322  0.00  0.00    +0.122 A 
ATOM     18  C   UNL     1      19.467   6.708  21.197  0.00  0.00    +0.048 A 
ATOM     26  H   UNL     1      15.591   5.631  18.453  0.00  0.00    +0.167 HD
BRANCH  17   2
ATOM      2  O   UNL     1      20.495   4.797  20.210  0.00  0.00    -0.495 OA
ATOM     25  C   UNL     1      21.780   5.388  20.388  0.00  0.00    +0.277 C 
ENDBRANCH  17   2
ENDBRANCH   7  11
BRANCH   6  19
ATOM     19  C   UNL     1      14.411  11.421  14.468  0.00  0.00    +0.035 A 
ATOM     20  C   UNL     1      13.360  12.137  13.897  0.00  0.00    +0.023 A 
ATOM     21  C   UNL     1      15.643  11.352  13.817  0.00  0.00    +0.023 A 
ATOM     22  C   UNL     1      13.541  12.785  12.675  0.00  0.00    +0.002 A 
ATOM     23  C   UNL     1      15.824  11.999  12.596  0.00  0.00    +0.002 A 
ATOM     24  C   UNL     1      14.773  12.716  12.024  0.00  0.00    +0.000 A 
ENDBRANCH   6  19
TORSDOF 3
ENDMDL
MODEL 4
REMARK VINA RESULT:      -7.1     27.221     29.410
REMARK  Name = 45784069
REMARK  4 active torsions:
REMARK  status: ('A' for Active; 'I' for Inactive)
REMARK    1  A    between atoms: O_2  and  C_17
REMARK    2  A    between atoms: O_2  and  C_25
REMARK    3  A    between atoms: N_6  and  C_19
REMARK    4  A    between atoms: C_7  and  C_11
REMARK                            x       y       z     vdW  Elec       q    Type
REMARK                         _______ _______ _______ _____ _____    ______ ____
ROOT
ATOM      1  O   UNL     1      -3.114  -9.144  10.141  0.00  0.00    -0.252 OA
ATOM      3  N   UNL     1      -2.782 -10.993  11.460  0.00  0.00    -0.285 N 
ATOM      6  N   UNL     1      -4.139 -11.158   9.561  0.00  0.00    -0.269 N 
ATOM      7  C   UNL     1      -1.832 -11.229  13.628  0.00  0.00    +0.074 C 
ATOM      8  C   UNL     1      -1.964 -12.613  12.976  0.00  0.00    +0.032 C 
ATOM      9  C   UNL     1      -1.925 -10.297  12.414  0.00  0.00    +0.120 C 
ATOM     10  C   UNL     1      -2.954 -12.394  11.839  0.00  0.00    +0.110 C 
ATOM     12  C   UNL     1      -3.335 -10.338  10.354  0.00  0.00    +0.306 C 
ATOM     27  H   UNL     1      -4.267 -12.121   9.855  0.00  0.00    +0.156 HD
ENDROOT
BRANCH   7  11
ATOM      4  N   UNL     1      -4.001 -10.297  14.503  0.00  0.00    -0.341 N 
ATOM      5  N   UNL     1      -2.811 -11.495  15.950  0.00  0.00    -0.232 NA
ATOM     11  C   UNL     1      -2.865 -11.027  14.723  0.00  0.00    +0.113 A 
ATOM     13  C   UNL     1      -4.727 -10.295  15.665  0.00  0.00    +0.070 A 
ATOM     14  C   UNL     1      -3.965 -11.048  16.554  0.00  0.00    +0.089 A 
ATOM     15  C   UNL     1      -5.950  -9.714  16.007  0.00  0.00    +0.073 A 
ATOM     16  C   UNL     1      -4.433 -11.245  17.863  0.00  0.00    +0.033 A 
ATOM     17  C   UNL     1      -6.401  -9.920  17.315  0.00  0.00    +0.122 A 
ATOM     18  C   UNL     1      -5.658 -10.672  18.228  0.00  0.00    +0.048 A 
ATOM     26  H   UNL     1      -4.259  -9.839  13.639  0.00  0.00    +0.167 HD
BRANCH  17   2
ATOM      2  O   UNL     1      -7.590  -9.377  17.704  0.00  0.00    -0.495 OA
ATOM     25  C   UNL     1      -8.585  -9.211  16.697  0.00  0.00    +0.277 C 
ENDBRANCH  17   2
ENDBRANCH   7  11
BRANCH   6  19
ATOM     19  C   UNL     1      -4.840 -10.810   8.381  0.00  0.00    +0.035 A 
ATOM     20  C   UNL     1      -4.516 -11.422   7.171  0.00  0.00    +0.023 A 
ATOM     21  C   UNL     1      -5.855  -9.854   8.429  0.00  0.00    +0.023 A 
ATOM     22  C   UNL     1      -5.207 -11.080   6.008  0.00  0.00    +0.002 A 
ATOM     23  C   UNL     1      -6.545  -9.511   7.267  0.00  0.00    +0.002 A 
ATOM     24  C   UNL     1      -6.221 -10.124   6.057  0.00  0.00    +0.000 A 
ENDBRANCH   6  19
TORSDOF 3
ENDMDL
MODEL 5
REMARK VINA RESULT:      -7.0     26.993     29.044
REMARK  Name = 45784069
REMARK  4 active torsions:
REMARK  status: ('A' for Active; 'I' for Inactive)
REMARK    1  A    between atoms: O_2  and  C_17
REMARK    2  A    between atoms: O_2  and  C_25
REMARK    3  A    between atoms: N_6  and  C_19
REMARK    4  A    between atoms: C_7  and  C_11
REMARK                            x       y       z     vdW  Elec       q    Type
REMARK                         _______ _______ _______ _____ _____    ______ ____
ROOT
ATOM      1  O   UNL     1      -9.792 -10.971  16.149  0.00  0.00    -0.252 OA
ATOM      3  N   UNL     1      -8.077 -10.739  17.657  0.00  0.00    -0.285 N 
ATOM      6  N   UNL     1      -9.592  -8.982  17.353  0.00  0.00    -0.269 N 
ATOM      7  C   UNL     1      -6.125 -12.046  18.032  0.00  0.00    +0.074 C 
ATOM      8  C   UNL     1      -6.324 -11.077  19.207  0.00  0.00    +0.032 C 
ATOM      9  C   UNL     1      -7.521 -12.063  17.396  0.00  0.00    +0.120 C 
ATOM     10  C   UNL     1      -7.291 -10.032  18.665  0.00  0.00    +0.110 C 
ATOM     12  C   UNL     1      -9.214 -10.274  16.985  0.00  0.00    +0.306 C 
ATOM     27  H   UNL     1      -9.018  -8.498  18.036  0.00  0.00    +0.156 HD
ENDROOT
BRANCH   7  11
ATOM      4  N   UNL     1      -5.137 -11.473  15.789  0.00  0.00    -0.341 N 
ATOM      5  N   UNL     1      -3.748 -11.334  17.520  0.00  0.00    -0.232 NA
ATOM     11  C   UNL     1      -4.975 -11.613  17.140  0.00  0.00    +0.113 A 
ATOM     13  C   UNL     1      -3.935 -11.077  15.263  0.00  0.00    +0.070 A 
ATOM     14  C   UNL     1      -3.084 -10.997  16.362  0.00  0.00    +0.089 A 
ATOM     15  C   UNL     1      -3.530 -10.791  13.958  0.00  0.00    +0.073 A 
ATOM     16  C   UNL     1      -1.747 -10.610  16.168  0.00  0.00    +0.033 A 
ATOM     17  C   UNL     1      -2.196 -10.407  13.783  0.00  0.00    +0.122 A 
ATOM     18  C   UNL     1      -1.319 -10.318  14.867  0.00  0.00    +0.048 A 
ATOM     26  H   UNL     1      -5.990 -11.635  15.269  0.00  0.00    +0.167 HD
BRANCH  17   2
ATOM      2  O   UNL     1      -1.745 -10.115  12.530  0.00  0.00    -0.495 OA
ATOM     25  C   UNL     1      -2.630 -10.381  11.446  0.00  0.00    +0.277 C 
ENDBRANCH  17   2
ENDBRANCH   7  11
BRANCH   6  19
ATOM     19  C   UNL     1     -10.686  -8.225  16.867  0.00  0.00    +0.035 A 
ATOM     20  C   UNL     1     -10.468  -6.969  16.301  0.00  0.00    +0.023 A 
ATOM     21  C   UNL     1     -11.981  -8.735  16.956  0.00  0.00    +0.023 A 
ATOM     22  C   UNL     1     -11.546  -6.224  15.822  0.00  0.00    +0.002 A 
ATOM     23  C   UNL     1     -13.058  -7.990  16.478  0.00  0.00    +0.002 A 
ATOM     24  C   UNL     1     -12.841  -6.734  15.912  0.00  0.00    +0.000 A 
ENDBRANCH   6  19
TORSDOF 3
ENDMDL
MODEL 6
REMARK VINA RESULT:      -7.0     28.535     31.689
REMARK  Name = 45784069
REMARK  4 active torsions:
REMARK  status: ('A' for Active; 'I' for Inactive)
REMARK    1  A    between atoms: O_2  and  C_17
REMARK    2  A    between atoms: O_2  and  C_25
REMARK    3  A    between atoms: N_6  and  C_19
REMARK    4  A    between atoms: C_7  and  C_11
REMARK                            x       y       z     vdW  Elec       q    Type
REMARK                         _______ _______ _______ _____ _____    ______ ____
ROOT
ATOM      1  O   UNL     1     -15.703   3.177  23.099  0.00  0.00    -0.252 OA
ATOM      3  N   UNL     1     -16.798   3.840  25.005  0.00  0.00    -0.285 N 
ATOM      6  N   UNL     1     -15.433   5.363  23.870  0.00  0.00    -0.269 N 
ATOM      7  C   UNL     1     -17.956   2.594  26.668  0.00  0.00    +0.074 C 
ATOM      8  C   UNL     1     -18.279   4.086  26.832  0.00  0.00    +0.032 C 
ATOM      9  C   UNL     1     -17.425   2.542  25.230  0.00  0.00    +0.120 C 
ATOM     10  C   UNL     1     -17.180   4.791  26.046  0.00  0.00    +0.110 C 
ATOM     12  C   UNL     1     -15.950   4.068  23.915  0.00  0.00    +0.306 C 
ATOM     27  H   UNL     1     -15.689   6.001  24.617  0.00  0.00    +0.156 HD
ENDROOT
BRANCH   7  11
ATOM      4  N   UNL     1     -16.734   2.873  28.850  0.00  0.00    -0.341 N 
ATOM      5  N   UNL     1     -16.401   0.943  27.797  0.00  0.00    -0.232 NA
ATOM     11  C   UNL     1     -17.021   2.101  27.758  0.00  0.00    +0.113 A 
ATOM     13  C   UNL     1     -15.871   2.165  29.647  0.00  0.00    +0.070 A 
ATOM     14  C   UNL     1     -15.678   0.964  28.969  0.00  0.00    +0.089 A 
ATOM     15  C   UNL     1     -15.260   2.463  30.866  0.00  0.00    +0.073 A 
ATOM     16  C   UNL     1     -14.830  -0.008  29.524  0.00  0.00    +0.033 A 
ATOM     17  C   UNL     1     -14.419   1.483  31.405  0.00  0.00    +0.122 A 
ATOM     18  C   UNL     1     -14.207   0.269  30.747  0.00  0.00    +0.048 A 
ATOM     26  H   UNL     1     -17.091   3.800  29.037  0.00  0.00    +0.167 HD
BRANCH  17   2
ATOM      2  O   UNL     1     -13.796   1.720  32.594  0.00  0.00    -0.495 OA
ATOM     25  C   UNL     1     -14.604   1.678  33.767  0.00  0.00    +0.277 C 
ENDBRANCH  17   2
ENDBRANCH   7  11
BRANCH   6  19
ATOM     19  C   UNL     1     -14.552   5.915  22.908  0.00  0.00    +0.035 A 
ATOM     20  C   UNL     1     -14.826   7.160  22.343  0.00  0.00    +0.023 A 
ATOM     21  C   UNL     1     -13.409   5.212  22.524  0.00  0.00    +0.023 A 
ATOM     22  C   UNL     1     -13.958   7.703  21.396  0.00  0.00    +0.002 A 
ATOM     23  C   UNL     1     -12.542   5.754  21.577  0.00  0.00    +0.002 A 
ATOM     24  C   UNL     1     -12.817   7.000  21.012  0.00  0.00    +0.000 A 
ENDBRANCH   6  19
TORSDOF 3
ENDMDL
MODEL 7
REMARK VINA RESULT:      -6.9     27.421     29.182
REMARK  Name = 45784069
REMARK  4 active torsions:
REMARK  status: ('A' for Active; 'I' for Inactive)
REMARK    1  A    between atoms: O_2  and  C_17
REMARK    2  A    between atoms: O_2  and  C_25
REMARK    3  A    between atoms: N_6  and  C_19
REMARK    4  A    between atoms: C_7  and  C_11
REMARK                            x       y       z     vdW  Elec       q    Type
REMARK                         _______ _______ _______ _____ _____    ______ ____
ROOT
ATOM      1  O   UNL     1      -7.375 -12.573  16.699  0.00  0.00    -0.252 OA
ATOM      3  N   UNL     1      -5.394 -11.417  16.601  0.00  0.00    -0.285 N 
ATOM      6  N   UNL     1      -7.216 -10.490  17.739  0.00  0.00    -0.269 N 
ATOM      7  C   UNL     1      -3.441 -11.753  15.285  0.00  0.00    +0.074 C 
ATOM      8  C   UNL     1      -3.133 -10.752  16.408  0.00  0.00    +0.032 C 
ATOM      9  C   UNL     1      -4.712 -12.434  15.808  0.00  0.00    +0.120 C 
ATOM     10  C   UNL     1      -4.507 -10.290  16.880  0.00  0.00    +0.110 C 
ATOM     12  C   UNL     1      -6.727 -11.568  17.000  0.00  0.00    +0.306 C 
ATOM     27  H   UNL     1      -6.592  -9.705  17.900  0.00  0.00    +0.156 HD
ENDROOT
BRANCH   7  11
ATOM      4  N   UNL     1      -4.737 -10.586  13.469  0.00  0.00    -0.341 N 
ATOM      5  N   UNL     1      -2.563 -10.847  13.087  0.00  0.00    -0.232 NA
ATOM     11  C   UNL     1      -3.543 -11.063  13.935  0.00  0.00    +0.113 A 
ATOM     13  C   UNL     1      -4.511 -10.024  12.240  0.00  0.00    +0.070 A 
ATOM     14  C   UNL     1      -3.147 -10.200  12.022  0.00  0.00    +0.089 A 
ATOM     15  C   UNL     1      -5.358  -9.397  11.324  0.00  0.00    +0.073 A 
ATOM     16  C   UNL     1      -2.577  -9.728  10.829  0.00  0.00    +0.033 A 
ATOM     17  C   UNL     1      -4.773  -8.933  10.141  0.00  0.00    +0.122 A 
ATOM     18  C   UNL     1      -3.407  -9.095   9.896  0.00  0.00    +0.048 A 
ATOM     26  H   UNL     1      -5.628 -10.639  13.945  0.00  0.00    +0.167 HD
BRANCH  17   2
ATOM      2  O   UNL     1      -5.553  -8.312   9.211  0.00  0.00    -0.495 OA
ATOM     25  C   UNL     1      -6.953  -8.570   9.264  0.00  0.00    +0.277 C 
ENDBRANCH  17   2
ENDBRANCH   7  11
BRANCH   6  19
ATOM     19  C   UNL     1      -8.511 -10.328  18.288  0.00  0.00    +0.035 A 
ATOM     20  C   UNL     1      -8.864 -11.006  19.455  0.00  0.00    +0.023 A 
ATOM     21  C   UNL     1      -9.434  -9.490  17.662  0.00  0.00    +0.023 A 
ATOM     22  C   UNL     1     -10.139 -10.845  19.997  0.00  0.00    +0.002 A 
ATOM     23  C   UNL     1     -10.709  -9.331  18.203  0.00  0.00    +0.002 A 
ATOM     24  C   UNL     1     -11.062 -10.008  19.370  0.00  0.00    +0.000 A 
ENDBRANCH   6  19
TORSDOF 3
ENDMDL
MODEL 8
REMARK VINA RESULT:      -6.8     27.195     29.282
REMARK  Name = 45784069
REMARK  4 active torsions:
REMARK  status: ('A' for Active; 'I' for Inactive)
REMARK    1  A    between atoms: O_2  and  C_17
REMARK    2  A    between atoms: O_2  and  C_25
REMARK    3  A    between atoms: N_6  and  C_19
REMARK    4  A    between atoms: C_7  and  C_11
REMARK                            x       y       z     vdW  Elec       q    Type
REMARK                         _______ _______ _______ _____ _____    ______ ____
ROOT
ATOM      1  O   UNL     1      -8.894 -12.709  18.140  0.00  0.00    -0.252 OA
ATOM      3  N   UNL     1      -6.863 -11.749  18.611  0.00  0.00    -0.285 N 
ATOM      6  N   UNL     1      -8.824 -10.515  18.930  0.00  0.00    -0.269 N 
ATOM      7  C   UNL     1      -4.643 -12.439  18.106  0.00  0.00    +0.074 C 
ATOM      8  C   UNL     1      -4.602 -11.311  19.147  0.00  0.00    +0.032 C 
ATOM      9  C   UNL     1      -6.092 -12.927  18.225  0.00  0.00    +0.120 C 
ATOM     10  C   UNL     1      -5.982 -10.671  19.054  0.00  0.00    +0.110 C 
ATOM     12  C   UNL     1      -8.260 -11.728  18.534  0.00  0.00    +0.306 C 
ATOM     27  H   UNL     1      -8.194  -9.769  19.209  0.00  0.00    +0.156 HD
ENDROOT
BRANCH   7  11
ATOM      4  N   UNL     1      -2.948 -11.433  16.540  0.00  0.00    -0.341 N 
ATOM      5  N   UNL     1      -4.906 -11.965  15.630  0.00  0.00    -0.232 NA
ATOM     11  C   UNL     1      -4.197 -11.953  16.738  0.00  0.00    +0.113 A 
ATOM     13  C   UNL     1      -2.844 -11.087  15.218  0.00  0.00    +0.070 A 
ATOM     14  C   UNL     1      -4.078 -11.428  14.671  0.00  0.00    +0.089 A 
ATOM     15  C   UNL     1      -1.807 -10.519  14.475  0.00  0.00    +0.073 A 
ATOM     16  C   UNL     1      -4.309 -11.199  13.304  0.00  0.00    +0.033 A 
ATOM     17  C   UNL     1      -2.055 -10.298  13.116  0.00  0.00    +0.122 A 
ATOM     18  C   UNL     1      -3.283 -10.631  12.539  0.00  0.00    +0.048 A 
ATOM     26  H   UNL     1      -2.229 -11.321  17.243  0.00  0.00    +0.167 HD
BRANCH  17   2
ATOM      2  O   UNL     1      -1.077  -9.747  12.341  0.00  0.00    -0.495 OA
ATOM     25  C   UNL     1      -1.476  -9.211  11.082  0.00  0.00    +0.277 C 
ENDBRANCH  17   2
ENDBRANCH   7  11
BRANCH   6  19
ATOM     19  C   UNL     1     -10.196 -10.166  18.970  0.00  0.00    +0.035 A 
ATOM     20  C   UNL     1     -10.808  -9.608  17.848  0.00  0.00    +0.023 A 
ATOM     21  C   UNL     1     -10.936 -10.379  20.134  0.00  0.00    +0.023 A 
ATOM     22  C   UNL     1     -12.159  -9.265  17.888  0.00  0.00    +0.002 A 
ATOM     23  C   UNL     1     -12.286 -10.036  20.174  0.00  0.00    +0.002 A 
ATOM     24  C   UNL     1     -12.898  -9.478  19.052  0.00  0.00    +0.000 A 
ENDBRANCH   6  19
TORSDOF 3
ENDMDL
MODEL 9
REMARK VINA RESULT:      -6.7     27.918     30.604
REMARK  Name = 45784069
REMARK  4 active torsions:
REMARK  status: ('A' for Active; 'I' for Inactive)
REMARK    1  A    between atoms: O_2  and  C_17
REMARK    2  A    between atoms: O_2  and  C_25
REMARK    3  A    between atoms: N_6  and  C_19
REMARK    4  A    between atoms: C_7  and  C_11
REMARK                            x       y       z     vdW  Elec       q    Type
REMARK                         _______ _______ _______ _____ _____    ______ ____
ROOT
ATOM      1  O   UNL     1      -4.021  -9.933  16.834  0.00  0.00    -0.252 OA
ATOM      3  N   UNL     1      -5.607 -11.408  17.596  0.00  0.00    -0.285 N 
ATOM      6  N   UNL     1      -4.499 -11.843  15.582  0.00  0.00    -0.269 N 
ATOM      7  C   UNL     1      -7.223 -11.221  19.331  0.00  0.00    +0.074 C 
ATOM      8  C   UNL     1      -7.114 -12.688  18.891  0.00  0.00    +0.032 C 
ATOM      9  C   UNL     1      -5.913 -10.632  18.793  0.00  0.00    +0.120 C 
ATOM     10  C   UNL     1      -6.423 -12.618  17.535  0.00  0.00    +0.110 C 
ATOM     12  C   UNL     1      -4.648 -10.982  16.670  0.00  0.00    +0.306 C 
ATOM     27  H   UNL     1      -5.094 -12.665  15.544  0.00  0.00    +0.156 HD
ENDROOT
BRANCH   7  11
ATOM      4  N   UNL     1      -8.494  -9.483  18.027  0.00  0.00    -0.341 N 
ATOM      5  N   UNL     1      -9.735 -10.978  19.108  0.00  0.00    -0.232 NA
ATOM     11  C   UNL     1      -8.511 -10.584  18.839  0.00  0.00    +0.113 A 
ATOM     13  C   UNL     1      -9.794  -9.145  17.756  0.00  0.00    +0.070 A 
ATOM     14  C   UNL     1     -10.551 -10.091  18.441  0.00  0.00    +0.089 A 
ATOM     15  C   UNL     1     -10.358  -8.121  16.992  0.00  0.00    +0.073 A 
ATOM     16  C   UNL     1     -11.952 -10.030  18.372  0.00  0.00    +0.033 A 
ATOM     17  C   UNL     1     -11.755  -8.075  16.934  0.00  0.00    +0.122 A 
ATOM     18  C   UNL     1     -12.539  -9.012  17.612  0.00  0.00    +0.048 A 
ATOM     26  H   UNL     1      -7.671  -9.002  17.690  0.00  0.00    +0.167 HD
BRANCH  17   2
ATOM      2  O   UNL     1     -12.360  -7.096  16.203  0.00  0.00    -0.495 OA
ATOM     25  C   UNL     1     -11.551  -5.993  15.803  0.00  0.00    +0.277 C 
ENDBRANCH  17   2
ENDBRANCH   7  11
BRANCH   6  19
ATOM     19  C   UNL     1      -3.623 -11.706  14.478  0.00  0.00    +0.035 A 
ATOM     20  C   UNL     1      -2.514 -12.543  14.359  0.00  0.00    +0.023 A 
ATOM     21  C   UNL     1      -3.869 -10.733  13.508  0.00  0.00    +0.023 A 
ATOM     22  C   UNL     1      -1.651 -12.409  13.271  0.00  0.00    +0.002 A 
ATOM     23  C   UNL     1      -3.006 -10.598  12.421  0.00  0.00    +0.002 A 
ATOM     24  C   UNL     1      -1.897 -11.435  12.303  0.00  0.00    +0.000 A 
ENDBRANCH   6  19
TORSDOF 3
ENDMDL
MODEL 10
REMARK VINA RESULT:      -6.7     17.073     20.313
REMARK  Name = 45784069
REMARK  4 active torsions:
REMARK  status: ('A' for Active; 'I' for Inactive)
REMARK    1  A    between atoms: O_2  and  C_17
REMARK    2  A    between atoms: O_2  and  C_25
REMARK    3  A    between atoms: N_6  and  C_19
REMARK    4  A    between atoms: C_7  and  C_11
REMARK                            x       y       z     vdW  Elec       q    Type
REMARK                         _______ _______ _______ _____ _____    ______ ____
ROOT
ATOM      1  O   UNL     1      11.819   6.555  -0.478  0.00  0.00    -0.252 OA
ATOM      3  N   UNL     1      13.267   6.482   1.302  0.00  0.00    -0.285 N 
ATOM      6  N   UNL     1      13.343   4.796  -0.318  0.00  0.00    -0.269 N 
ATOM      7  C   UNL     1      13.319   7.711   3.338  0.00  0.00    +0.074 C 
ATOM      8  C   UNL     1      14.654   6.974   3.152  0.00  0.00    +0.032 C 
ATOM      9  C   UNL     1      12.753   7.704   1.912  0.00  0.00    +0.120 C 
ATOM     10  C   UNL     1      14.348   5.913   2.103  0.00  0.00    +0.110 C 
ATOM     12  C   UNL     1      12.738   5.979   0.107  0.00  0.00    +0.306 C 
ATOM     27  H   UNL     1      14.075   4.402   0.266  0.00  0.00    +0.156 HD
ENDROOT
BRANCH   7  11
ATOM      4  N   UNL     1      12.812   7.133   5.735  0.00  0.00    -0.341 N 
ATOM      5  N   UNL     1      11.355   6.384   4.232  0.00  0.00    -0.232 NA
ATOM     11  C   UNL     1      12.467   7.061   4.413  0.00  0.00    +0.113 A 
ATOM     13  C   UNL     1      11.859   6.458   6.453  0.00  0.00    +0.070 A 
ATOM     14  C   UNL     1      10.961   5.999   5.494  0.00  0.00    +0.089 A 
ATOM     15  C   UNL     1      11.711   6.215   7.819  0.00  0.00    +0.073 A 
ATOM     16  C   UNL     1       9.842   5.254   5.902  0.00  0.00    +0.033 A 
ATOM     17  C   UNL     1      10.592   5.471   8.209  0.00  0.00    +0.122 A 
ATOM     18  C   UNL     1       9.673   4.999   7.268  0.00  0.00    +0.048 A 
ATOM     26  H   UNL     1      13.625   7.598   6.115  0.00  0.00    +0.167 HD
BRANCH  17   2
ATOM      2  O   UNL     1      10.396   5.204   9.531  0.00  0.00    -0.495 OA
ATOM     25  C   UNL     1       9.121   4.686   9.904  0.00  0.00    +0.277 C 
ENDBRANCH  17   2
ENDBRANCH   7  11
BRANCH   6  19
ATOM     19  C   UNL     1      13.047   4.035  -1.475  0.00  0.00    +0.035 A 
ATOM     20  C   UNL     1      13.493   4.464  -2.725  0.00  0.00    +0.023 A 
ATOM     21  C   UNL     1      12.309   2.856  -1.365  0.00  0.00    +0.023 A 
ATOM     22  C   UNL     1      13.203   3.714  -3.865  0.00  0.00    +0.002 A 
ATOM     23  C   UNL     1      12.018   2.107  -2.504  0.00  0.00    +0.002 A 
ATOM     24  C   UNL     1      12.464   2.536  -3.754  0.00  0.00    +0.000 A 
ENDBRANCH   6  19
TORSDOF 3
ENDMDL
