MODEL 1
REMARK VINA RESULT:      -6.2      0.000      0.000
REMARK  Name = 45784017
REMARK  4 active torsions:
REMARK  status: ('A' for Active; 'I' for Inactive)
REMARK    1  A    between atoms: O_3  and  C_15
REMARK    2  A    between atoms: O_3  and  C_20
REMARK    3  A    between atoms: C_7  and  C_11
REMARK    4  A    between atoms: C_12  and  C_15
REMARK                            x       y       z     vdW  Elec       q    Type
REMARK                         _______ _______ _______ _____ _____    ______ ____
ROOT
ATOM      1  F   UNL     1      20.297   7.689  22.161  0.00  0.00    -0.205 F 
ATOM      5  N   UNL     1      15.732   8.100  20.500  0.00  0.00    -0.341 N 
ATOM      6  N   UNL     1      15.897   6.322  19.176  0.00  0.00    -0.232 NA
ATOM     11  C   UNL     1      15.109   7.289  19.592  0.00  0.00    +0.113 A 
ATOM     13  C   UNL     1      17.006   7.626  20.681  0.00  0.00    +0.069 A 
ATOM     14  C   UNL     1      17.085   6.516  19.844  0.00  0.00    +0.089 A 
ATOM     16  C   UNL     1      18.063   8.059  21.481  0.00  0.00    +0.066 A 
ATOM     17  C   UNL     1      18.282   5.784  19.789  0.00  0.00    +0.032 A 
ATOM     18  C   UNL     1      19.247   7.318  21.414  0.00  0.00    +0.125 A 
ATOM     19  C   UNL     1      19.358   6.200  20.584  0.00  0.00    +0.040 A 
ATOM     21  H   UNL     1      15.327   8.907  20.956  0.00  0.00    +0.167 HD
ENDROOT
BRANCH  11   7
ATOM      2  O   UNL     1      13.587   8.455  14.961  0.00  0.00    -0.273 OA
ATOM      4  N   UNL     1      13.540   8.909  17.227  0.00  0.00    -0.299 N 
ATOM      7  C   UNL     1      13.674   7.538  19.164  0.00  0.00    +0.074 C 
ATOM      8  C   UNL     1      13.202   8.946  19.563  0.00  0.00    +0.032 C 
ATOM      9  C   UNL     1      13.393   7.525  17.656  0.00  0.00    +0.119 C 
ATOM     10  C   UNL     1      13.585   9.814  18.370  0.00  0.00    +0.108 C 
ATOM     12  C   UNL     1      13.630   9.261  15.892  0.00  0.00    +0.241 C 
BRANCH  12  15
ATOM     15  C   UNL     1      13.784  10.736  15.618  0.00  0.00    +0.255 C 
BRANCH  15   3
ATOM      3  O   UNL     1      14.339  10.850  14.330  0.00  0.00    -0.374 OA
ATOM     20  C   UNL     1      15.442  11.754  14.301  0.00  0.00    +0.194 C 
ENDBRANCH  15   3
ENDBRANCH  12  15
ENDBRANCH  11   7
TORSDOF 3
ENDMDL
MODEL 2
REMARK VINA RESULT:      -6.1      3.052      4.254
REMARK  Name = 45784017
REMARK  4 active torsions:
REMARK  status: ('A' for Active; 'I' for Inactive)
REMARK    1  A    between atoms: O_3  and  C_15
REMARK    2  A    between atoms: O_3  and  C_20
REMARK    3  A    between atoms: C_7  and  C_11
REMARK    4  A    between atoms: C_12  and  C_15
REMARK                            x       y       z     vdW  Elec       q    Type
REMARK                         _______ _______ _______ _____ _____    ______ ____
ROOT
ATOM      1  F   UNL     1      20.045   7.743  22.140  0.00  0.00    -0.205 F 
ATOM      5  N   UNL     1      15.624   8.286  20.159  0.00  0.00    -0.341 N 
ATOM      6  N   UNL     1      15.779   6.431  18.944  0.00  0.00    -0.232 NA
ATOM     11  C   UNL     1      15.018   7.457  19.255  0.00  0.00    +0.113 A 
ATOM     13  C   UNL     1      16.857   7.760  20.449  0.00  0.00    +0.069 A 
ATOM     14  C   UNL     1      16.930   6.604  19.679  0.00  0.00    +0.089 A 
ATOM     16  C   UNL     1      17.882   8.185  21.294  0.00  0.00    +0.066 A 
ATOM     17  C   UNL     1      18.088   5.811  19.742  0.00  0.00    +0.032 A 
ATOM     18  C   UNL     1      19.027   7.384  21.345  0.00  0.00    +0.125 A 
ATOM     19  C   UNL     1      19.131   6.218  20.584  0.00  0.00    +0.040 A 
ATOM     21  H   UNL     1      15.234   9.136  20.544  0.00  0.00    +0.167 HD
ENDROOT
BRANCH  11   7
ATOM      2  O   UNL     1      12.075  11.254  20.680  0.00  0.00    -0.273 OA
ATOM      4  N   UNL     1      12.318   8.993  20.268  0.00  0.00    -0.299 N 
ATOM      7  C   UNL     1      13.628   7.753  18.720  0.00  0.00    +0.074 C 
ATOM      8  C   UNL     1      12.572   6.832  19.353  0.00  0.00    +0.032 C 
ATOM      9  C   UNL     1      13.058   9.144  19.022  0.00  0.00    +0.119 C 
ATOM     10  C   UNL     1      12.126   7.586  20.601  0.00  0.00    +0.108 C 
ATOM     12  C   UNL     1      11.886  10.081  21.005  0.00  0.00    +0.241 C 
BRANCH  12  15
ATOM     15  C   UNL     1      11.139   9.751  22.273  0.00  0.00    +0.255 C 
BRANCH  15   3
ATOM      3  O   UNL     1      11.761  10.474  23.307  0.00  0.00    -0.374 OA
ATOM     20  C   UNL     1      10.833  11.279  24.032  0.00  0.00    +0.194 C 
ENDBRANCH  15   3
ENDBRANCH  12  15
ENDBRANCH  11   7
TORSDOF 3
ENDMDL
MODEL 3
REMARK VINA RESULT:      -5.9     26.667     28.142
REMARK  Name = 45784017
REMARK  4 active torsions:
REMARK  status: ('A' for Active; 'I' for Inactive)
REMARK    1  A    between atoms: O_3  and  C_15
REMARK    2  A    between atoms: O_3  and  C_20
REMARK    3  A    between atoms: C_7  and  C_11
REMARK    4  A    between atoms: C_12  and  C_15
REMARK                            x       y       z     vdW  Elec       q    Type
REMARK                         _______ _______ _______ _____ _____    ______ ____
ROOT
ATOM      1  F   UNL     1      -8.345  -9.153  17.699  0.00  0.00    -0.205 F 
ATOM      5  N   UNL     1      -4.226 -10.171  15.299  0.00  0.00    -0.341 N 
ATOM      6  N   UNL     1      -3.287 -11.183  17.042  0.00  0.00    -0.232 NA
ATOM     11  C   UNL     1      -3.128 -10.826  15.788  0.00  0.00    +0.113 A 
ATOM     13  C   UNL     1      -5.153 -10.101  16.307  0.00  0.00    +0.069 A 
ATOM     14  C   UNL     1      -4.545 -10.738  17.384  0.00  0.00    +0.089 A 
ATOM     16  C   UNL     1      -6.434  -9.551  16.366  0.00  0.00    +0.066 A 
ATOM     17  C   UNL     1      -5.239 -10.842  18.601  0.00  0.00    +0.032 A 
ATOM     18  C   UNL     1      -7.111  -9.663  17.585  0.00  0.00    +0.125 A 
ATOM     19  C   UNL     1      -6.527 -10.297  18.684  0.00  0.00    +0.040 A 
ATOM     21  H   UNL     1      -4.335  -9.804  14.364  0.00  0.00    +0.167 HD
ENDROOT
BRANCH  11   7
ATOM      2  O   UNL     1      -2.648  -9.549  10.965  0.00  0.00    -0.273 OA
ATOM      4  N   UNL     1      -2.455 -11.163  12.607  0.00  0.00    -0.299 N 
ATOM      7  C   UNL     1      -1.908 -11.076  14.920  0.00  0.00    +0.074 C 
ATOM      8  C   UNL     1      -1.849 -12.533  14.433  0.00  0.00    +0.032 C 
ATOM      9  C   UNL     1      -1.832 -10.297  13.600  0.00  0.00    +0.119 C 
ATOM     10  C   UNL     1      -2.631 -12.516  13.124  0.00  0.00    +0.108 C 
ATOM     12  C   UNL     1      -2.820 -10.706  11.354  0.00  0.00    +0.241 C 
BRANCH  12  15
ATOM     15  C   UNL     1      -3.457 -11.729  10.449  0.00  0.00    +0.255 C 
BRANCH  15   3
ATOM      3  O   UNL     1      -4.558 -11.099   9.841  0.00  0.00    -0.374 OA
ATOM     20  C   UNL     1      -4.497 -11.170   8.417  0.00  0.00    +0.194 C 
ENDBRANCH  15   3
ENDBRANCH  12  15
ENDBRANCH  11   7
TORSDOF 3
ENDMDL
MODEL 4
REMARK VINA RESULT:      -5.5     26.987     28.461
REMARK  Name = 45784017
REMARK  4 active torsions:
REMARK  status: ('A' for Active; 'I' for Inactive)
REMARK    1  A    between atoms: O_3  and  C_15
REMARK    2  A    between atoms: O_3  and  C_20
REMARK    3  A    between atoms: C_7  and  C_11
REMARK    4  A    between atoms: C_12  and  C_15
REMARK                            x       y       z     vdW  Elec       q    Type
REMARK                         _______ _______ _______ _____ _____    ______ ____
ROOT
ATOM      1  F   UNL     1      -6.435  -8.088   9.514  0.00  0.00    -0.205 F 
ATOM      5  N   UNL     1      -4.197 -10.672  12.991  0.00  0.00    -0.341 N 
ATOM      6  N   UNL     1      -2.224 -10.615  11.969  0.00  0.00    -0.232 NA
ATOM     11  C   UNL     1      -2.881 -11.043  13.024  0.00  0.00    +0.113 A 
ATOM     13  C   UNL     1      -4.402  -9.959  11.838  0.00  0.00    +0.069 A 
ATOM     14  C   UNL     1      -3.157  -9.937  11.217  0.00  0.00    +0.089 A 
ATOM     16  C   UNL     1      -5.537  -9.349  11.302  0.00  0.00    +0.066 A 
ATOM     17  C   UNL     1      -3.016  -9.273   9.988  0.00  0.00    +0.032 A 
ATOM     18  C   UNL     1      -5.378  -8.692  10.077  0.00  0.00    +0.125 A 
ATOM     19  C   UNL     1      -4.141  -8.653   9.430  0.00  0.00    +0.040 A 
ATOM     21  H   UNL     1      -4.896 -10.886  13.690  0.00  0.00    +0.167 HD
ENDROOT
BRANCH  11   7
ATOM      2  O   UNL     1      -5.521 -12.944  16.836  0.00  0.00    -0.273 OA
ATOM      4  N   UNL     1      -3.693 -11.729  16.114  0.00  0.00    -0.299 N 
ATOM      7  C   UNL     1      -2.318 -11.852  14.179  0.00  0.00    +0.074 C 
ATOM      8  C   UNL     1      -1.648 -10.949  15.227  0.00  0.00    +0.032 C 
ATOM      9  C   UNL     1      -3.329 -12.631  15.029  0.00  0.00    +0.119 C 
ATOM     10  C   UNL     1      -2.781 -10.592  16.183  0.00  0.00    +0.108 C 
ATOM     12  C   UNL     1      -4.780 -11.965  16.936  0.00  0.00    +0.241 C 
BRANCH  12  15
ATOM     15  C   UNL     1      -5.021 -10.931  18.007  0.00  0.00    +0.255 C 
BRANCH  15   3
ATOM      3  O   UNL     1      -6.326 -10.443  17.808  0.00  0.00    -0.374 OA
ATOM     20  C   UNL     1      -6.399  -9.546  16.700  0.00  0.00    +0.194 C 
ENDBRANCH  15   3
ENDBRANCH  12  15
ENDBRANCH  11   7
TORSDOF 3
ENDMDL
MODEL 5
REMARK VINA RESULT:      -5.5     27.110     28.872
REMARK  Name = 45784017
REMARK  4 active torsions:
REMARK  status: ('A' for Active; 'I' for Inactive)
REMARK    1  A    between atoms: O_3  and  C_15
REMARK    2  A    between atoms: O_3  and  C_20
REMARK    3  A    between atoms: C_7  and  C_11
REMARK    4  A    between atoms: C_12  and  C_15
REMARK                            x       y       z     vdW  Elec       q    Type
REMARK                         _______ _______ _______ _____ _____    ______ ____
ROOT
ATOM      1  F   UNL     1      -2.032 -10.015  12.372  0.00  0.00    -0.205 F 
ATOM      5  N   UNL     1      -4.895 -11.701  15.939  0.00  0.00    -0.341 N 
ATOM      6  N   UNL     1      -3.380 -11.341  17.526  0.00  0.00    -0.232 NA
ATOM     11  C   UNL     1      -4.591 -11.784  17.270  0.00  0.00    +0.113 A 
ATOM     13  C   UNL     1      -3.808 -11.170  15.294  0.00  0.00    +0.069 A 
ATOM     14  C   UNL     1      -2.876 -10.954  16.304  0.00  0.00    +0.089 A 
ATOM     16  C   UNL     1      -3.568 -10.868  13.953  0.00  0.00    +0.066 A 
ATOM     17  C   UNL     1      -1.625 -10.406  15.977  0.00  0.00    +0.032 A 
ATOM     18  C   UNL     1      -2.318 -10.324  13.645  0.00  0.00    +0.125 A 
ATOM     19  C   UNL     1      -1.361 -10.095  14.636  0.00  0.00    +0.040 A 
ATOM     21  H   UNL     1      -5.765 -11.982  15.507  0.00  0.00    +0.167 HD
ENDROOT
BRANCH  11   7
ATOM      2  O   UNL     1      -9.581 -11.569  16.868  0.00  0.00    -0.273 OA
ATOM      4  N   UNL     1      -7.689 -11.229  18.150  0.00  0.00    -0.299 N 
ATOM      7  C   UNL     1      -5.588 -12.334  18.275  0.00  0.00    +0.074 C 
ATOM      8  C   UNL     1      -5.748 -11.397  19.483  0.00  0.00    +0.032 C 
ATOM      9  C   UNL     1      -7.037 -12.482  17.794  0.00  0.00    +0.119 C 
ATOM     10  C   UNL     1      -6.867 -10.449  19.068  0.00  0.00    +0.108 C 
ATOM     12  C   UNL     1      -8.925 -10.871  17.643  0.00  0.00    +0.241 C 
BRANCH  12  15
ATOM     15  C   UNL     1      -9.457  -9.539  18.108  0.00  0.00    +0.255 C 
BRANCH  15   3
ATOM      3  O   UNL     1      -9.042  -8.587  17.158  0.00  0.00    -0.374 OA
ATOM     20  C   UNL     1     -10.085  -7.672  16.826  0.00  0.00    +0.194 C 
ENDBRANCH  15   3
ENDBRANCH  12  15
ENDBRANCH  11   7
TORSDOF 3
ENDMDL
MODEL 6
REMARK VINA RESULT:      -5.2      6.022      9.411
REMARK  Name = 45784017
REMARK  4 active torsions:
REMARK  status: ('A' for Active; 'I' for Inactive)
REMARK    1  A    between atoms: O_3  and  C_15
REMARK    2  A    between atoms: O_3  and  C_20
REMARK    3  A    between atoms: C_7  and  C_11
REMARK    4  A    between atoms: C_12  and  C_15
REMARK                            x       y       z     vdW  Elec       q    Type
REMARK                         _______ _______ _______ _____ _____    ______ ____
ROOT
ATOM      1  F   UNL     1      14.955   6.748  19.210  0.00  0.00    -0.205 F 
ATOM      5  N   UNL     1      19.523   5.115  19.701  0.00  0.00    -0.341 N 
ATOM      6  N   UNL     1      20.061   6.640  21.226  0.00  0.00    -0.232 NA
ATOM     11  C   UNL     1      20.492   5.614  20.527  0.00  0.00    +0.113 A 
ATOM     13  C   UNL     1      18.392   5.870  19.879  0.00  0.00    +0.069 A 
ATOM     14  C   UNL     1      18.752   6.815  20.834  0.00  0.00    +0.089 A 
ATOM     16  C   UNL     1      17.123   5.808  19.302  0.00  0.00    +0.066 A 
ATOM     17  C   UNL     1      17.804   7.763  21.252  0.00  0.00    +0.032 A 
ATOM     18  C   UNL     1      16.191   6.759  19.730  0.00  0.00    +0.125 A 
ATOM     19  C   UNL     1      16.523   7.721  20.687  0.00  0.00    +0.040 A 
ATOM     21  H   UNL     1      19.621   4.330  19.071  0.00  0.00    +0.167 HD
ENDROOT
BRANCH  11   7
ATOM      2  O   UNL     1      22.227   2.575  24.115  0.00  0.00    -0.273 OA
ATOM      4  N   UNL     1      22.536   4.446  22.794  0.00  0.00    -0.299 N 
ATOM      7  C   UNL     1      21.880   5.000  20.577  0.00  0.00    +0.074 C 
ATOM      8  C   UNL     1      22.928   6.011  21.070  0.00  0.00    +0.032 C 
ATOM      9  C   UNL     1      22.080   3.833  21.554  0.00  0.00    +0.119 C 
ATOM     10  C   UNL     1      22.924   5.837  22.585  0.00  0.00    +0.108 C 
ATOM     12  C   UNL     1      22.567   3.753  23.991  0.00  0.00    +0.241 C 
BRANCH  12  15
ATOM     15  C   UNL     1      23.060   4.535  25.182  0.00  0.00    +0.255 C 
BRANCH  15   3
ATOM      3  O   UNL     1      21.918   5.003  25.858  0.00  0.00    -0.374 OA
ATOM     20  C   UNL     1      22.089   4.984  27.274  0.00  0.00    +0.194 C 
ENDBRANCH  15   3
ENDBRANCH  12  15
ENDBRANCH  11   7
TORSDOF 3
ENDMDL
MODEL 7
REMARK VINA RESULT:      -5.2     26.742     28.474
REMARK  Name = 45784017
REMARK  4 active torsions:
REMARK  status: ('A' for Active; 'I' for Inactive)
REMARK    1  A    between atoms: O_3  and  C_15
REMARK    2  A    between atoms: O_3  and  C_20
REMARK    3  A    between atoms: C_7  and  C_11
REMARK    4  A    between atoms: C_12  and  C_15
REMARK                            x       y       z     vdW  Elec       q    Type
REMARK                         _______ _______ _______ _____ _____    ______ ____
ROOT
ATOM      1  F   UNL     1     -16.190   4.876  22.049  0.00  0.00    -0.205 F 
ATOM      5  N   UNL     1     -13.707   8.404  19.777  0.00  0.00    -0.341 N 
ATOM      6  N   UNL     1     -11.735   7.697  20.520  0.00  0.00    -0.232 NA
ATOM     11  C   UNL     1     -12.354   8.600  19.793  0.00  0.00    +0.113 A 
ATOM     13  C   UNL     1     -13.979   7.302  20.546  0.00  0.00    +0.069 A 
ATOM     14  C   UNL     1     -12.733   6.878  20.999  0.00  0.00    +0.089 A 
ATOM     16  C   UNL     1     -15.173   6.658  20.874  0.00  0.00    +0.066 A 
ATOM     17  C   UNL     1     -12.654   5.748  21.829  0.00  0.00    +0.032 A 
ATOM     18  C   UNL     1     -15.075   5.534  21.701  0.00  0.00    +0.125 A 
ATOM     19  C   UNL     1     -13.839   5.085  22.172  0.00  0.00    +0.040 A 
ATOM     21  H   UNL     1     -14.387   8.970  19.288  0.00  0.00    +0.167 HD
ENDROOT
BRANCH  11   7
ATOM      2  O   UNL     1     -12.578   9.324  14.839  0.00  0.00    -0.273 OA
ATOM      4  N   UNL     1     -11.297   9.196  16.758  0.00  0.00    -0.299 N 
ATOM      7  C   UNL     1     -11.714   9.749  19.033  0.00  0.00    +0.074 C 
ATOM      8  C   UNL     1     -10.208   9.520  18.828  0.00  0.00    +0.032 C 
ATOM      9  C   UNL     1     -12.200   9.976  17.596  0.00  0.00    +0.119 C 
ATOM     10  C   UNL     1     -10.127   8.757  17.510  0.00  0.00    +0.108 C 
ATOM     12  C   UNL     1     -11.571   8.929  15.429  0.00  0.00    +0.241 C 
BRANCH  12  15
ATOM     15  C   UNL     1     -10.537   8.103  14.706  0.00  0.00    +0.255 C 
BRANCH  15   3
ATOM      3  O   UNL     1     -11.016   7.917  13.396  0.00  0.00    -0.374 OA
ATOM     20  C   UNL     1      -9.966   7.602  12.482  0.00  0.00    +0.194 C 
ENDBRANCH  15   3
ENDBRANCH  12  15
ENDBRANCH  11   7
TORSDOF 3
ENDMDL
MODEL 8
REMARK VINA RESULT:      -5.1     32.064     34.001
REMARK  Name = 45784017
REMARK  4 active torsions:
REMARK  status: ('A' for Active; 'I' for Inactive)
REMARK    1  A    between atoms: O_3  and  C_15
REMARK    2  A    between atoms: O_3  and  C_20
REMARK    3  A    between atoms: C_7  and  C_11
REMARK    4  A    between atoms: C_12  and  C_15
REMARK                            x       y       z     vdW  Elec       q    Type
REMARK                         _______ _______ _______ _____ _____    ______ ____
ROOT
ATOM      1  F   UNL     1     -15.654   0.528  28.208  0.00  0.00    -0.205 F 
ATOM      5  N   UNL     1     -16.235   3.839  31.739  0.00  0.00    -0.341 N 
ATOM      6  N   UNL     1     -15.221   2.592  33.276  0.00  0.00    -0.232 NA
ATOM     11  C   UNL     1     -15.825   3.735  33.041  0.00  0.00    +0.113 A 
ATOM     13  C   UNL     1     -15.870   2.685  31.094  0.00  0.00    +0.069 A 
ATOM     14  C   UNL     1     -15.240   1.923  32.073  0.00  0.00    +0.089 A 
ATOM     16  C   UNL     1     -16.033   2.256  29.776  0.00  0.00    +0.066 A 
ATOM     17  C   UNL     1     -14.737   0.656  31.737  0.00  0.00    +0.032 A 
ATOM     18  C   UNL     1     -15.526   0.992  29.459  0.00  0.00    +0.125 A 
ATOM     19  C   UNL     1     -14.889   0.204  30.420  0.00  0.00    +0.040 A 
ATOM     21  H   UNL     1     -16.720   4.624  31.326  0.00  0.00    +0.167 HD
ENDROOT
BRANCH  11   7
ATOM      2  O   UNL     1     -15.049   8.619  32.224  0.00  0.00    -0.273 OA
ATOM      4  N   UNL     1     -14.748   6.773  33.582  0.00  0.00    -0.299 N 
ATOM      7  C   UNL     1     -16.075   4.854  34.037  0.00  0.00    +0.074 C 
ATOM      8  C   UNL     1     -14.942   4.952  35.072  0.00  0.00    +0.032 C 
ATOM      9  C   UNL     1     -16.115   6.280  33.473  0.00  0.00    +0.119 C 
ATOM     10  C   UNL     1     -13.939   5.905  34.430  0.00  0.00    +0.108 C 
ATOM     12  C   UNL     1     -14.324   7.918  32.932  0.00  0.00    +0.241 C 
BRANCH  12  15
ATOM     15  C   UNL     1     -12.877   8.288  33.145  0.00  0.00    +0.255 C 
BRANCH  15   3
ATOM      3  O   UNL     1     -12.571   9.278  32.193  0.00  0.00    -0.374 OA
ATOM     20  C   UNL     1     -11.344   9.010  31.516  0.00  0.00    +0.194 C 
ENDBRANCH  15   3
ENDBRANCH  12  15
ENDBRANCH  11   7
TORSDOF 3
ENDMDL
MODEL 9
REMARK VINA RESULT:      -5.1     27.856     29.841
REMARK  Name = 45784017
REMARK  4 active torsions:
REMARK  status: ('A' for Active; 'I' for Inactive)
REMARK    1  A    between atoms: O_3  and  C_15
REMARK    2  A    between atoms: O_3  and  C_20
REMARK    3  A    between atoms: C_7  and  C_11
REMARK    4  A    between atoms: C_12  and  C_15
REMARK                            x       y       z     vdW  Elec       q    Type
REMARK                         _______ _______ _______ _____ _____    ______ ____
ROOT
ATOM      1  F   UNL     1     -12.320  -9.088  18.197  0.00  0.00    -0.205 F 
ATOM      5  N   UNL     1      -8.090 -11.463  18.692  0.00  0.00    -0.341 N 
ATOM      6  N   UNL     1      -6.938  -9.951  17.539  0.00  0.00    -0.232 NA
ATOM     11  C   UNL     1      -6.871 -11.084  18.200  0.00  0.00    +0.113 A 
ATOM     13  C   UNL     1      -9.004 -10.509  18.322  0.00  0.00    +0.069 A 
ATOM     14  C   UNL     1      -8.262  -9.577  17.604  0.00  0.00    +0.089 A 
ATOM     16  C   UNL     1     -10.375 -10.387  18.548  0.00  0.00    +0.066 A 
ATOM     17  C   UNL     1      -8.908  -8.449  17.072  0.00  0.00    +0.032 A 
ATOM     18  C   UNL     1     -11.003  -9.258  18.012  0.00  0.00    +0.125 A 
ATOM     19  C   UNL     1     -10.285  -8.305  17.286  0.00  0.00    +0.040 A 
ATOM     21  H   UNL     1      -8.285 -12.296  19.230  0.00  0.00    +0.167 HD
ENDROOT
BRANCH  11   7
ATOM      2  O   UNL     1      -2.361 -10.295  16.161  0.00  0.00    -0.273 OA
ATOM      4  N   UNL     1      -4.082 -11.763  16.637  0.00  0.00    -0.299 N 
ATOM      7  C   UNL     1      -5.630 -11.928  18.434  0.00  0.00    +0.074 C 
ATOM      8  C   UNL     1      -5.663 -13.223  17.607  0.00  0.00    +0.032 C 
ATOM      9  C   UNL     1      -4.291 -11.313  18.007  0.00  0.00    +0.119 C 
ATOM     10  C   UNL     1      -5.008 -12.834  16.286  0.00  0.00    +0.108 C 
ATOM     12  C   UNL     1      -3.121 -11.202  15.816  0.00  0.00    +0.241 C 
BRANCH  12  15
ATOM     15  C   UNL     1      -3.038 -11.779  14.425  0.00  0.00    +0.255 C 
BRANCH  15   3
ATOM      3  O   UNL     1      -2.830 -10.695  13.552  0.00  0.00    -0.374 OA
ATOM     20  C   UNL     1      -2.011 -11.053  12.440  0.00  0.00    +0.194 C 
ENDBRANCH  15   3
ENDBRANCH  12  15
ENDBRANCH  11   7
TORSDOF 3
ENDMDL
MODEL 10
REMARK VINA RESULT:      -5.1     12.409     15.233
REMARK  Name = 45784017
REMARK  4 active torsions:
REMARK  status: ('A' for Active; 'I' for Inactive)
REMARK    1  A    between atoms: O_3  and  C_15
REMARK    2  A    between atoms: O_3  and  C_20
REMARK    3  A    between atoms: C_7  and  C_11
REMARK    4  A    between atoms: C_12  and  C_15
REMARK                            x       y       z     vdW  Elec       q    Type
REMARK                         _______ _______ _______ _____ _____    ______ ____
ROOT
ATOM      1  F   UNL     1      13.000   3.023   1.012  0.00  0.00    -0.205 F 
ATOM      5  N   UNL     1       9.908   4.679   4.398  0.00  0.00    -0.341 N 
ATOM      6  N   UNL     1      10.792   6.719   4.419  0.00  0.00    -0.232 NA
ATOM     11  C   UNL     1       9.867   5.939   4.931  0.00  0.00    +0.113 A 
ATOM     13  C   UNL     1      10.929   4.645   3.483  0.00  0.00    +0.069 A 
ATOM     14  C   UNL     1      11.465   5.929   3.514  0.00  0.00    +0.089 A 
ATOM     16  C   UNL     1      11.413   3.632   2.655  0.00  0.00    +0.066 A 
ATOM     17  C   UNL     1      12.550   6.238   2.677  0.00  0.00    +0.032 A 
ATOM     18  C   UNL     1      12.493   3.958   1.829  0.00  0.00    +0.125 A 
ATOM     19  C   UNL     1      13.053   5.237   1.837  0.00  0.00    +0.040 A 
ATOM     21  H   UNL     1       9.297   3.910   4.637  0.00  0.00    +0.167 HD
ENDROOT
BRANCH  11   7
ATOM      2  O   UNL     1       9.021  10.559   6.678  0.00  0.00    -0.273 OA
ATOM      4  N   UNL     1       9.418   8.326   7.118  0.00  0.00    -0.299 N 
ATOM      7  C   UNL     1       8.841   6.316   5.985  0.00  0.00    +0.074 C 
ATOM      8  C   UNL     1       9.338   5.983   7.401  0.00  0.00    +0.032 C 
ATOM      9  C   UNL     1       8.502   7.807   6.110  0.00  0.00    +0.119 C 
ATOM     10  C   UNL     1      10.078   7.242   7.838  0.00  0.00    +0.108 C 
ATOM     12  C   UNL     1       9.606   9.681   7.315  0.00  0.00    +0.241 C 
BRANCH  12  15
ATOM     15  C   UNL     1      10.593  10.050   8.394  0.00  0.00    +0.255 C 
BRANCH  15   3
ATOM      3  O   UNL     1       9.859  10.694   9.407  0.00  0.00    -0.374 OA
ATOM     20  C   UNL     1      10.629  11.695  10.072  0.00  0.00    +0.194 C 
ENDBRANCH  15   3
ENDBRANCH  12  15
ENDBRANCH  11   7
TORSDOF 3
ENDMDL
