MODEL 1
REMARK VINA RESULT:      -6.3      0.000      0.000
REMARK  Name = 38028751
REMARK  11 active torsions:
REMARK  status: ('A' for Active; 'I' for Inactive)
REMARK    1  A    between atoms: S_1  and  N_6
REMARK    2  A    between atoms: S_1  and  C_24
REMARK    3  A    between atoms: N_6  and  C_14
REMARK    4  A    between atoms: C_7  and  C_11
REMARK    5  A    between atoms: C_8  and  C_14
REMARK    6  A    between atoms: C_10  and  C_15
REMARK    7  A    between atoms: C_11  and  C_16
REMARK    8  A    between atoms: C_11  and  C_17
REMARK    9  A    between atoms: C_12  and  C_18
REMARK   10  A    between atoms: C_15  and  C_19
REMARK   11  A    between atoms: C_24  and  C_25
REMARK                            x       y       z     vdW  Elec       q    Type
REMARK                         _______ _______ _______ _____ _____    ______ ____
ROOT
ATOM      7  C   UNL     1      -5.487 -11.064  17.251  0.00  0.00    +0.000 C 
ATOM      8  C   UNL     1      -4.369 -11.830  16.499  0.00  0.00    +0.030 C 
ATOM      9  C   UNL     1      -6.804 -11.853  17.201  0.00  0.00    +0.012 C 
ATOM     10  C   UNL     1      -7.275 -12.110  15.757  0.00  0.00    +0.023 C 
ATOM     12  C   UNL     1      -6.149 -12.617  14.880  0.00  0.00    -0.073 C 
ATOM     13  C   UNL     1      -4.858 -12.495  15.234  0.00  0.00    -0.023 C 
ATOM     18  C   UNL     1      -6.543 -13.310  13.605  0.00  0.00    +0.039 C 
ENDROOT
BRANCH   7  11
ATOM     11  C   UNL     1      -5.104 -10.786  18.709  0.00  0.00    -0.013 C 
ATOM     16  C   UNL     1      -6.343 -10.435  19.527  0.00  0.00    +0.007 C 
ATOM     17  C   UNL     1      -4.383 -11.989  19.308  0.00  0.00    +0.007 C 
ENDBRANCH   7  11
BRANCH   8  14
ATOM     14  C   UNL     1      -3.192 -10.905  16.169  0.00  0.00    +0.113 C 
BRANCH  14   6
ATOM      6  N   UNL     1      -3.300 -10.470  14.768  0.00  0.00    -0.194 NA
ATOM     31  H   UNL     1      -4.267 -10.430  14.419  0.00  0.00    +0.148 HD
BRANCH   6   1
ATOM      1  S   UNL     1      -2.131 -10.992  13.637  0.00  0.00    +0.033 S 
ATOM      3  O   UNL     1      -1.356 -12.080  14.200  0.00  0.00    -0.158 OA
ATOM      4  O   UNL     1      -1.476  -9.825  13.077  0.00  0.00    -0.158 OA
BRANCH   1  24
ATOM     24  C   UNL     1      -3.183 -11.667  12.371  0.00  0.00    +0.220 C 
BRANCH  24  25
ATOM     25  C   UNL     1      -3.830 -10.521  11.657  0.00  0.00    -0.025 A 
ATOM     26  C   UNL     1      -3.248 -10.000  10.502  0.00  0.00    +0.005 A 
ATOM     27  C   UNL     1      -5.016  -9.975  12.148  0.00  0.00    +0.005 A 
ATOM     28  C   UNL     1      -3.851  -8.933   9.837  0.00  0.00    +0.000 A 
ATOM     29  C   UNL     1      -5.620  -8.907  11.483  0.00  0.00    +0.000 A 
ATOM     30  C   UNL     1      -5.037  -8.386  10.327  0.00  0.00    +0.000 A 
ENDBRANCH  24  25
ENDBRANCH   1  24
ENDBRANCH   6   1
ENDBRANCH  14   6
ENDBRANCH   8  14
BRANCH  10  15
ATOM     15  C   UNL     1      -7.918 -10.856  15.155  0.00  0.00    +0.103 C 
BRANCH  15  19
ATOM      2  O   UNL     1     -10.086 -11.811  14.907  0.00  0.00    -0.276 OA
ATOM      5  N   UNL     1      -9.932  -9.839  16.100  0.00  0.00    -0.301 N 
ATOM     19  C   UNL     1      -9.410 -10.892  15.370  0.00  0.00    +0.216 C 
ATOM     20  C   UNL     1      -9.189  -8.724  16.678  0.00  0.00    +0.108 C 
ATOM     21  C   UNL     1     -11.355  -9.724  16.388  0.00  0.00    +0.108 C 
ATOM     22  C   UNL     1     -10.263  -7.738  17.116  0.00  0.00    +0.020 C 
ATOM     23  C   UNL     1     -11.439  -8.644  17.455  0.00  0.00    +0.020 C 
ENDBRANCH  15  19
ENDBRANCH  10  15
TORSDOF 8
ENDMDL
MODEL 2
REMARK VINA RESULT:      -6.3      3.518      8.467
REMARK  Name = 38028751
REMARK  11 active torsions:
REMARK  status: ('A' for Active; 'I' for Inactive)
REMARK    1  A    between atoms: S_1  and  N_6
REMARK    2  A    between atoms: S_1  and  C_24
REMARK    3  A    between atoms: N_6  and  C_14
REMARK    4  A    between atoms: C_7  and  C_11
REMARK    5  A    between atoms: C_8  and  C_14
REMARK    6  A    between atoms: C_10  and  C_15
REMARK    7  A    between atoms: C_11  and  C_16
REMARK    8  A    between atoms: C_11  and  C_17
REMARK    9  A    between atoms: C_12  and  C_18
REMARK   10  A    between atoms: C_15  and  C_19
REMARK   11  A    between atoms: C_24  and  C_25
REMARK                            x       y       z     vdW  Elec       q    Type
REMARK                         _______ _______ _______ _____ _____    ______ ____
ROOT
ATOM      7  C   UNL     1      -4.085 -10.229  11.307  0.00  0.00    +0.000 C 
ATOM      8  C   UNL     1      -5.121  -9.453  12.157  0.00  0.00    +0.030 C 
ATOM      9  C   UNL     1      -3.892  -9.549   9.943  0.00  0.00    +0.012 C 
ATOM     10  C   UNL     1      -5.208  -9.458   9.146  0.00  0.00    +0.023 C 
ATOM     12  C   UNL     1      -6.350  -8.949  10.002  0.00  0.00    -0.073 C 
ATOM     13  C   UNL     1      -6.288  -8.942  11.345  0.00  0.00    -0.023 C 
ATOM     18  C   UNL     1      -7.549  -8.406   9.276  0.00  0.00    +0.039 C 
ENDROOT
BRANCH   7  11
ATOM     11  C   UNL     1      -2.735 -10.346  12.023  0.00  0.00    -0.013 C 
ATOM     16  C   UNL     1      -2.360 -11.812  12.215  0.00  0.00    +0.007 C 
ATOM     17  C   UNL     1      -1.653  -9.609  11.240  0.00  0.00    +0.007 C 
ENDBRANCH   7  11
BRANCH   8  14
ATOM     14  C   UNL     1      -5.641 -10.313  13.314  0.00  0.00    +0.113 C 
BRANCH  14   6
ATOM      6  N   UNL     1      -6.703  -9.578  14.020  0.00  0.00    -0.194 NA
ATOM     31  H   UNL     1      -6.505  -8.576  14.142  0.00  0.00    +0.148 HD
BRANCH   6   1
ATOM      1  S   UNL     1      -7.517 -10.330  15.321  0.00  0.00    +0.033 S 
ATOM      3  O   UNL     1      -7.053 -11.695  15.466  0.00  0.00    -0.158 OA
ATOM      4  O   UNL     1      -8.933 -10.034  15.213  0.00  0.00    -0.158 OA
BRANCH   1  24
ATOM     24  C   UNL     1      -6.882  -9.388  16.689  0.00  0.00    +0.220 C 
BRANCH  24  25
ATOM     25  C   UNL     1      -5.904 -10.253  17.423  0.00  0.00    -0.025 A 
ATOM     26  C   UNL     1      -4.622 -10.447  16.909  0.00  0.00    +0.005 A 
ATOM     27  C   UNL     1      -6.276 -10.864  18.620  0.00  0.00    +0.005 A 
ATOM     28  C   UNL     1      -3.711 -11.252  17.593  0.00  0.00    +0.000 A 
ATOM     29  C   UNL     1      -5.365 -11.670  19.304  0.00  0.00    +0.000 A 
ATOM     30  C   UNL     1      -4.082 -11.864  18.790  0.00  0.00    +0.000 A 
ENDBRANCH  24  25
ENDBRANCH   1  24
ENDBRANCH   6   1
ENDBRANCH  14   6
ENDBRANCH   8  14
BRANCH  10  15
ATOM     15  C   UNL     1      -5.559 -10.806   8.507  0.00  0.00    +0.103 C 
BRANCH  15  19
ATOM      2  O   UNL     1      -5.808  -9.838   6.344  0.00  0.00    -0.276 OA
ATOM      5  N   UNL     1      -4.538 -11.762   6.500  0.00  0.00    -0.301 N 
ATOM     19  C   UNL     1      -5.320 -10.746   7.019  0.00  0.00    +0.216 C 
ATOM     20  C   UNL     1      -3.929 -12.861   7.242  0.00  0.00    +0.108 C 
ATOM     21  C   UNL     1      -4.220 -11.850   5.082  0.00  0.00    +0.108 C 
ATOM     22  C   UNL     1      -3.432 -13.816   6.166  0.00  0.00    +0.020 C 
ATOM     23  C   UNL     1      -3.109 -12.885   5.005  0.00  0.00    +0.020 C 
ENDBRANCH  15  19
ENDBRANCH  10  15
TORSDOF 8
ENDMDL
MODEL 3
REMARK VINA RESULT:      -6.2     19.484     23.285
REMARK  Name = 38028751
REMARK  11 active torsions:
REMARK  status: ('A' for Active; 'I' for Inactive)
REMARK    1  A    between atoms: S_1  and  N_6
REMARK    2  A    between atoms: S_1  and  C_24
REMARK    3  A    between atoms: N_6  and  C_14
REMARK    4  A    between atoms: C_7  and  C_11
REMARK    5  A    between atoms: C_8  and  C_14
REMARK    6  A    between atoms: C_10  and  C_15
REMARK    7  A    between atoms: C_11  and  C_16
REMARK    8  A    between atoms: C_11  and  C_17
REMARK    9  A    between atoms: C_12  and  C_18
REMARK   10  A    between atoms: C_15  and  C_19
REMARK   11  A    between atoms: C_24  and  C_25
REMARK                            x       y       z     vdW  Elec       q    Type
REMARK                         _______ _______ _______ _____ _____    ______ ____
ROOT
ATOM      7  C   UNL     1     -13.385   7.668  20.939  0.00  0.00    +0.000 C 
ATOM      8  C   UNL     1     -13.140   8.963  21.754  0.00  0.00    +0.030 C 
ATOM      9  C   UNL     1     -12.093   7.220  20.241  0.00  0.00    +0.012 C 
ATOM     10  C   UNL     1     -11.542   8.298  19.288  0.00  0.00    +0.023 C 
ATOM     12  C   UNL     1     -11.520   9.666  19.939  0.00  0.00    -0.073 C 
ATOM     13  C   UNL     1     -12.230   9.940  21.048  0.00  0.00    -0.023 C 
ATOM     18  C   UNL     1     -10.628  10.700  19.311  0.00  0.00    +0.039 C 
ENDROOT
BRANCH   7  11
ATOM     11  C   UNL     1     -13.917   6.533  21.822  0.00  0.00    -0.013 C 
ATOM     16  C   UNL     1     -15.213   5.973  21.245  0.00  0.00    +0.007 C 
ATOM     17  C   UNL     1     -12.869   5.434  21.964  0.00  0.00    +0.007 C 
ENDBRANCH   7  11
BRANCH   8  14
ATOM     14  C   UNL     1     -14.461   9.655  22.104  0.00  0.00    +0.113 C 
BRANCH  14   6
ATOM      6  N   UNL     1     -14.183  11.034  22.536  0.00  0.00    -0.194 NA
ATOM     31  H   UNL     1     -13.496  11.522  21.946  0.00  0.00    +0.148 HD
BRANCH   6   1
ATOM      1  S   UNL     1     -14.103  11.387  24.205  0.00  0.00    +0.033 S 
ATOM      3  O   UNL     1     -14.355  10.185  24.974  0.00  0.00    -0.158 OA
ATOM      4  O   UNL     1     -14.856  12.601  24.457  0.00  0.00    -0.158 OA
BRANCH   1  24
ATOM     24  C   UNL     1     -12.378  11.790  24.369  0.00  0.00    +0.220 C 
BRANCH  24  25
ATOM     25  C   UNL     1     -11.967  11.469  25.773  0.00  0.00    -0.025 A 
ATOM     26  C   UNL     1     -11.209  10.328  26.034  0.00  0.00    +0.005 A 
ATOM     27  C   UNL     1     -12.342  12.312  26.819  0.00  0.00    +0.005 A 
ATOM     28  C   UNL     1     -10.825  10.029  27.341  0.00  0.00    +0.000 A 
ATOM     29  C   UNL     1     -11.959  12.013  28.127  0.00  0.00    +0.000 A 
ATOM     30  C   UNL     1     -11.200  10.871  28.388  0.00  0.00    +0.000 A 
ENDBRANCH  24  25
ENDBRANCH   1  24
ENDBRANCH   6   1
ENDBRANCH  14   6
ENDBRANCH   8  14
BRANCH  10  15
ATOM     15  C   UNL     1     -12.330   8.328  17.974  0.00  0.00    +0.103 C 
BRANCH  15  19
ATOM      2  O   UNL     1     -10.167   8.168  16.988  0.00  0.00    -0.276 OA
ATOM      5  N   UNL     1     -11.960   8.453  15.559  0.00  0.00    -0.301 N 
ATOM     19  C   UNL     1     -11.377   8.305  16.805  0.00  0.00    +0.216 C 
ATOM     20  C   UNL     1     -13.382   8.616  15.274  0.00  0.00    +0.108 C 
ATOM     21  C   UNL     1     -11.177   8.460  14.331  0.00  0.00    +0.108 C 
ATOM     22  C   UNL     1     -13.432   9.009  13.804  0.00  0.00    +0.020 C 
ATOM     23  C   UNL     1     -12.208   8.314  13.223  0.00  0.00    +0.020 C 
ENDBRANCH  15  19
ENDBRANCH  10  15
TORSDOF 8
ENDMDL
MODEL 4
REMARK VINA RESULT:      -6.1     28.486     30.726
REMARK  Name = 38028751
REMARK  11 active torsions:
REMARK  status: ('A' for Active; 'I' for Inactive)
REMARK    1  A    between atoms: S_1  and  N_6
REMARK    2  A    between atoms: S_1  and  C_24
REMARK    3  A    between atoms: N_6  and  C_14
REMARK    4  A    between atoms: C_7  and  C_11
REMARK    5  A    between atoms: C_8  and  C_14
REMARK    6  A    between atoms: C_10  and  C_15
REMARK    7  A    between atoms: C_11  and  C_16
REMARK    8  A    between atoms: C_11  and  C_17
REMARK    9  A    between atoms: C_12  and  C_18
REMARK   10  A    between atoms: C_15  and  C_19
REMARK   11  A    between atoms: C_24  and  C_25
REMARK                            x       y       z     vdW  Elec       q    Type
REMARK                         _______ _______ _______ _____ _____    ______ ____
ROOT
ATOM      7  C   UNL     1      11.854  12.157  22.383  0.00  0.00    +0.000 C 
ATOM      8  C   UNL     1      10.853  11.608  23.431  0.00  0.00    +0.030 C 
ATOM      9  C   UNL     1      11.664  11.444  21.036  0.00  0.00    +0.012 C 
ATOM     10  C   UNL     1      11.863   9.920  21.150  0.00  0.00    +0.023 C 
ATOM     12  C   UNL     1      11.114   9.342  22.333  0.00  0.00    -0.073 C 
ATOM     13  C   UNL     1      10.658  10.113  23.336  0.00  0.00    -0.023 C 
ATOM     18  C   UNL     1      10.860   7.861  22.315  0.00  0.00    +0.039 C 
ENDROOT
BRANCH   7  11
ATOM     11  C   UNL     1      11.706  13.670  22.194  0.00  0.00    -0.013 C 
ATOM     16  C   UNL     1      12.456  14.126  20.946  0.00  0.00    +0.007 C 
ATOM     17  C   UNL     1      10.232  14.054  22.109  0.00  0.00    +0.007 C 
ENDBRANCH   7  11
BRANCH   8  14
ATOM     14  C   UNL     1      11.284  11.978  24.854  0.00  0.00    +0.113 C 
BRANCH  14   6
ATOM      6  N   UNL     1      12.432  11.143  25.242  0.00  0.00    -0.194 NA
ATOM     31  H   UNL     1      12.201  10.415  25.930  0.00  0.00    +0.148 HD
BRANCH   6   1
ATOM      1  S   UNL     1      13.969  11.867  25.423  0.00  0.00    +0.033 S 
ATOM      3  O   UNL     1      14.572  11.432  26.667  0.00  0.00    -0.158 OA
ATOM      4  O   UNL     1      13.856  13.277  25.105  0.00  0.00    -0.158 OA
BRANCH   1  24
ATOM     24  C   UNL     1      14.852  11.092  24.087  0.00  0.00    +0.220 C 
BRANCH  24  25
ATOM     25  C   UNL     1      15.755  12.121  23.480  0.00  0.00    -0.025 A 
ATOM     26  C   UNL     1      15.485  12.623  22.208  0.00  0.00    +0.005 A 
ATOM     27  C   UNL     1      16.866  12.579  24.190  0.00  0.00    +0.005 A 
ATOM     28  C   UNL     1      16.325  13.582  21.643  0.00  0.00    +0.000 A 
ATOM     29  C   UNL     1      17.707  13.538  23.625  0.00  0.00    +0.000 A 
ATOM     30  C   UNL     1      17.437  14.039  22.351  0.00  0.00    +0.000 A 
ENDBRANCH  24  25
ENDBRANCH   1  24
ENDBRANCH   6   1
ENDBRANCH  14   6
ENDBRANCH   8  14
BRANCH  10  15
ATOM     15  C   UNL     1      13.352   9.561  21.214  0.00  0.00    +0.103 C 
BRANCH  15  19
ATOM      2  O   UNL     1      13.039   8.681  19.023  0.00  0.00    -0.276 OA
ATOM      5  N   UNL     1      14.825   7.869  20.242  0.00  0.00    -0.301 N 
ATOM     19  C   UNL     1      13.715   8.671  20.053  0.00  0.00    +0.216 C 
ATOM     20  C   UNL     1      15.668   7.811  21.433  0.00  0.00    +0.108 C 
ATOM     21  C   UNL     1      15.302   6.948  19.220  0.00  0.00    +0.108 C 
ATOM     22  C   UNL     1      16.550   6.589  21.215  0.00  0.00    +0.020 C 
ATOM     23  C   UNL     1      16.684   6.531  19.699  0.00  0.00    +0.020 C 
ENDBRANCH  15  19
ENDBRANCH  10  15
TORSDOF 8
ENDMDL
MODEL 5
REMARK VINA RESULT:      -6.1     24.536     27.584
REMARK  Name = 38028751
REMARK  11 active torsions:
REMARK  status: ('A' for Active; 'I' for Inactive)
REMARK    1  A    between atoms: S_1  and  N_6
REMARK    2  A    between atoms: S_1  and  C_24
REMARK    3  A    between atoms: N_6  and  C_14
REMARK    4  A    between atoms: C_7  and  C_11
REMARK    5  A    between atoms: C_8  and  C_14
REMARK    6  A    between atoms: C_10  and  C_15
REMARK    7  A    between atoms: C_11  and  C_16
REMARK    8  A    between atoms: C_11  and  C_17
REMARK    9  A    between atoms: C_12  and  C_18
REMARK   10  A    between atoms: C_15  and  C_19
REMARK   11  A    between atoms: C_24  and  C_25
REMARK                            x       y       z     vdW  Elec       q    Type
REMARK                         _______ _______ _______ _____ _____    ______ ____
ROOT
ATOM      7  C   UNL     1      11.404   7.140   2.599  0.00  0.00    +0.000 C 
ATOM      8  C   UNL     1      11.040   5.696   2.169  0.00  0.00    +0.030 C 
ATOM      9  C   UNL     1      12.022   7.141   4.005  0.00  0.00    +0.012 C 
ATOM     10  C   UNL     1      11.071   6.543   5.060  0.00  0.00    +0.023 C 
ATOM     12  C   UNL     1      10.459   5.239   4.590  0.00  0.00    -0.073 C 
ATOM     13  C   UNL     1      10.467   4.871   3.297  0.00  0.00    -0.023 C 
ATOM     18  C   UNL     1       9.877   4.345   5.649  0.00  0.00    +0.039 C 
ENDROOT
BRANCH   7  11
ATOM     11  C   UNL     1      12.369   7.802   1.608  0.00  0.00    -0.013 C 
ATOM     16  C   UNL     1      12.447   9.303   1.865  0.00  0.00    +0.007 C 
ATOM     17  C   UNL     1      13.751   7.164   1.706  0.00  0.00    +0.007 C 
ENDBRANCH   7  11
BRANCH   8  14
ATOM     14  C   UNL     1      10.061   5.701   0.990  0.00  0.00    +0.113 C 
BRANCH  14   6
ATOM      6  N   UNL     1      10.231   4.459   0.218  0.00  0.00    -0.194 NA
ATOM     31  H   UNL     1      10.563   3.664   0.780  0.00  0.00    +0.148 HD
BRANCH   6   1
ATOM      1  S   UNL     1      10.841   4.542  -1.375  0.00  0.00    +0.033 S 
ATOM      3  O   UNL     1      11.680   5.715  -1.518  0.00  0.00    -0.158 OA
ATOM      4  O   UNL     1       9.754   4.288  -2.300  0.00  0.00    -0.158 OA
BRANCH   1  24
ATOM     24  C   UNL     1      11.897   3.110  -1.393  0.00  0.00    +0.220 C 
BRANCH  24  25
ATOM     25  C   UNL     1      13.082   3.407  -0.528  0.00  0.00    -0.025 A 
ATOM     26  C   UNL     1      13.036   3.133   0.839  0.00  0.00    +0.005 A 
ATOM     27  C   UNL     1      14.234   3.957  -1.090  0.00  0.00    +0.005 A 
ATOM     28  C   UNL     1      14.141   3.409   1.644  0.00  0.00    +0.000 A 
ATOM     29  C   UNL     1      15.339   4.234  -0.284  0.00  0.00    +0.000 A 
ATOM     30  C   UNL     1      15.292   3.960   1.083  0.00  0.00    +0.000 A 
ENDBRANCH  24  25
ENDBRANCH   1  24
ENDBRANCH   6   1
ENDBRANCH  14   6
ENDBRANCH   8  14
BRANCH  10  15
ATOM     15  C   UNL     1       9.985   7.548   5.456  0.00  0.00    +0.103 C 
BRANCH  15  19
ATOM      2  O   UNL     1      10.582   7.242   7.741  0.00  0.00    -0.276 OA
ATOM      5  N   UNL     1       9.999   9.378   7.080  0.00  0.00    -0.301 N 
ATOM     19  C   UNL     1      10.221   8.029   6.865  0.00  0.00    +0.216 C 
ATOM     20  C   UNL     1       9.576  10.361   6.088  0.00  0.00    +0.108 C 
ATOM     21  C   UNL     1      10.176   9.996   8.386  0.00  0.00    +0.108 C 
ATOM     22  C   UNL     1       9.221  11.596   6.905  0.00  0.00    +0.020 C 
ATOM     23  C   UNL     1      10.153  11.491   8.105  0.00  0.00    +0.020 C 
ENDBRANCH  15  19
ENDBRANCH  10  15
TORSDOF 8
ENDMDL
MODEL 6
REMARK VINA RESULT:      -6.1     26.905     29.134
REMARK  Name = 38028751
REMARK  11 active torsions:
REMARK  status: ('A' for Active; 'I' for Inactive)
REMARK    1  A    between atoms: S_1  and  N_6
REMARK    2  A    between atoms: S_1  and  C_24
REMARK    3  A    between atoms: N_6  and  C_14
REMARK    4  A    between atoms: C_7  and  C_11
REMARK    5  A    between atoms: C_8  and  C_14
REMARK    6  A    between atoms: C_10  and  C_15
REMARK    7  A    between atoms: C_11  and  C_16
REMARK    8  A    between atoms: C_11  and  C_17
REMARK    9  A    between atoms: C_12  and  C_18
REMARK   10  A    between atoms: C_15  and  C_19
REMARK   11  A    between atoms: C_24  and  C_25
REMARK                            x       y       z     vdW  Elec       q    Type
REMARK                         _______ _______ _______ _____ _____    ______ ____
ROOT
ATOM      7  C   UNL     1      12.601   7.728  20.781  0.00  0.00    +0.000 C 
ATOM      8  C   UNL     1      13.952   6.973  20.859  0.00  0.00    +0.030 C 
ATOM      9  C   UNL     1      11.910   7.452  19.438  0.00  0.00    +0.012 C 
ATOM     10  C   UNL     1      12.777   7.878  18.237  0.00  0.00    +0.023 C 
ATOM     12  C   UNL     1      14.206   7.392  18.375  0.00  0.00    -0.073 C 
ATOM     13  C   UNL     1      14.709   6.979  19.552  0.00  0.00    -0.023 C 
ATOM     18  C   UNL     1      15.030   7.350  17.119  0.00  0.00    +0.039 C 
ENDROOT
BRANCH   7  11
ATOM     11  C   UNL     1      11.668   7.343  21.934  0.00  0.00    -0.013 C 
ATOM     16  C   UNL     1      10.575   8.394  22.107  0.00  0.00    +0.007 C 
ATOM     17  C   UNL     1      11.059   5.966  21.688  0.00  0.00    +0.007 C 
ENDBRANCH   7  11
BRANCH   8  14
ATOM     14  C   UNL     1      14.842   7.545  21.968  0.00  0.00    +0.113 C 
BRANCH  14   6
ATOM      6  N   UNL     1      15.712   8.586  21.398  0.00  0.00    -0.194 NA
ATOM     31  H   UNL     1      16.665   8.260  21.188  0.00  0.00    +0.148 HD
BRANCH   6   1
ATOM      1  S   UNL     1      15.593  10.187  21.982  0.00  0.00    +0.033 S 
ATOM      3  O   UNL     1      16.915  10.772  22.080  0.00  0.00    -0.158 OA
ATOM      4  O   UNL     1      14.689  10.199  23.116  0.00  0.00    -0.158 OA
BRANCH   1  24
ATOM     24  C   UNL     1      14.750  10.966  20.623  0.00  0.00    +0.220 C 
BRANCH  24  25
ATOM     25  C   UNL     1      13.669  11.832  21.194  0.00  0.00    -0.025 A 
ATOM     26  C   UNL     1      13.993  13.054  21.782  0.00  0.00    +0.005 A 
ATOM     27  C   UNL     1      12.339  11.416  21.135  0.00  0.00    +0.005 A 
ATOM     28  C   UNL     1      12.987  13.860  22.313  0.00  0.00    +0.000 A 
ATOM     29  C   UNL     1      11.333  12.222  21.667  0.00  0.00    +0.000 A 
ATOM     30  C   UNL     1      11.656  13.445  22.256  0.00  0.00    +0.000 A 
ENDBRANCH  24  25
ENDBRANCH   1  24
ENDBRANCH   6   1
ENDBRANCH  14   6
ENDBRANCH   8  14
BRANCH  10  15
ATOM     15  C   UNL     1      12.730   9.396  18.034  0.00  0.00    +0.103 C 
BRANCH  15  19
ATOM      2  O   UNL     1      12.007   9.162  15.776  0.00  0.00    -0.276 OA
ATOM      5  N   UNL     1      13.727  10.650  16.185  0.00  0.00    -0.301 N 
ATOM     19  C   UNL     1      12.777   9.717  16.562  0.00  0.00    +0.216 C 
ATOM     20  C   UNL     1      14.664  11.345  17.063  0.00  0.00    +0.108 C 
ATOM     21  C   UNL     1      13.904  11.063  14.801  0.00  0.00    +0.108 C 
ATOM     22  C   UNL     1      15.642  12.022  16.114  0.00  0.00    +0.020 C 
ATOM     23  C   UNL     1      14.788  12.298  14.883  0.00  0.00    +0.020 C 
ENDBRANCH  15  19
ENDBRANCH  10  15
TORSDOF 8
ENDMDL
MODEL 7
REMARK VINA RESULT:      -6.1      2.781      6.243
REMARK  Name = 38028751
REMARK  11 active torsions:
REMARK  status: ('A' for Active; 'I' for Inactive)
REMARK    1  A    between atoms: S_1  and  N_6
REMARK    2  A    between atoms: S_1  and  C_24
REMARK    3  A    between atoms: N_6  and  C_14
REMARK    4  A    between atoms: C_7  and  C_11
REMARK    5  A    between atoms: C_8  and  C_14
REMARK    6  A    between atoms: C_10  and  C_15
REMARK    7  A    between atoms: C_11  and  C_16
REMARK    8  A    between atoms: C_11  and  C_17
REMARK    9  A    between atoms: C_12  and  C_18
REMARK   10  A    between atoms: C_15  and  C_19
REMARK   11  A    between atoms: C_24  and  C_25
REMARK                            x       y       z     vdW  Elec       q    Type
REMARK                         _______ _______ _______ _____ _____    ______ ____
ROOT
ATOM      7  C   UNL     1      -4.062 -11.369  12.917  0.00  0.00    +0.000 C 
ATOM      8  C   UNL     1      -2.738 -11.190  13.701  0.00  0.00    +0.030 C 
ATOM      9  C   UNL     1      -3.780 -11.531  11.416  0.00  0.00    +0.012 C 
ATOM     10  C   UNL     1      -3.026 -10.321  10.830  0.00  0.00    +0.023 C 
ATOM     12  C   UNL     1      -1.854  -9.914  11.700  0.00  0.00    -0.073 C 
ATOM     13  C   UNL     1      -1.735 -10.323  12.975  0.00  0.00    -0.023 C 
ATOM     18  C   UNL     1      -0.797  -9.063  11.054  0.00  0.00    +0.039 C 
ENDROOT
BRANCH   7  11
ATOM     11  C   UNL     1      -4.866 -12.570  13.426  0.00  0.00    -0.013 C 
ATOM     16  C   UNL     1      -6.153 -12.729  12.623  0.00  0.00    +0.007 C 
ATOM     17  C   UNL     1      -4.025 -13.841  13.356  0.00  0.00    +0.007 C 
ENDBRANCH   7  11
BRANCH   8  14
ATOM     14  C   UNL     1      -2.995 -10.614  15.097  0.00  0.00    +0.113 C 
BRANCH  14   6
ATOM      6  N   UNL     1      -3.163 -11.722  16.051  0.00  0.00    -0.194 NA
ATOM     31  H   UNL     1      -3.013 -12.652  15.637  0.00  0.00    +0.148 HD
BRANCH   6   1
ATOM      1  S   UNL     1      -4.394 -11.630  17.231  0.00  0.00    +0.033 S 
ATOM      3  O   UNL     1      -3.815 -11.748  18.555  0.00  0.00    -0.158 OA
ATOM      4  O   UNL     1      -5.491 -12.486  16.822  0.00  0.00    -0.158 OA
BRANCH   1  24
ATOM     24  C   UNL     1      -4.926  -9.946  17.015  0.00  0.00    +0.220 C 
BRANCH  24  25
ATOM     25  C   UNL     1      -6.363  -9.974  16.591  0.00  0.00    -0.025 A 
ATOM     26  C   UNL     1      -7.374  -9.956  17.551  0.00  0.00    +0.005 A 
ATOM     27  C   UNL     1      -6.689 -10.015  15.236  0.00  0.00    +0.005 A 
ATOM     28  C   UNL     1      -8.711  -9.980  17.157  0.00  0.00    +0.000 A 
ATOM     29  C   UNL     1      -8.026 -10.040  14.841  0.00  0.00    +0.000 A 
ATOM     30  C   UNL     1      -9.038 -10.023  15.802  0.00  0.00    +0.000 A 
ENDBRANCH  24  25
ENDBRANCH   1  24
ENDBRANCH   6   1
ENDBRANCH  14   6
ENDBRANCH   8  14
BRANCH  10  15
ATOM     15  C   UNL     1      -3.975  -9.140  10.599  0.00  0.00    +0.103 C 
BRANCH  15  19
ATOM      2  O   UNL     1      -4.567  -9.626   8.343  0.00  0.00    -0.276 OA
ATOM      5  N   UNL     1      -6.275  -9.593   9.899  0.00  0.00    -0.301 N 
ATOM     19  C   UNL     1      -4.955  -9.477   9.503  0.00  0.00    +0.216 C 
ATOM     20  C   UNL     1      -6.798  -9.432  11.253  0.00  0.00    +0.108 C 
ATOM     21  C   UNL     1      -7.343  -9.907   8.961  0.00  0.00    +0.108 C 
ATOM     22  C   UNL     1      -8.309  -9.386  11.073  0.00  0.00    +0.020 C 
ATOM     23  C   UNL     1      -8.533 -10.255   9.842  0.00  0.00    +0.020 C 
ENDBRANCH  15  19
ENDBRANCH  10  15
TORSDOF 8
ENDMDL
MODEL 8
REMARK VINA RESULT:      -6.0     23.847     26.638
REMARK  Name = 38028751
REMARK  11 active torsions:
REMARK  status: ('A' for Active; 'I' for Inactive)
REMARK    1  A    between atoms: S_1  and  N_6
REMARK    2  A    between atoms: S_1  and  C_24
REMARK    3  A    between atoms: N_6  and  C_14
REMARK    4  A    between atoms: C_7  and  C_11
REMARK    5  A    between atoms: C_8  and  C_14
REMARK    6  A    between atoms: C_10  and  C_15
REMARK    7  A    between atoms: C_11  and  C_16
REMARK    8  A    between atoms: C_11  and  C_17
REMARK    9  A    between atoms: C_12  and  C_18
REMARK   10  A    between atoms: C_15  and  C_19
REMARK   11  A    between atoms: C_24  and  C_25
REMARK                            x       y       z     vdW  Elec       q    Type
REMARK                         _______ _______ _______ _____ _____    ______ ____
ROOT
ATOM      7  C   UNL     1       9.601   6.370   6.787  0.00  0.00    +0.000 C 
ATOM      8  C   UNL     1       9.022   5.680   5.527  0.00  0.00    +0.030 C 
ATOM      9  C   UNL     1       8.657   7.480   7.273  0.00  0.00    +0.012 C 
ATOM     10  C   UNL     1       8.417   8.555   6.195  0.00  0.00    +0.023 C 
ATOM     12  C   UNL     1       8.101   7.939   4.847  0.00  0.00    -0.073 C 
ATOM     13  C   UNL     1       8.365   6.649   4.571  0.00  0.00    -0.023 C 
ATOM     18  C   UNL     1       7.431   8.828   3.837  0.00  0.00    +0.039 C 
ENDROOT
BRANCH   7  11
ATOM     11  C   UNL     1       9.850   5.369   7.920  0.00  0.00    -0.013 C 
ATOM     16  C   UNL     1      11.262   5.532   8.474  0.00  0.00    +0.007 C 
ATOM     17  C   UNL     1       8.812   5.545   9.023  0.00  0.00    +0.007 C 
ENDBRANCH   7  11
BRANCH   8  14
ATOM     14  C   UNL     1      10.101   4.884   4.786  0.00  0.00    +0.113 C 
BRANCH  14   6
ATOM      6  N   UNL     1      11.248   5.765   4.515  0.00  0.00    -0.194 NA
ATOM     31  H   UNL     1      11.269   6.611   5.101  0.00  0.00    +0.148 HD
BRANCH   6   1
ATOM      1  S   UNL     1      11.783   5.971   2.906  0.00  0.00    +0.033 S 
ATOM      3  O   UNL     1      13.104   6.567   2.901  0.00  0.00    -0.158 OA
ATOM      4  O   UNL     1      10.704   6.550   2.130  0.00  0.00    -0.158 OA
BRANCH   1  24
ATOM     24  C   UNL     1      11.947   4.273   2.400  0.00  0.00    +0.220 C 
BRANCH  24  25
ATOM     25  C   UNL     1      13.045   4.205   1.383  0.00  0.00    -0.025 A 
ATOM     26  C   UNL     1      14.307   3.739   1.749  0.00  0.00    +0.005 A 
ATOM     27  C   UNL     1      12.804   4.607   0.069  0.00  0.00    +0.005 A 
ATOM     28  C   UNL     1      15.329   3.674   0.802  0.00  0.00    +0.000 A 
ATOM     29  C   UNL     1      13.826   4.544  -0.878  0.00  0.00    +0.000 A 
ATOM     30  C   UNL     1      15.089   4.077  -0.511  0.00  0.00    +0.000 A 
ENDBRANCH  24  25
ENDBRANCH   1  24
ENDBRANCH   6   1
ENDBRANCH  14   6
ENDBRANCH   8  14
BRANCH  10  15
ATOM     15  C   UNL     1       9.610   9.511   6.095  0.00  0.00    +0.103 C 
BRANCH  15  19
ATOM      2  O   UNL     1       8.667  11.632   5.560  0.00  0.00    -0.276 OA
ATOM      5  N   UNL     1       9.379  11.311   7.734  0.00  0.00    -0.301 N 
ATOM     19  C   UNL     1       9.171  10.915   6.426  0.00  0.00    +0.216 C 
ATOM     20  C   UNL     1       9.966  10.512   8.806  0.00  0.00    +0.108 C 
ATOM     21  C   UNL     1       9.016  12.638   8.212  0.00  0.00    +0.108 C 
ATOM     22  C   UNL     1      10.213  11.508   9.931  0.00  0.00    +0.020 C 
ATOM     23  C   UNL     1       9.107  12.535   9.726  0.00  0.00    +0.020 C 
ENDBRANCH  15  19
ENDBRANCH  10  15
TORSDOF 8
ENDMDL
MODEL 9
REMARK VINA RESULT:      -6.0     24.788     27.835
REMARK  Name = 38028751
REMARK  11 active torsions:
REMARK  status: ('A' for Active; 'I' for Inactive)
REMARK    1  A    between atoms: S_1  and  N_6
REMARK    2  A    between atoms: S_1  and  C_24
REMARK    3  A    between atoms: N_6  and  C_14
REMARK    4  A    between atoms: C_7  and  C_11
REMARK    5  A    between atoms: C_8  and  C_14
REMARK    6  A    between atoms: C_10  and  C_15
REMARK    7  A    between atoms: C_11  and  C_16
REMARK    8  A    between atoms: C_11  and  C_17
REMARK    9  A    between atoms: C_12  and  C_18
REMARK   10  A    between atoms: C_15  and  C_19
REMARK   11  A    between atoms: C_24  and  C_25
REMARK                            x       y       z     vdW  Elec       q    Type
REMARK                         _______ _______ _______ _____ _____    ______ ____
ROOT
ATOM      7  C   UNL     1      10.813   6.648   5.719  0.00  0.00    +0.000 C 
ATOM      8  C   UNL     1       9.583   5.968   5.066  0.00  0.00    +0.030 C 
ATOM      9  C   UNL     1      10.571   8.157   5.875  0.00  0.00    +0.012 C 
ATOM     10  C   UNL     1      10.291   8.846   4.525  0.00  0.00    +0.023 C 
ATOM     12  C   UNL     1       9.275   8.079   3.702  0.00  0.00    -0.073 C 
ATOM     13  C   UNL     1       8.962   6.798   3.968  0.00  0.00    -0.023 C 
ATOM     18  C   UNL     1       8.594   8.833   2.595  0.00  0.00    +0.039 C 
ENDROOT
BRANCH   7  11
ATOM     11  C   UNL     1      11.146   6.033   7.082  0.00  0.00    -0.013 C 
ATOM     16  C   UNL     1      12.497   6.540   7.578  0.00  0.00    +0.007 C 
ATOM     17  C   UNL     1      10.047   6.347   8.091  0.00  0.00    +0.007 C 
ENDBRANCH   7  11
BRANCH   8  14
ATOM     14  C   UNL     1       9.943   4.583   4.519  0.00  0.00    +0.113 C 
BRANCH  14   6
ATOM      6  N   UNL     1      11.292   4.632   3.934  0.00  0.00    -0.194 NA
ATOM     31  H   UNL     1      11.951   5.221   4.460  0.00  0.00    +0.148 HD
BRANCH   6   1
ATOM      1  S   UNL     1      11.466   4.668   2.235  0.00  0.00    +0.033 S 
ATOM      3  O   UNL     1      12.248   5.825   1.847  0.00  0.00    -0.158 OA
ATOM      4  O   UNL     1      10.173   4.410   1.633  0.00  0.00    -0.158 OA
BRANCH   1  24
ATOM     24  C   UNL     1      12.469   3.221   1.980  0.00  0.00    +0.220 C 
BRANCH  24  25
ATOM     25  C   UNL     1      13.498   3.556   0.945  0.00  0.00    -0.025 A 
ATOM     26  C   UNL     1      13.126   3.687  -0.392  0.00  0.00    +0.005 A 
ATOM     27  C   UNL     1      14.829   3.738   1.320  0.00  0.00    +0.005 A 
ATOM     28  C   UNL     1      14.084   4.001  -1.355  0.00  0.00    +0.000 A 
ATOM     29  C   UNL     1      15.788   4.051   0.357  0.00  0.00    +0.000 A 
ATOM     30  C   UNL     1      15.415   4.182  -0.982  0.00  0.00    +0.000 A 
ENDBRANCH  24  25
ENDBRANCH   1  24
ENDBRANCH   6   1
ENDBRANCH  14   6
ENDBRANCH   8  14
BRANCH  10  15
ATOM     15  C   UNL     1      11.587   9.060   3.736  0.00  0.00    +0.103 C 
BRANCH  15  19
ATOM      2  O   UNL     1      12.461  10.822   5.080  0.00  0.00    -0.276 OA
ATOM      5  N   UNL     1      13.749   8.916   4.871  0.00  0.00    -0.301 N 
ATOM     19  C   UNL     1      12.630   9.690   4.625  0.00  0.00    +0.216 C 
ATOM     20  C   UNL     1      14.009   7.570   4.367  0.00  0.00    +0.108 C 
ATOM     21  C   UNL     1      14.849   9.382   5.703  0.00  0.00    +0.108 C 
ATOM     22  C   UNL     1      15.472   7.315   4.702  0.00  0.00    +0.020 C 
ATOM     23  C   UNL     1      15.681   8.137   5.967  0.00  0.00    +0.020 C 
ENDBRANCH  15  19
ENDBRANCH  10  15
TORSDOF 8
ENDMDL
MODEL 10
REMARK VINA RESULT:      -5.9     24.222     27.479
REMARK  Name = 38028751
REMARK  11 active torsions:
REMARK  status: ('A' for Active; 'I' for Inactive)
REMARK    1  A    between atoms: S_1  and  N_6
REMARK    2  A    between atoms: S_1  and  C_24
REMARK    3  A    between atoms: N_6  and  C_14
REMARK    4  A    between atoms: C_7  and  C_11
REMARK    5  A    between atoms: C_8  and  C_14
REMARK    6  A    between atoms: C_10  and  C_15
REMARK    7  A    between atoms: C_11  and  C_16
REMARK    8  A    between atoms: C_11  and  C_17
REMARK    9  A    between atoms: C_12  and  C_18
REMARK   10  A    between atoms: C_15  and  C_19
REMARK   11  A    between atoms: C_24  and  C_25
REMARK                            x       y       z     vdW  Elec       q    Type
REMARK                         _______ _______ _______ _____ _____    ______ ____
ROOT
ATOM      7  C   UNL     1       8.922   8.574   4.818  0.00  0.00    +0.000 C 
ATOM      8  C   UNL     1       8.632   9.237   6.188  0.00  0.00    +0.030 C 
ATOM      9  C   UNL     1       8.428   7.120   4.811  0.00  0.00    +0.012 C 
ATOM     10  C   UNL     1       9.092   6.272   5.913  0.00  0.00    +0.023 C 
ATOM     12  C   UNL     1       9.083   6.983   7.251  0.00  0.00    -0.073 C 
ATOM     13  C   UNL     1       8.862   8.305   7.355  0.00  0.00    -0.023 C 
ATOM     18  C   UNL     1       9.289   6.131   8.471  0.00  0.00    +0.039 C 
ENDROOT
BRANCH   7  11
ATOM     11  C   UNL     1       8.275   9.347   3.664  0.00  0.00    -0.013 C 
ATOM     16  C   UNL     1       8.404   8.565   2.361  0.00  0.00    +0.007 C 
ATOM     17  C   UNL     1       6.811   9.642   3.976  0.00  0.00    +0.007 C 
ENDBRANCH   7  11
BRANCH   8  14
ATOM     14  C   UNL     1       9.467  10.508   6.375  0.00  0.00    +0.113 C 
BRANCH  14   6
ATOM      6  N   UNL     1      10.624  10.202   7.232  0.00  0.00    -0.194 NA
ATOM     31  H   UNL     1      10.532  10.554   8.195  0.00  0.00    +0.148 HD
BRANCH   6   1
ATOM      1  S   UNL     1      12.197  10.273   6.570  0.00  0.00    +0.033 S 
ATOM      3  O   UNL     1      13.003  11.214   7.321  0.00  0.00    -0.158 OA
ATOM      4  O   UNL     1      12.087  10.374   5.127  0.00  0.00    -0.158 OA
BRANCH   1  24
ATOM     24  C   UNL     1      12.780   8.634   6.943  0.00  0.00    +0.220 C 
BRANCH  24  25
ATOM     25  C   UNL     1      13.950   8.353   6.051  0.00  0.00    -0.025 A 
ATOM     26  C   UNL     1      15.188   8.937   6.319  0.00  0.00    +0.005 A 
ATOM     27  C   UNL     1      13.801   7.505   4.954  0.00  0.00    +0.005 A 
ATOM     28  C   UNL     1      16.277   8.674   5.489  0.00  0.00    +0.000 A 
ATOM     29  C   UNL     1      14.891   7.243   4.123  0.00  0.00    +0.000 A 
ATOM     30  C   UNL     1      16.129   7.827   4.391  0.00  0.00    +0.000 A 
ENDBRANCH  24  25
ENDBRANCH   1  24
ENDBRANCH   6   1
ENDBRANCH  14   6
ENDBRANCH   8  14
BRANCH  10  15
ATOM     15  C   UNL     1      10.516   5.868   5.515  0.00  0.00    +0.103 C 
BRANCH  15  19
ATOM      2  O   UNL     1      10.099   3.579   5.005  0.00  0.00    -0.276 OA
ATOM      5  N   UNL     1      10.874   4.919   3.290  0.00  0.00    -0.301 N 
ATOM     19  C   UNL     1      10.471   4.678   4.591  0.00  0.00    +0.216 C 
ATOM     20  C   UNL     1      11.321   6.193   2.736  0.00  0.00    +0.108 C 
ATOM     21  C   UNL     1      10.895   3.873   2.277  0.00  0.00    +0.108 C 
ATOM     22  C   UNL     1      11.898   5.833   1.374  0.00  0.00    +0.020 C 
ATOM     23  C   UNL     1      11.074   4.619   0.964  0.00  0.00    +0.020 C 
ENDBRANCH  15  19
ENDBRANCH  10  15
TORSDOF 8
ENDMDL
