MODEL 1
REMARK VINA RESULT:      -7.6      0.000      0.000
REMARK  Name = 11882016
REMARK  10 active torsions:
REMARK  status: ('A' for Active; 'I' for Inactive)
REMARK    1  A    between atoms: S_1  and  C_21
REMARK    2  A    between atoms: S_1  and  C_27
REMARK    3  A    between atoms: N_10  and  C_14
REMARK    4  A    between atoms: N_11  and  C_20
REMARK    5  A    between atoms: N_12  and  C_26
REMARK    6  A    between atoms: C_15  and  C_18
REMARK    7  A    between atoms: C_19  and  C_21
REMARK    8  A    between atoms: C_20  and  C_23
REMARK    9  A    between atoms: C_20  and  C_24
REMARK   10  A    between atoms: C_23  and  C_25
REMARK                            x       y       z     vdW  Elec       q    Type
REMARK                         _______ _______ _______ _____ _____    ______ ____
ROOT
ATOM      6  O   UNL     1      10.921  11.137  22.922  0.00  0.00    -0.275 OA
ATOM      9  N   UNL     1      13.229  11.241  22.788  0.00  0.00    -0.287 N 
ATOM     14  C   UNL     1      15.546  11.151  22.271  0.00  0.00    +0.094 C 
ATOM     15  C   UNL     1      13.315  11.059  21.347  0.00  0.00    +0.164 C 
ATOM     16  C   UNL     1      14.755  11.417  20.986  0.00  0.00    +0.055 C 
ATOM     17  C   UNL     1      14.548  11.480  23.376  0.00  0.00    +0.131 C 
ATOM     19  C   UNL     1      12.015  11.346  23.450  0.00  0.00    +0.226 C 
ENDROOT
BRANCH  14  10
ATOM      7  O   UNL     1      17.899  10.059  21.055  0.00  0.00    -0.252 OA
ATOM     10  N   UNL     1      16.001   9.787  22.348  0.00  0.00    -0.295 N 
ATOM     12  N   UNL     1      17.355   7.967  21.971  0.00  0.00    -0.267 N 
ATOM     22  C   UNL     1      17.168   9.330  21.722  0.00  0.00    +0.304 C 
ATOM     36  H   UNL     1      15.416   9.108  22.827  0.00  0.00    +0.151 HD
ATOM     38  H   UNL     1      16.655   7.506  22.545  0.00  0.00    +0.156 HD
BRANCH  12  26
ATOM      3  F   UNL     1      17.024   6.242  19.808  0.00  0.00    -0.203 F 
ATOM      4  F   UNL     1      21.488   4.724  20.201  0.00  0.00    -0.205 F 
ATOM     26  C   UNL     1      18.408   7.139  21.518  0.00  0.00    +0.070 A 
ATOM     30  C   UNL     1      18.210   6.285  20.432  0.00  0.00    +0.147 A 
ATOM     31  C   UNL     1      19.645   7.175  22.160  0.00  0.00    +0.029 A 
ATOM     33  C   UNL     1      19.250   5.470  19.987  0.00  0.00    +0.078 A 
ATOM     34  C   UNL     1      20.686   6.358  21.715  0.00  0.00    +0.040 A 
ATOM     35  C   UNL     1      20.488   5.506  20.630  0.00  0.00    +0.126 A 
ENDBRANCH  12  26
ENDBRANCH  14  10
BRANCH  15  18
ATOM      5  O   UNL     1      13.836   8.737  21.169  0.00  0.00    -0.274 OA
ATOM     11  N   UNL     1      11.720   9.469  20.535  0.00  0.00    -0.302 N 
ATOM     18  C   UNL     1      13.005   9.629  21.023  0.00  0.00    +0.234 C 
ATOM     37  H   UNL     1      11.127  10.288  20.427  0.00  0.00    +0.150 HD
BRANCH  11  20
ATOM     20  C   UNL     1      11.182   8.191  20.128  0.00  0.00    +0.163 C 
BRANCH  20  24
ATOM      8  O   UNL     1      10.395   7.530  22.330  0.00  0.00    -0.274 OA
ATOM     13  N   UNL     1      11.959   6.213  21.280  0.00  0.00    -0.328 N 
ATOM     24  C   UNL     1      11.130   7.312  21.369  0.00  0.00    +0.231 C 
ATOM     39  H   UNL     1      12.007   5.537  22.034  0.00  0.00    +0.145 HD
ATOM     40  H   UNL     1      12.558   6.044  20.479  0.00  0.00    +0.145 HD
ENDBRANCH  20  24
BRANCH  20  23
ATOM     23  C   UNL     1      12.030   7.525  19.037  0.00  0.00    +0.074 C 
BRANCH  23  25
ATOM      2  S   UNL     1      13.345   8.845  16.966  0.00  0.00    -0.102 S 
ATOM     25  C   UNL     1      11.926   8.243  17.711  0.00  0.00    -0.008 A 
ATOM     28  C   UNL     1      10.799   8.506  16.964  0.00  0.00    +0.011 A 
ATOM     29  C   UNL     1      11.104   9.211  15.765  0.00  0.00    +0.008 A 
ATOM     32  C   UNL     1      12.453   9.460  15.640  0.00  0.00    +0.045 A 
ENDBRANCH  23  25
ENDBRANCH  20  23
ENDBRANCH  11  20
ENDBRANCH  15  18
BRANCH  19  21
ATOM     21  C   UNL     1      12.097  11.729  24.906  0.00  0.00    +0.164 C 
BRANCH  21   1
ATOM      1  S   UNL     1      10.912  13.051  25.191  0.00  0.00    -0.155 S 
ATOM     27  C   UNL     1      11.697  14.349  24.203  0.00  0.00    +0.085 C 
ENDBRANCH  21   1
ENDBRANCH  19  21
TORSDOF 9
ENDMDL
MODEL 2
REMARK VINA RESULT:      -7.4      1.993      3.137
REMARK  Name = 11882016
REMARK  10 active torsions:
REMARK  status: ('A' for Active; 'I' for Inactive)
REMARK    1  A    between atoms: S_1  and  C_21
REMARK    2  A    between atoms: S_1  and  C_27
REMARK    3  A    between atoms: N_10  and  C_14
REMARK    4  A    between atoms: N_11  and  C_20
REMARK    5  A    between atoms: N_12  and  C_26
REMARK    6  A    between atoms: C_15  and  C_18
REMARK    7  A    between atoms: C_19  and  C_21
REMARK    8  A    between atoms: C_20  and  C_23
REMARK    9  A    between atoms: C_20  and  C_24
REMARK   10  A    between atoms: C_23  and  C_25
REMARK                            x       y       z     vdW  Elec       q    Type
REMARK                         _______ _______ _______ _____ _____    ______ ____
ROOT
ATOM      6  O   UNL     1      12.294  11.847  20.657  0.00  0.00    -0.275 OA
ATOM      9  N   UNL     1      14.479  11.558  21.360  0.00  0.00    -0.287 N 
ATOM     14  C   UNL     1      16.785  11.093  21.690  0.00  0.00    +0.094 C 
ATOM     15  C   UNL     1      15.060  11.426  20.032  0.00  0.00    +0.164 C 
ATOM     16  C   UNL     1      16.568  11.545  20.243  0.00  0.00    +0.055 C 
ATOM     17  C   UNL     1      15.511  11.540  22.398  0.00  0.00    +0.131 C 
ATOM     19  C   UNL     1      13.136  11.842  21.556  0.00  0.00    +0.226 C 
ENDROOT
BRANCH  14  10
ATOM      7  O   UNL     1      19.220   9.658  21.214  0.00  0.00    -0.252 OA
ATOM     10  N   UNL     1      16.978   9.668  21.783  0.00  0.00    -0.295 N 
ATOM     12  N   UNL     1      18.092   7.658  21.701  0.00  0.00    -0.267 N 
ATOM     22  C   UNL     1      18.206   9.041  21.533  0.00  0.00    +0.304 C 
ATOM     36  H   UNL     1      16.171   9.083  21.978  0.00  0.00    +0.151 HD
ATOM     38  H   UNL     1      17.177   7.303  21.968  0.00  0.00    +0.156 HD
BRANCH  12  26
ATOM      3  F   UNL     1      18.113   5.932  19.513  0.00  0.00    -0.203 F 
ATOM      4  F   UNL     1      22.045   3.821  21.084  0.00  0.00    -0.205 F 
ATOM     26  C   UNL     1      19.099   6.678  21.542  0.00  0.00    +0.070 A 
ATOM     30  C   UNL     1      19.081   5.829  20.435  0.00  0.00    +0.147 A 
ATOM     31  C   UNL     1      20.110   6.561  22.494  0.00  0.00    +0.029 A 
ATOM     33  C   UNL     1      20.076   4.864  20.280  0.00  0.00    +0.078 A 
ATOM     34  C   UNL     1      21.106   5.595  22.340  0.00  0.00    +0.040 A 
ATOM     35  C   UNL     1      21.088   4.747  21.234  0.00  0.00    +0.126 A 
ENDBRANCH  12  26
ENDBRANCH  14  10
BRANCH  15  18
ATOM      5  O   UNL     1      15.160   9.043  19.919  0.00  0.00    -0.274 OA
ATOM     11  N   UNL     1      13.794  10.186  18.421  0.00  0.00    -0.302 N 
ATOM     18  C   UNL     1      14.687  10.085  19.474  0.00  0.00    +0.234 C 
ATOM     37  H   UNL     1      13.492  11.107  18.115  0.00  0.00    +0.150 HD
BRANCH  11  20
ATOM     20  C   UNL     1      13.295   9.040  17.695  0.00  0.00    +0.163 C 
BRANCH  20  24
ATOM      8  O   UNL     1      13.542   8.488  15.341  0.00  0.00    -0.274 OA
ATOM     13  N   UNL     1      13.417  10.702  15.944  0.00  0.00    -0.328 N 
ATOM     24  C   UNL     1      13.448   9.349  16.212  0.00  0.00    +0.231 C 
ATOM     39  H   UNL     1      13.492  11.044  14.992  0.00  0.00    +0.145 HD
ATOM     40  H   UNL     1      13.335  11.403  16.673  0.00  0.00    +0.145 HD
ENDBRANCH  20  24
BRANCH  20  23
ATOM     23  C   UNL     1      11.830   8.733  18.029  0.00  0.00    +0.074 C 
BRANCH  23  25
ATOM      2  S   UNL     1      12.510   6.638  19.734  0.00  0.00    -0.102 S 
ATOM     25  C   UNL     1      11.674   8.092  19.388  0.00  0.00    -0.008 A 
ATOM     28  C   UNL     1      10.918   8.519  20.457  0.00  0.00    +0.011 A 
ATOM     29  C   UNL     1      11.026   7.642  21.574  0.00  0.00    +0.008 A 
ATOM     32  C   UNL     1      11.861   6.577  21.318  0.00  0.00    +0.045 A 
ENDBRANCH  23  25
ENDBRANCH  20  23
ENDBRANCH  11  20
ENDBRANCH  15  18
BRANCH  19  21
ATOM     21  C   UNL     1      12.735  12.142  22.977  0.00  0.00    +0.164 C 
BRANCH  21   1
ATOM      1  S   UNL     1      11.258  11.182  23.343  0.00  0.00    -0.155 S 
ATOM     27  C   UNL     1      10.598  12.189  24.695  0.00  0.00    +0.085 C 
ENDBRANCH  21   1
ENDBRANCH  19  21
TORSDOF 9
ENDMDL
MODEL 3
REMARK VINA RESULT:      -7.3      3.996      7.559
REMARK  Name = 11882016
REMARK  10 active torsions:
REMARK  status: ('A' for Active; 'I' for Inactive)
REMARK    1  A    between atoms: S_1  and  C_21
REMARK    2  A    between atoms: S_1  and  C_27
REMARK    3  A    between atoms: N_10  and  C_14
REMARK    4  A    between atoms: N_11  and  C_20
REMARK    5  A    between atoms: N_12  and  C_26
REMARK    6  A    between atoms: C_15  and  C_18
REMARK    7  A    between atoms: C_19  and  C_21
REMARK    8  A    between atoms: C_20  and  C_23
REMARK    9  A    between atoms: C_20  and  C_24
REMARK   10  A    between atoms: C_23  and  C_25
REMARK                            x       y       z     vdW  Elec       q    Type
REMARK                         _______ _______ _______ _____ _____    ______ ____
ROOT
ATOM      6  O   UNL     1      12.728   7.321  22.055  0.00  0.00    -0.275 OA
ATOM      9  N   UNL     1      12.091   8.016  19.942  0.00  0.00    -0.287 N 
ATOM     14  C   UNL     1      11.822   8.580  17.650  0.00  0.00    +0.094 C 
ATOM     15  C   UNL     1      13.042   7.194  19.208  0.00  0.00    +0.164 C 
ATOM     16  C   UNL     1      12.581   7.254  17.754  0.00  0.00    +0.055 C 
ATOM     17  C   UNL     1      11.204   8.746  19.034  0.00  0.00    +0.131 C 
ATOM     19  C   UNL     1      11.961   7.946  21.321  0.00  0.00    +0.226 C 
ENDROOT
BRANCH  14  10
ATOM      7  O   UNL     1      12.463   9.531  15.024  0.00  0.00    -0.252 OA
ATOM     10  N   UNL     1      12.699   9.675  17.320  0.00  0.00    -0.295 N 
ATOM     12  N   UNL     1      13.845  11.163  15.994  0.00  0.00    -0.267 N 
ATOM     22  C   UNL     1      12.961  10.079  16.005  0.00  0.00    +0.304 C 
ATOM     36  H   UNL     1      13.200  10.137  18.073  0.00  0.00    +0.151 HD
ATOM     38  H   UNL     1      14.167  11.500  16.897  0.00  0.00    +0.156 HD
BRANCH  12  26
ATOM      3  F   UNL     1      15.878  10.090  14.418  0.00  0.00    -0.203 F 
ATOM      4  F   UNL     1      15.833  13.886  11.593  0.00  0.00    -0.205 F 
ATOM     26  C   UNL     1      14.354  11.856  14.871  0.00  0.00    +0.070 A 
ATOM     30  C   UNL     1      15.372  11.291  14.102  0.00  0.00    +0.147 A 
ATOM     31  C   UNL     1      13.837  13.106  14.533  0.00  0.00    +0.029 A 
ATOM     33  C   UNL     1      15.872  11.977  12.996  0.00  0.00    +0.078 A 
ATOM     34  C   UNL     1      14.337  13.792  13.426  0.00  0.00    +0.040 A 
ATOM     35  C   UNL     1      15.354  13.228  12.658  0.00  0.00    +0.126 A 
ENDBRANCH  12  26
ENDBRANCH  14  10
BRANCH  15  18
ATOM      5  O   UNL     1      14.620   8.984  19.269  0.00  0.00    -0.274 OA
ATOM     11  N   UNL     1      15.368   6.810  19.630  0.00  0.00    -0.302 N 
ATOM     18  C   UNL     1      14.412   7.779  19.376  0.00  0.00    +0.234 C 
ATOM     37  H   UNL     1      15.085   5.834  19.666  0.00  0.00    +0.150 HD
BRANCH  11  20
ATOM     20  C   UNL     1      16.770   7.110  19.808  0.00  0.00    +0.163 C 
BRANCH  20  24
ATOM      8  O   UNL     1      18.574   5.481  19.818  0.00  0.00    -0.274 OA
ATOM     13  N   UNL     1      16.965   5.329  18.185  0.00  0.00    -0.328 N 
ATOM     24  C   UNL     1      17.553   5.912  19.288  0.00  0.00    +0.231 C 
ATOM     39  H   UNL     1      17.377   4.512  17.748  0.00  0.00    +0.145 HD
ATOM     40  H   UNL     1      16.119   5.695  17.759  0.00  0.00    +0.145 HD
ENDBRANCH  20  24
BRANCH  20  23
ATOM     23  C   UNL     1      17.125   7.383  21.275  0.00  0.00    +0.074 C 
BRANCH  23  25
ATOM      2  S   UNL     1      19.451   8.652  22.137  0.00  0.00    -0.102 S 
ATOM     25  C   UNL     1      17.882   8.679  21.449  0.00  0.00    -0.008 A 
ATOM     28  C   UNL     1      17.484   9.957  21.123  0.00  0.00    +0.011 A 
ATOM     29  C   UNL     1      18.478  10.926  21.441  0.00  0.00    +0.008 A 
ATOM     32  C   UNL     1      19.600  10.353  21.999  0.00  0.00    +0.045 A 
ENDBRANCH  23  25
ENDBRANCH  20  23
ENDBRANCH  11  20
ENDBRANCH  15  18
BRANCH  19  21
ATOM     21  C   UNL     1      10.801   8.711  21.905  0.00  0.00    +0.164 C 
BRANCH  21   1
ATOM      1  S   UNL     1      11.474  10.084  22.854  0.00  0.00    -0.155 S 
ATOM     27  C   UNL     1      11.493  11.340  21.550  0.00  0.00    +0.085 C 
ENDBRANCH  21   1
ENDBRANCH  19  21
TORSDOF 9
ENDMDL
MODEL 4
REMARK VINA RESULT:      -6.5      3.885      7.142
REMARK  Name = 11882016
REMARK  10 active torsions:
REMARK  status: ('A' for Active; 'I' for Inactive)
REMARK    1  A    between atoms: S_1  and  C_21
REMARK    2  A    between atoms: S_1  and  C_27
REMARK    3  A    between atoms: N_10  and  C_14
REMARK    4  A    between atoms: N_11  and  C_20
REMARK    5  A    between atoms: N_12  and  C_26
REMARK    6  A    between atoms: C_15  and  C_18
REMARK    7  A    between atoms: C_19  and  C_21
REMARK    8  A    between atoms: C_20  and  C_23
REMARK    9  A    between atoms: C_20  and  C_24
REMARK   10  A    between atoms: C_23  and  C_25
REMARK                            x       y       z     vdW  Elec       q    Type
REMARK                         _______ _______ _______ _____ _____    ______ ____
ROOT
ATOM      6  O   UNL     1      12.750   7.970  22.280  0.00  0.00    -0.275 OA
ATOM      9  N   UNL     1      12.056   8.241  20.089  0.00  0.00    -0.287 N 
ATOM     14  C   UNL     1      11.755   8.438  17.741  0.00  0.00    +0.094 C 
ATOM     15  C   UNL     1      13.177   7.544  19.477  0.00  0.00    +0.164 C 
ATOM     16  C   UNL     1      12.762   7.320  18.025  0.00  0.00    +0.055 C 
ATOM     17  C   UNL     1      11.071   8.650  19.087  0.00  0.00    +0.131 C 
ATOM     19  C   UNL     1      11.897   8.324  21.464  0.00  0.00    +0.226 C 
ENDROOT
BRANCH  14  10
ATOM      7  O   UNL     1      12.701   8.952  15.085  0.00  0.00    -0.252 OA
ATOM     10  N   UNL     1      12.403   9.637  17.274  0.00  0.00    -0.295 N 
ATOM     12  N   UNL     1      13.426  11.069  15.794  0.00  0.00    -0.267 N 
ATOM     22  C   UNL     1      12.837   9.811  15.954  0.00  0.00    +0.304 C 
ATOM     36  H   UNL     1      12.610  10.368  17.948  0.00  0.00    +0.151 HD
ATOM     38  H   UNL     1      13.462  11.665  16.617  0.00  0.00    +0.156 HD
BRANCH  12  26
ATOM      3  F   UNL     1      16.044  10.505  15.024  0.00  0.00    -0.203 F 
ATOM      4  F   UNL     1      15.616  13.242  11.188  0.00  0.00    -0.205 F 
ATOM     26  C   UNL     1      13.987  11.622  14.620  0.00  0.00    +0.070 A 
ATOM     30  C   UNL     1      15.301  11.320  14.262  0.00  0.00    +0.147 A 
ATOM     31  C   UNL     1      13.224  12.472  13.820  0.00  0.00    +0.029 A 
ATOM     33  C   UNL     1      15.851  11.867  13.103  0.00  0.00    +0.078 A 
ATOM     34  C   UNL     1      13.775  13.020  12.661  0.00  0.00    +0.040 A 
ATOM     35  C   UNL     1      15.088  12.718  12.303  0.00  0.00    +0.126 A 
ENDBRANCH  12  26
ENDBRANCH  14  10
BRANCH  15  18
ATOM      5  O   UNL     1      15.460   8.098  19.050  0.00  0.00    -0.274 OA
ATOM     11  N   UNL     1      14.165   9.555  20.322  0.00  0.00    -0.302 N 
ATOM     18  C   UNL     1      14.395   8.413  19.574  0.00  0.00    +0.234 C 
ATOM     37  H   UNL     1      13.248   9.698  20.737  0.00  0.00    +0.150 HD
BRANCH  11  20
ATOM     20  C   UNL     1      15.184  10.546  20.585  0.00  0.00    +0.163 C 
BRANCH  20  24
ATOM      8  O   UNL     1      15.229  11.963  22.559  0.00  0.00    -0.274 OA
ATOM     13  N   UNL     1      14.976   9.697  22.838  0.00  0.00    -0.328 N 
ATOM     24  C   UNL     1      15.152  10.834  22.079  0.00  0.00    +0.231 C 
ATOM     39  H   UNL     1      14.920   9.751  23.850  0.00  0.00    +0.145 HD
ATOM     40  H   UNL     1      14.911   8.770  22.429  0.00  0.00    +0.145 HD
ENDBRANCH  20  24
BRANCH  20  23
ATOM     23  C   UNL     1      14.960  11.836  19.787  0.00  0.00    +0.074 C 
BRANCH  23  25
ATOM      2  S   UNL     1      17.713  12.262  19.755  0.00  0.00    -0.102 S 
ATOM     25  C   UNL     1      16.180  12.237  18.991  0.00  0.00    -0.008 A 
ATOM     28  C   UNL     1      16.257  12.610  17.667  0.00  0.00    +0.011 A 
ATOM     29  C   UNL     1      17.591  12.919  17.274  0.00  0.00    +0.008 A 
ATOM     32  C   UNL     1      18.484  12.771  18.313  0.00  0.00    +0.045 A 
ENDBRANCH  23  25
ENDBRANCH  20  23
ENDBRANCH  11  20
ENDBRANCH  15  18
BRANCH  19  21
ATOM     21  C   UNL     1      10.587   8.904  21.935  0.00  0.00    +0.164 C 
BRANCH  21   1
ATOM      1  S   UNL     1      10.961  10.291  23.017  0.00  0.00    -0.155 S 
ATOM     27  C   UNL     1      11.471  11.494  21.764  0.00  0.00    +0.085 C 
ENDBRANCH  21   1
ENDBRANCH  19  21
TORSDOF 9
ENDMDL
MODEL 5
REMARK VINA RESULT:      -6.3     12.581     14.936
REMARK  Name = 11882016
REMARK  10 active torsions:
REMARK  status: ('A' for Active; 'I' for Inactive)
REMARK    1  A    between atoms: S_1  and  C_21
REMARK    2  A    between atoms: S_1  and  C_27
REMARK    3  A    between atoms: N_10  and  C_14
REMARK    4  A    between atoms: N_11  and  C_20
REMARK    5  A    between atoms: N_12  and  C_26
REMARK    6  A    between atoms: C_15  and  C_18
REMARK    7  A    between atoms: C_19  and  C_21
REMARK    8  A    between atoms: C_20  and  C_23
REMARK    9  A    between atoms: C_20  and  C_24
REMARK   10  A    between atoms: C_23  and  C_25
REMARK                            x       y       z     vdW  Elec       q    Type
REMARK                         _______ _______ _______ _____ _____    ______ ____
ROOT
ATOM      6  O   UNL     1      10.371   9.996   8.420  0.00  0.00    -0.275 OA
ATOM      9  N   UNL     1      12.349  10.686   7.435  0.00  0.00    -0.287 N 
ATOM     14  C   UNL     1      14.299  11.082   6.139  0.00  0.00    +0.094 C 
ATOM     15  C   UNL     1      12.096  10.091   6.131  0.00  0.00    +0.164 C 
ATOM     16  C   UNL     1      13.146  10.701   5.205  0.00  0.00    +0.055 C 
ATOM     17  C   UNL     1      13.596  11.452   7.440  0.00  0.00    +0.131 C 
ATOM     19  C   UNL     1      11.412  10.654   8.458  0.00  0.00    +0.226 C 
ENDROOT
BRANCH  14  10
ATOM      7  O   UNL     1      17.024  10.982   5.257  0.00  0.00    -0.252 OA
ATOM     10  N   UNL     1      15.224   9.992   6.320  0.00  0.00    -0.295 N 
ATOM     12  N   UNL     1      17.203   8.830   6.178  0.00  0.00    -0.267 N 
ATOM     22  C   UNL     1      16.546  10.022   5.858  0.00  0.00    +0.304 C 
ATOM     36  H   UNL     1      14.885   9.137   6.750  0.00  0.00    +0.151 HD
ATOM     38  H   UNL     1      16.663   8.130   6.680  0.00  0.00    +0.156 HD
BRANCH  12  26
ATOM      3  F   UNL     1      17.952   7.936   3.647  0.00  0.00    -0.203 F 
ATOM      4  F   UNL     1      22.444   7.423   5.044  0.00  0.00    -0.205 F 
ATOM     26  C   UNL     1      18.539   8.470   5.886  0.00  0.00    +0.070 A 
ATOM     30  C   UNL     1      18.882   8.026   4.609  0.00  0.00    +0.147 A 
ATOM     31  C   UNL     1      19.514   8.559   6.879  0.00  0.00    +0.029 A 
ATOM     33  C   UNL     1      20.200   7.672   4.324  0.00  0.00    +0.078 A 
ATOM     34  C   UNL     1      20.834   8.204   6.594  0.00  0.00    +0.040 A 
ATOM     35  C   UNL     1      21.176   7.761   5.318  0.00  0.00    +0.126 A 
ENDBRANCH  12  26
ENDBRANCH  14  10
BRANCH  15  18
ATOM      5  O   UNL     1      13.104   8.095   6.966  0.00  0.00    -0.274 OA
ATOM     11  N   UNL     1      11.365   7.922   5.429  0.00  0.00    -0.302 N 
ATOM     18  C   UNL     1      12.254   8.605   6.241  0.00  0.00    +0.234 C 
ATOM     37  H   UNL     1      10.723   8.451   4.845  0.00  0.00    +0.150 HD
BRANCH  11  20
ATOM     20  C   UNL     1      11.328   6.480   5.335  0.00  0.00    +0.163 C 
BRANCH  20  24
ATOM      8  O   UNL     1      12.643   6.781   3.313  0.00  0.00    -0.274 OA
ATOM     13  N   UNL     1      11.316   4.914   3.494  0.00  0.00    -0.328 N 
ATOM     24  C   UNL     1      11.831   6.111   3.946  0.00  0.00    +0.231 C 
ATOM     39  H   UNL     1      11.583   4.544   2.588  0.00  0.00    +0.145 HD
ATOM     40  H   UNL     1      10.647   4.369   4.029  0.00  0.00    +0.145 HD
ENDBRANCH  20  24
BRANCH  20  23
ATOM     23  C   UNL     1       9.918   5.918   5.560  0.00  0.00    +0.074 C 
BRANCH  23  25
ATOM      2  S   UNL     1       9.177   6.568   8.165  0.00  0.00    -0.102 S 
ATOM     25  C   UNL     1       9.708   5.451   6.981  0.00  0.00    -0.008 A 
ATOM     28  C   UNL     1       9.888   4.190   7.505  0.00  0.00    +0.011 A 
ATOM     29  C   UNL     1       9.587   4.140   8.897  0.00  0.00    +0.008 A 
ATOM     32  C   UNL     1       9.187   5.365   9.384  0.00  0.00    +0.045 A 
ENDBRANCH  23  25
ENDBRANCH  20  23
ENDBRANCH  11  20
ENDBRANCH  15  18
BRANCH  19  21
ATOM     21  C   UNL     1      11.746  11.482   9.672  0.00  0.00    +0.164 C 
BRANCH  21   1
ATOM      1  S   UNL     1      10.302  12.481  10.066  0.00  0.00    -0.155 S 
ATOM     27  C   UNL     1      10.076  11.975  11.790  0.00  0.00    +0.085 C 
ENDBRANCH  21   1
ENDBRANCH  19  21
TORSDOF 9
ENDMDL
MODEL 6
REMARK VINA RESULT:      -6.3     27.100     30.327
REMARK  Name = 11882016
REMARK  10 active torsions:
REMARK  status: ('A' for Active; 'I' for Inactive)
REMARK    1  A    between atoms: S_1  and  C_21
REMARK    2  A    between atoms: S_1  and  C_27
REMARK    3  A    between atoms: N_10  and  C_14
REMARK    4  A    between atoms: N_11  and  C_20
REMARK    5  A    between atoms: N_12  and  C_26
REMARK    6  A    between atoms: C_15  and  C_18
REMARK    7  A    between atoms: C_19  and  C_21
REMARK    8  A    between atoms: C_20  and  C_23
REMARK    9  A    between atoms: C_20  and  C_24
REMARK   10  A    between atoms: C_23  and  C_25
REMARK                            x       y       z     vdW  Elec       q    Type
REMARK                         _______ _______ _______ _____ _____    ______ ____
ROOT
ATOM      6  O   UNL     1     -12.706   7.134  36.427  0.00  0.00    -0.275 OA
ATOM      9  N   UNL     1     -12.498   8.908  34.957  0.00  0.00    -0.287 N 
ATOM     14  C   UNL     1     -12.621  10.553  33.247  0.00  0.00    +0.094 C 
ATOM     15  C   UNL     1     -13.844   8.824  34.411  0.00  0.00    +0.164 C 
ATOM     16  C   UNL     1     -14.040  10.124  33.633  0.00  0.00    +0.055 C 
ATOM     17  C   UNL     1     -11.770  10.055  34.411  0.00  0.00    +0.131 C 
ATOM     19  C   UNL     1     -12.066   8.092  35.992  0.00  0.00    +0.226 C 
ENDROOT
BRANCH  14  10
ATOM      7  O   UNL     1     -12.774  11.775  30.660  0.00  0.00    -0.252 OA
ATOM     10  N   UNL     1     -12.208   9.973  31.995  0.00  0.00    -0.295 N 
ATOM     12  N   UNL     1     -11.838   9.833  29.730  0.00  0.00    -0.267 N 
ATOM     22  C   UNL     1     -12.317  10.639  30.767  0.00  0.00    +0.304 C 
ATOM     36  H   UNL     1     -11.880   9.012  31.992  0.00  0.00    +0.151 HD
ATOM     38  H   UNL     1     -11.492   8.913  29.987  0.00  0.00    +0.156 HD
BRANCH  12  26
ATOM      3  F   UNL     1     -14.149  10.198  28.214  0.00  0.00    -0.203 F 
ATOM      4  F   UNL     1     -11.590  11.036  24.324  0.00  0.00    -0.205 F 
ATOM     26  C   UNL     1     -11.777  10.140  28.351  0.00  0.00    +0.070 A 
ATOM     30  C   UNL     1     -12.953  10.316  27.620  0.00  0.00    +0.147 A 
ATOM     31  C   UNL     1     -10.539  10.264  27.721  0.00  0.00    +0.029 A 
ATOM     33  C   UNL     1     -12.889  10.619  26.260  0.00  0.00    +0.078 A 
ATOM     34  C   UNL     1     -10.476  10.566  26.360  0.00  0.00    +0.040 A 
ATOM     35  C   UNL     1     -11.651  10.743  25.630  0.00  0.00    +0.126 A 
ENDBRANCH  12  26
ENDBRANCH  14  10
BRANCH  15  18
ATOM      5  O   UNL     1     -13.248   7.536  32.492  0.00  0.00    -0.274 OA
ATOM     11  N   UNL     1     -14.846   6.696  33.962  0.00  0.00    -0.302 N 
ATOM     18  C   UNL     1     -13.925   7.627  33.513  0.00  0.00    +0.234 C 
ATOM     37  H   UNL     1     -15.375   6.893  34.807  0.00  0.00    +0.150 HD
BRANCH  11  20
ATOM     20  C   UNL     1     -15.130   5.464  33.262  0.00  0.00    +0.163 C 
BRANCH  20  24
ATOM      8  O   UNL     1     -17.380   4.627  32.882  0.00  0.00    -0.274 OA
ATOM     13  N   UNL     1     -16.726   5.085  35.037  0.00  0.00    -0.328 N 
ATOM     24  C   UNL     1     -16.529   5.029  33.673  0.00  0.00    +0.231 C 
ATOM     39  H   UNL     1     -17.612   4.807  35.445  0.00  0.00    +0.145 HD
ATOM     40  H   UNL     1     -16.014   5.417  35.679  0.00  0.00    +0.145 HD
ENDBRANCH  20  24
BRANCH  20  23
ATOM     23  C   UNL     1     -14.112   4.363  33.587  0.00  0.00    +0.074 C 
BRANCH  23  25
ATOM      2  S   UNL     1     -14.654   1.698  32.985  0.00  0.00    -0.102 S 
ATOM     25  C   UNL     1     -14.108   3.262  32.552  0.00  0.00    -0.008 A 
ATOM     28  C   UNL     1     -13.710   3.324  31.235  0.00  0.00    +0.011 A 
ATOM     29  C   UNL     1     -13.854   2.071  30.572  0.00  0.00    +0.008 A 
ATOM     32  C   UNL     1     -14.358   1.099  31.408  0.00  0.00    +0.045 A 
ENDBRANCH  23  25
ENDBRANCH  20  23
ENDBRANCH  11  20
ENDBRANCH  15  18
BRANCH  19  21
ATOM     21  C   UNL     1     -10.719   8.437  36.575  0.00  0.00    +0.164 C 
BRANCH  21   1
ATOM      1  S   UNL     1     -10.995   9.156  38.201  0.00  0.00    -0.155 S 
ATOM     27  C   UNL     1      -9.849   8.130  39.157  0.00  0.00    +0.085 C 
ENDBRANCH  21   1
ENDBRANCH  19  21
TORSDOF 9
ENDMDL
MODEL 7
REMARK VINA RESULT:      -6.2     15.064     17.931
REMARK  Name = 11882016
REMARK  10 active torsions:
REMARK  status: ('A' for Active; 'I' for Inactive)
REMARK    1  A    between atoms: S_1  and  C_21
REMARK    2  A    between atoms: S_1  and  C_27
REMARK    3  A    between atoms: N_10  and  C_14
REMARK    4  A    between atoms: N_11  and  C_20
REMARK    5  A    between atoms: N_12  and  C_26
REMARK    6  A    between atoms: C_15  and  C_18
REMARK    7  A    between atoms: C_19  and  C_21
REMARK    8  A    between atoms: C_20  and  C_23
REMARK    9  A    between atoms: C_20  and  C_24
REMARK   10  A    between atoms: C_23  and  C_25
REMARK                            x       y       z     vdW  Elec       q    Type
REMARK                         _______ _______ _______ _____ _____    ______ ____
ROOT
ATOM      6  O   UNL     1       9.103   8.761   7.632  0.00  0.00    -0.275 OA
ATOM      9  N   UNL     1       9.242   6.897   6.268  0.00  0.00    -0.287 N 
ATOM     14  C   UNL     1       9.701   4.859   5.136  0.00  0.00    +0.094 C 
ATOM     15  C   UNL     1       9.938   6.049   7.226  0.00  0.00    +0.164 C 
ATOM     16  C   UNL     1       9.853   4.639   6.644  0.00  0.00    +0.055 C 
ATOM     17  C   UNL     1       8.916   6.164   5.044  0.00  0.00    +0.131 C 
ATOM     19  C   UNL     1       8.807   8.174   6.590  0.00  0.00    +0.226 C 
ENDROOT
BRANCH  14  10
ATOM      7  O   UNL     1      10.202   4.614   2.325  0.00  0.00    -0.252 OA
ATOM     10  N   UNL     1      10.978   4.955   4.477  0.00  0.00    -0.295 N 
ATOM     12  N   UNL     1      12.486   4.962   2.741  0.00  0.00    -0.267 N 
ATOM     22  C   UNL     1      11.140   4.823   3.092  0.00  0.00    +0.304 C 
ATOM     36  H   UNL     1      11.811   5.061   5.049  0.00  0.00    +0.151 HD
ATOM     38  H   UNL     1      13.141   5.132   3.499  0.00  0.00    +0.156 HD
BRANCH  12  26
ATOM      3  F   UNL     1      12.973   2.519   1.490  0.00  0.00    -0.203 F 
ATOM      4  F   UNL     1      14.726   4.703  -2.324  0.00  0.00    -0.205 F 
ATOM     26  C   UNL     1      13.058   4.893   1.449  0.00  0.00    +0.070 A 
ATOM     30  C   UNL     1      13.289   3.655   0.851  0.00  0.00    +0.147 A 
ATOM     31  C   UNL     1      13.391   6.067   0.774  0.00  0.00    +0.029 A 
ATOM     33  C   UNL     1      13.853   3.590  -0.423  0.00  0.00    +0.078 A 
ATOM     34  C   UNL     1      13.955   6.003  -0.500  0.00  0.00    +0.040 A 
ATOM     35  C   UNL     1      14.186   4.765  -1.098  0.00  0.00    +0.126 A 
ENDBRANCH  12  26
ENDBRANCH  14  10
BRANCH  15  18
ATOM      5  O   UNL     1      12.148   6.002   8.126  0.00  0.00    -0.274 OA
ATOM     11  N   UNL     1      11.633   7.567   6.483  0.00  0.00    -0.302 N 
ATOM     18  C   UNL     1      11.358   6.514   7.337  0.00  0.00    +0.234 C 
ATOM     37  H   UNL     1      10.891   7.932   5.893  0.00  0.00    +0.150 HD
BRANCH  11  20
ATOM     20  C   UNL     1      12.925   8.213   6.413  0.00  0.00    +0.163 C 
BRANCH  20  24
ATOM      8  O   UNL     1      12.280  10.433   5.664  0.00  0.00    -0.274 OA
ATOM     13  N   UNL     1      12.927  10.155   7.851  0.00  0.00    -0.328 N 
ATOM     24  C   UNL     1      12.687   9.708   6.569  0.00  0.00    +0.231 C 
ATOM     39  H   UNL     1      12.791  11.130   8.095  0.00  0.00    +0.145 HD
ATOM     40  H   UNL     1      13.260   9.545   8.590  0.00  0.00    +0.145 HD
ENDBRANCH  20  24
BRANCH  20  23
ATOM     23  C   UNL     1      13.650   7.922   5.093  0.00  0.00    +0.074 C 
BRANCH  23  25
ATOM      2  S   UNL     1      15.829   8.975   3.713  0.00  0.00    -0.102 S 
ATOM     25  C   UNL     1      15.100   8.348   5.130  0.00  0.00    -0.008 A 
ATOM     28  C   UNL     1      15.980   8.307   6.189  0.00  0.00    +0.011 A 
ATOM     29  C   UNL     1      17.269   8.797   5.833  0.00  0.00    +0.008 A 
ATOM     32  C   UNL     1      17.326   9.194   4.515  0.00  0.00    +0.045 A 
ENDBRANCH  23  25
ENDBRANCH  20  23
ENDBRANCH  11  20
ENDBRANCH  15  18
BRANCH  19  21
ATOM     21  C   UNL     1       7.934   8.843   5.559  0.00  0.00    +0.164 C 
BRANCH  21   1
ATOM      1  S   UNL     1       8.842  10.250   4.904  0.00  0.00    -0.155 S 
ATOM     27  C   UNL     1       9.669   9.428   3.519  0.00  0.00    +0.085 C 
ENDBRANCH  21   1
ENDBRANCH  19  21
TORSDOF 9
ENDMDL
MODEL 8
REMARK VINA RESULT:      -6.2     27.194     29.973
REMARK  Name = 11882016
REMARK  10 active torsions:
REMARK  status: ('A' for Active; 'I' for Inactive)
REMARK    1  A    between atoms: S_1  and  C_21
REMARK    2  A    between atoms: S_1  and  C_27
REMARK    3  A    between atoms: N_10  and  C_14
REMARK    4  A    between atoms: N_11  and  C_20
REMARK    5  A    between atoms: N_12  and  C_26
REMARK    6  A    between atoms: C_15  and  C_18
REMARK    7  A    between atoms: C_19  and  C_21
REMARK    8  A    between atoms: C_20  and  C_23
REMARK    9  A    between atoms: C_20  and  C_24
REMARK   10  A    between atoms: C_23  and  C_25
REMARK                            x       y       z     vdW  Elec       q    Type
REMARK                         _______ _______ _______ _____ _____    ______ ____
ROOT
ATOM      6  O   UNL     1      -9.306 -10.837  20.043  0.00  0.00    -0.275 OA
ATOM      9  N   UNL     1      -9.637 -10.915  17.755  0.00  0.00    -0.287 N 
ATOM     14  C   UNL     1      -9.592 -11.187  15.395  0.00  0.00    +0.094 C 
ATOM     15  C   UNL     1      -8.663 -11.963  17.486  0.00  0.00    +0.164 C 
ATOM     16  C   UNL     1      -8.942 -12.409  16.053  0.00  0.00    +0.055 C 
ATOM     17  C   UNL     1     -10.358 -10.532  16.539  0.00  0.00    +0.131 C 
ATOM     19  C   UNL     1      -9.936 -10.494  19.042  0.00  0.00    +0.226 C 
ENDROOT
BRANCH  14  10
ATOM      7  O   UNL     1      -7.950 -11.683  13.099  0.00  0.00    -0.252 OA
ATOM     10  N   UNL     1      -8.609 -10.298  14.830  0.00  0.00    -0.295 N 
ATOM     12  N   UNL     1      -6.979  -9.564  13.383  0.00  0.00    -0.267 N 
ATOM     22  C   UNL     1      -7.845 -10.616  13.700  0.00  0.00    +0.304 C 
ATOM     36  H   UNL     1      -8.417  -9.422  15.308  0.00  0.00    +0.151 HD
ATOM     38  H   UNL     1      -7.015  -8.745  13.984  0.00  0.00    +0.156 HD
BRANCH  12  26
ATOM      3  F   UNL     1      -7.711  -8.624  10.863  0.00  0.00    -0.203 F 
ATOM      4  F   UNL     1      -3.324  -9.301   9.223  0.00  0.00    -0.205 F 
ATOM     26  C   UNL     1      -6.049  -9.497  12.321  0.00  0.00    +0.070 A 
ATOM     30  C   UNL     1      -6.447  -9.021  11.070  0.00  0.00    +0.147 A 
ATOM     31  C   UNL     1      -4.732  -9.907  12.523  0.00  0.00    +0.029 A 
ATOM     33  C   UNL     1      -5.527  -8.955  10.024  0.00  0.00    +0.078 A 
ATOM     34  C   UNL     1      -3.812  -9.841  11.477  0.00  0.00    +0.040 A 
ATOM     35  C   UNL     1      -4.209  -9.366  10.228  0.00  0.00    +0.126 A 
ENDBRANCH  12  26
ENDBRANCH  14  10
BRANCH  15  18
ATOM      5  O   UNL     1      -7.089 -10.175  17.636  0.00  0.00    -0.274 OA
ATOM     11  N   UNL     1      -6.314 -12.368  17.712  0.00  0.00    -0.302 N 
ATOM     18  C   UNL     1      -7.286 -11.387  17.626  0.00  0.00    +0.234 C 
ATOM     37  H   UNL     1      -6.592 -13.345  17.661  0.00  0.00    +0.150 HD
BRANCH  11  20
ATOM     20  C   UNL     1      -4.903 -12.076  17.829  0.00  0.00    +0.163 C 
BRANCH  20  24
ATOM      8  O   UNL     1      -5.443 -11.530  20.135  0.00  0.00    -0.274 OA
ATOM     13  N   UNL     1      -3.310 -12.228  19.641  0.00  0.00    -0.328 N 
ATOM     24  C   UNL     1      -4.607 -11.893  19.311  0.00  0.00    +0.231 C 
ATOM     39  H   UNL     1      -2.987 -12.166  20.600  0.00  0.00    +0.145 HD
ATOM     40  H   UNL     1      -2.631 -12.529  18.950  0.00  0.00    +0.145 HD
ENDBRANCH  20  24
BRANCH  20  23
ATOM     23  C   UNL     1      -4.503 -10.820  17.045  0.00  0.00    +0.074 C 
BRANCH  23  25
ATOM      2  S   UNL     1      -3.507 -12.392  14.972  0.00  0.00    -0.102 S 
ATOM     25  C   UNL     1      -3.377 -11.086  16.073  0.00  0.00    -0.008 A 
ATOM     28  C   UNL     1      -2.191 -10.402  15.925  0.00  0.00    +0.011 A 
ATOM     29  C   UNL     1      -1.378 -10.957  14.895  0.00  0.00    +0.008 A 
ATOM     32  C   UNL     1      -1.973 -12.043  14.294  0.00  0.00    +0.045 A 
ENDBRANCH  23  25
ENDBRANCH  20  23
ENDBRANCH  11  20
ENDBRANCH  15  18
BRANCH  19  21
ATOM     21  C   UNL     1     -11.103  -9.547  19.163  0.00  0.00    +0.164 C 
BRANCH  21   1
ATOM      1  S   UNL     1     -12.386 -10.381  20.108  0.00  0.00    -0.155 S 
ATOM     27  C   UNL     1     -13.449 -10.900  18.737  0.00  0.00    +0.085 C 
ENDBRANCH  21   1
ENDBRANCH  19  21
TORSDOF 9
ENDMDL
MODEL 9
REMARK VINA RESULT:      -6.2     10.452     13.037
REMARK  Name = 11882016
REMARK  10 active torsions:
REMARK  status: ('A' for Active; 'I' for Inactive)
REMARK    1  A    between atoms: S_1  and  C_21
REMARK    2  A    between atoms: S_1  and  C_27
REMARK    3  A    between atoms: N_10  and  C_14
REMARK    4  A    between atoms: N_11  and  C_20
REMARK    5  A    between atoms: N_12  and  C_26
REMARK    6  A    between atoms: C_15  and  C_18
REMARK    7  A    between atoms: C_19  and  C_21
REMARK    8  A    between atoms: C_20  and  C_23
REMARK    9  A    between atoms: C_20  and  C_24
REMARK   10  A    between atoms: C_23  and  C_25
REMARK                            x       y       z     vdW  Elec       q    Type
REMARK                         _______ _______ _______ _____ _____    ______ ____
ROOT
ATOM      6  O   UNL     1      24.806   3.483  26.967  0.00  0.00    -0.275 OA
ATOM      9  N   UNL     1      23.549   1.552  27.176  0.00  0.00    -0.287 N 
ATOM     14  C   UNL     1      22.298  -0.456  26.961  0.00  0.00    +0.094 C 
ATOM     15  C   UNL     1      23.923   0.976  25.892  0.00  0.00    +0.164 C 
ATOM     16  C   UNL     1      23.451  -0.475  25.954  0.00  0.00    +0.055 C 
ATOM     17  C   UNL     1      22.701   0.639  27.943  0.00  0.00    +0.131 C 
ATOM     19  C   UNL     1      24.095   2.738  27.643  0.00  0.00    +0.226 C 
ENDROOT
BRANCH  14  10
ATOM      7  O   UNL     1      20.572  -2.332  25.652  0.00  0.00    -0.252 OA
ATOM     10  N   UNL     1      21.036  -0.169  26.327  0.00  0.00    -0.295 N 
ATOM     12  N   UNL     1      19.085  -0.577  25.181  0.00  0.00    -0.267 N 
ATOM     22  C   UNL     1      20.249  -1.147  25.706  0.00  0.00    +0.304 C 
ATOM     36  H   UNL     1      20.731   0.798  26.273  0.00  0.00    +0.151 HD
ATOM     38  H   UNL     1      18.967   0.424  25.311  0.00  0.00    +0.156 HD
BRANCH  12  26
ATOM      3  F   UNL     1      17.111  -2.019  26.520  0.00  0.00    -0.203 F 
ATOM      4  F   UNL     1      14.993  -3.113  22.433  0.00  0.00    -0.205 F 
ATOM     26  C   UNL     1      18.041  -1.225  24.482  0.00  0.00    +0.070 A 
ATOM     30  C   UNL     1      17.068  -1.940  25.182  0.00  0.00    +0.147 A 
ATOM     31  C   UNL     1      17.985  -1.150  23.091  0.00  0.00    +0.029 A 
ATOM     33  C   UNL     1      16.038  -2.577  24.490  0.00  0.00    +0.078 A 
ATOM     34  C   UNL     1      16.955  -1.789  22.398  0.00  0.00    +0.040 A 
ATOM     35  C   UNL     1      15.983  -2.502  23.098  0.00  0.00    +0.126 A 
ENDBRANCH  12  26
ENDBRANCH  14  10
BRANCH  15  18
ATOM      5  O   UNL     1      22.078   2.148  24.932  0.00  0.00    -0.274 OA
ATOM     11  N   UNL     1      24.019   1.877  23.676  0.00  0.00    -0.302 N 
ATOM     18  C   UNL     1      23.228   1.736  24.803  0.00  0.00    +0.234 C 
ATOM     37  H   UNL     1      24.948   1.466  23.669  0.00  0.00    +0.150 HD
BRANCH  11  20
ATOM     20  C   UNL     1      23.573   2.550  22.477  0.00  0.00    +0.163 C 
BRANCH  20  24
ATOM      8  O   UNL     1      24.773   0.747  21.374  0.00  0.00    -0.274 OA
ATOM     13  N   UNL     1      23.278   1.985  20.145  0.00  0.00    -0.328 N 
ATOM     24  C   UNL     1      23.965   1.670  21.298  0.00  0.00    +0.231 C 
ATOM     39  H   UNL     1      23.433   1.464  19.289  0.00  0.00    +0.145 HD
ATOM     40  H   UNL     1      22.611   2.749  20.097  0.00  0.00    +0.145 HD
ENDBRANCH  20  24
BRANCH  20  23
ATOM     23  C   UNL     1      24.191   3.946  22.329  0.00  0.00    +0.074 C 
BRANCH  23  25
ATOM      2  S   UNL     1      24.205   5.948  24.266  0.00  0.00    -0.102 S 
ATOM     25  C   UNL     1      23.412   5.000  23.081  0.00  0.00    -0.008 A 
ATOM     28  C   UNL     1      22.083   5.337  22.955  0.00  0.00    +0.011 A 
ATOM     29  C   UNL     1      21.710   6.387  23.843  0.00  0.00    +0.008 A 
ATOM     32  C   UNL     1      22.769   6.813  24.614  0.00  0.00    +0.045 A 
ENDBRANCH  23  25
ENDBRANCH  20  23
ENDBRANCH  11  20
ENDBRANCH  15  18
BRANCH  19  21
ATOM     21  C   UNL     1      23.756   3.094  29.067  0.00  0.00    +0.164 C 
BRANCH  21   1
ATOM      1  S   UNL     1      23.422   4.861  29.124  0.00  0.00    -0.155 S 
ATOM     27  C   UNL     1      21.857   4.879  28.214  0.00  0.00    +0.085 C 
ENDBRANCH  21   1
ENDBRANCH  19  21
TORSDOF 9
ENDMDL
MODEL 10
REMARK VINA RESULT:      -6.1      2.360      5.247
REMARK  Name = 11882016
REMARK  10 active torsions:
REMARK  status: ('A' for Active; 'I' for Inactive)
REMARK    1  A    between atoms: S_1  and  C_21
REMARK    2  A    between atoms: S_1  and  C_27
REMARK    3  A    between atoms: N_10  and  C_14
REMARK    4  A    between atoms: N_11  and  C_20
REMARK    5  A    between atoms: N_12  and  C_26
REMARK    6  A    between atoms: C_15  and  C_18
REMARK    7  A    between atoms: C_19  and  C_21
REMARK    8  A    between atoms: C_20  and  C_23
REMARK    9  A    between atoms: C_20  and  C_24
REMARK   10  A    between atoms: C_23  and  C_25
REMARK                            x       y       z     vdW  Elec       q    Type
REMARK                         _______ _______ _______ _____ _____    ______ ____
ROOT
ATOM      6  O   UNL     1      12.473  10.908  19.310  0.00  0.00    -0.275 OA
ATOM      9  N   UNL     1      13.128   8.724  19.707  0.00  0.00    -0.287 N 
ATOM     14  C   UNL     1      13.743   6.583  20.531  0.00  0.00    +0.094 C 
ATOM     15  C   UNL     1      12.568   8.630  21.047  0.00  0.00    +0.164 C 
ATOM     16  C   UNL     1      12.605   7.142  21.390  0.00  0.00    +0.055 C 
ATOM     17  C   UNL     1      13.699   7.448  19.276  0.00  0.00    +0.131 C 
ATOM     19  C   UNL     1      12.959   9.848  18.912  0.00  0.00    +0.226 C 
ENDROOT
BRANCH  14  10
ATOM      7  O   UNL     1      16.334   6.382  19.324  0.00  0.00    -0.252 OA
ATOM     10  N   UNL     1      15.015   6.674  21.201  0.00  0.00    -0.295 N 
ATOM     12  N   UNL     1      17.302   6.694  21.440  0.00  0.00    -0.267 N 
ATOM     22  C   UNL     1      16.243   6.565  20.536  0.00  0.00    +0.304 C 
ATOM     36  H   UNL     1      15.023   6.760  22.213  0.00  0.00    +0.151 HD
ATOM     38  H   UNL     1      17.055   6.842  22.415  0.00  0.00    +0.156 HD
BRANCH  12  26
ATOM      3  F   UNL     1      18.934   8.931  21.751  0.00  0.00    -0.203 F 
ATOM      4  F   UNL     1      22.736   6.478  20.365  0.00  0.00    -0.205 F 
ATOM     26  C   UNL     1      18.688   6.641  21.166  0.00  0.00    +0.070 A 
ATOM     30  C   UNL     1      19.478   7.779  21.332  0.00  0.00    +0.147 A 
ATOM     31  C   UNL     1      19.265   5.450  20.729  0.00  0.00    +0.029 A 
ATOM     33  C   UNL     1      20.845   7.724  21.061  0.00  0.00    +0.078 A 
ATOM     34  C   UNL     1      20.632   5.395  20.457  0.00  0.00    +0.040 A 
ATOM     35  C   UNL     1      21.422   6.532  20.623  0.00  0.00    +0.126 A 
ENDBRANCH  12  26
ENDBRANCH  14  10
BRANCH  15  18
ATOM      5  O   UNL     1      14.527   9.042  22.347  0.00  0.00    -0.274 OA
ATOM     11  N   UNL     1      12.803  10.605  22.380  0.00  0.00    -0.302 N 
ATOM     18  C   UNL     1      13.421   9.431  21.983  0.00  0.00    +0.234 C 
ATOM     37  H   UNL     1      11.869  10.812  22.038  0.00  0.00    +0.150 HD
BRANCH  11  20
ATOM     20  C   UNL     1      13.406  11.544  23.299  0.00  0.00    +0.163 C 
BRANCH  20  24
ATOM      8  O   UNL     1      11.721  13.085  24.132  0.00  0.00    -0.274 OA
ATOM     13  N   UNL     1      12.005  11.077  25.212  0.00  0.00    -0.328 N 
ATOM     24  C   UNL     1      12.308  12.011  24.244  0.00  0.00    +0.231 C 
ATOM     39  H   UNL     1      11.279  11.257  25.897  0.00  0.00    +0.145 HD
ATOM     40  H   UNL     1      12.496  10.192  25.291  0.00  0.00    +0.145 HD
ENDBRANCH  20  24
BRANCH  20  23
ATOM     23  C   UNL     1      14.034  12.743  22.576  0.00  0.00    +0.074 C 
BRANCH  23  25
ATOM      2  S   UNL     1      16.734  12.305  23.106  0.00  0.00    -0.102 S 
ATOM     25  C   UNL     1      15.407  12.427  22.030  0.00  0.00    -0.008 A 
ATOM     28  C   UNL     1      15.781  12.211  20.722  0.00  0.00    +0.011 A 
ATOM     29  C   UNL     1      17.175  11.940  20.601  0.00  0.00    +0.008 A 
ATOM     32  C   UNL     1      17.813  11.960  21.822  0.00  0.00    +0.045 A 
ENDBRANCH  23  25
ENDBRANCH  20  23
ENDBRANCH  11  20
ENDBRANCH  15  18
BRANCH  19  21
ATOM     21  C   UNL     1      13.427   9.712  17.485  0.00  0.00    +0.164 C 
BRANCH  21   1
ATOM      1  S   UNL     1      14.606  11.033  17.169  0.00  0.00    -0.155 S 
ATOM     27  C   UNL     1      14.891  10.736  15.406  0.00  0.00    +0.085 C 
ENDBRANCH  21   1
ENDBRANCH  19  21
TORSDOF 9
ENDMDL
