MODEL 1
REMARK VINA RESULT:      -7.1      0.000      0.000
REMARK  Name = 71693171
REMARK  12 active torsions:
REMARK  status: ('A' for Active; 'I' for Inactive)
REMARK    1  A    between atoms: O_2  and  C_31
REMARK    2  A    between atoms: O_2  and  C_34
REMARK    3  A    between atoms: N_4  and  C_16
REMARK    4  A    between atoms: C_9  and  C_13
REMARK    5  A    between atoms: C_10  and  C_16
REMARK    6  A    between atoms: C_12  and  C_17
REMARK    7  A    between atoms: C_13  and  C_18
REMARK    8  A    between atoms: C_13  and  C_19
REMARK    9  A    between atoms: C_14  and  C_20
REMARK   10  A    between atoms: C_17  and  C_21
REMARK   11  A    between atoms: C_22  and  C_27
REMARK   12  A    between atoms: C_28  and  C_31
REMARK                            x       y       z     vdW  Elec       q    Type
REMARK                         _______ _______ _______ _____ _____    ______ ____
ROOT
ATOM      9  C   UNL     1      13.126   8.035  19.822  0.00  0.00    +0.000 C 
ATOM     10  C   UNL     1      13.085   9.543  19.470  0.00  0.00    +0.032 C 
ATOM     11  C   UNL     1      14.091   7.783  20.990  0.00  0.00    +0.012 C 
ATOM     12  C   UNL     1      15.524   8.248  20.674  0.00  0.00    +0.022 C 
ATOM     14  C   UNL     1      15.544   9.636  20.067  0.00  0.00    -0.073 C 
ATOM     15  C   UNL     1      14.441  10.204  19.546  0.00  0.00    -0.022 C 
ATOM     20  C   UNL     1      16.851  10.377  20.114  0.00  0.00    +0.039 C 
ENDROOT
BRANCH   9  13
ATOM     13  C   UNL     1      11.735   7.495  20.172  0.00  0.00    -0.013 C 
ATOM     18  C   UNL     1      10.910   8.567  20.877  0.00  0.00    +0.007 C 
ATOM     19  C   UNL     1      11.852   6.245  21.039  0.00  0.00    +0.007 C 
ENDBRANCH   9  13
BRANCH  10  16
ATOM     16  C   UNL     1      12.484   9.770  18.079  0.00  0.00    +0.112 C 
BRANCH  16   4
ATOM      1  O   UNL     1      12.887   9.497  15.249  0.00  0.00    -0.268 OA
ATOM      4  N   UNL     1      13.368  10.543  17.264  0.00  0.00    -0.309 N 
ATOM     22  C   UNL     1      13.503  10.344  15.890  0.00  0.00    +0.264 C 
ATOM     35  H   UNL     1      13.893  11.297  17.698  0.00  0.00    +0.149 HD
BRANCH  22  27
ATOM      7  N   UNL     1      14.488  11.155  13.843  0.00  0.00    -0.247 NA
ATOM      8  N   UNL     1      16.239  12.823  15.264  0.00  0.00    -0.259 NA
ATOM     27  C   UNL     1      14.483  11.212  15.190  0.00  0.00    +0.143 A 
ATOM     30  C   UNL     1      15.343  12.032  15.887  0.00  0.00    +0.143 A 
ATOM     32  C   UNL     1      15.383  11.945  13.220  0.00  0.00    +0.131 A 
ATOM     33  C   UNL     1      16.243  12.764  13.917  0.00  0.00    +0.130 A 
ENDBRANCH  22  27
ENDBRANCH  16   4
ENDBRANCH  10  16
BRANCH  12  17
ATOM     17  C   UNL     1      16.243   7.243  19.767  0.00  0.00    +0.082 C 
BRANCH  17  21
ATOM      5  N   UNL     1      18.367   5.924  19.709  0.00  0.00    -0.342 N 
ATOM      6  N   UNL     1      18.043   7.164  21.526  0.00  0.00    -0.232 NA
ATOM     21  C   UNL     1      17.547   6.798  20.365  0.00  0.00    +0.109 A 
ATOM     23  C   UNL     1      19.468   5.711  20.499  0.00  0.00    +0.067 A 
ATOM     24  C   UNL     1      19.243   6.496  21.627  0.00  0.00    +0.089 A 
ATOM     25  C   UNL     1      20.607   4.924  20.329  0.00  0.00    +0.042 A 
ATOM     26  C   UNL     1      20.199   6.508  22.655  0.00  0.00    +0.030 A 
ATOM     28  C   UNL     1      21.549   4.948  21.362  0.00  0.00    +0.061 A 
ATOM     29  C   UNL     1      21.351   5.725  22.506  0.00  0.00    +0.017 A 
ATOM     36  H   UNL     1      18.196   5.507  18.803  0.00  0.00    +0.167 HD
BRANCH  28  31
ATOM      3  O   UNL     1      22.947   3.073  21.829  0.00  0.00    -0.245 OA
ATOM     31  C   UNL     1      22.758   4.146  21.242  0.00  0.00    +0.339 C 
BRANCH  31   2
ATOM      2  O   UNL     1      23.663   4.727  20.398  0.00  0.00    -0.464 OA
ATOM     34  C   UNL     1      24.665   3.872  19.837  0.00  0.00    +0.280 C 
ENDBRANCH  31   2
ENDBRANCH  28  31
ENDBRANCH  17  21
ENDBRANCH  12  17
TORSDOF 8
ENDMDL
MODEL 2
REMARK VINA RESULT:      -6.9      1.474      2.153
REMARK  Name = 71693171
REMARK  12 active torsions:
REMARK  status: ('A' for Active; 'I' for Inactive)
REMARK    1  A    between atoms: O_2  and  C_31
REMARK    2  A    between atoms: O_2  and  C_34
REMARK    3  A    between atoms: N_4  and  C_16
REMARK    4  A    between atoms: C_9  and  C_13
REMARK    5  A    between atoms: C_10  and  C_16
REMARK    6  A    between atoms: C_12  and  C_17
REMARK    7  A    between atoms: C_13  and  C_18
REMARK    8  A    between atoms: C_13  and  C_19
REMARK    9  A    between atoms: C_14  and  C_20
REMARK   10  A    between atoms: C_17  and  C_21
REMARK   11  A    between atoms: C_22  and  C_27
REMARK   12  A    between atoms: C_28  and  C_31
REMARK                            x       y       z     vdW  Elec       q    Type
REMARK                         _______ _______ _______ _____ _____    ______ ____
ROOT
ATOM      9  C   UNL     1      12.962   8.450  20.990  0.00  0.00    +0.000 C 
ATOM     10  C   UNL     1      12.941   9.984  21.206  0.00  0.00    +0.032 C 
ATOM     11  C   UNL     1      14.019   7.796  21.893  0.00  0.00    +0.012 C 
ATOM     12  C   UNL     1      15.433   8.345  21.629  0.00  0.00    +0.022 C 
ATOM     14  C   UNL     1      15.445   9.859  21.560  0.00  0.00    -0.073 C 
ATOM     15  C   UNL     1      14.319  10.575  21.384  0.00  0.00    -0.022 C 
ATOM     20  C   UNL     1      16.775  10.535  21.744  0.00  0.00    +0.039 C 
ENDROOT
BRANCH   9  13
ATOM     13  C   UNL     1      11.591   7.819  21.254  0.00  0.00    -0.013 C 
ATOM     18  C   UNL     1      10.976   8.397  22.524  0.00  0.00    +0.007 C 
ATOM     19  C   UNL     1      11.715   6.302  21.355  0.00  0.00    +0.007 C 
ENDBRANCH   9  13
BRANCH  10  16
ATOM     16  C   UNL     1      12.226  10.695  20.052  0.00  0.00    +0.112 C 
BRANCH  16   4
ATOM      1  O   UNL     1      12.268   9.301  17.542  0.00  0.00    -0.268 OA
ATOM      4  N   UNL     1      13.123  10.924  18.963  0.00  0.00    -0.309 N 
ATOM     22  C   UNL     1      13.074  10.198  17.773  0.00  0.00    +0.264 C 
ATOM     35  H   UNL     1      13.802  11.675  19.044  0.00  0.00    +0.149 HD
BRANCH  22  27
ATOM      7  N   UNL     1      14.931  11.553  17.045  0.00  0.00    -0.247 NA
ATOM      8  N   UNL     1      15.090  10.156  14.618  0.00  0.00    -0.259 NA
ATOM     27  C   UNL     1      14.093  10.540  16.748  0.00  0.00    +0.143 A 
ATOM     30  C   UNL     1      14.171   9.854  15.557  0.00  0.00    +0.143 A 
ATOM     32  C   UNL     1      15.849  11.855  16.106  0.00  0.00    +0.131 A 
ATOM     33  C   UNL     1      15.928  11.169  14.915  0.00  0.00    +0.130 A 
ENDBRANCH  22  27
ENDBRANCH  16   4
ENDBRANCH  10  16
BRANCH  12  17
ATOM     17  C   UNL     1      16.034   7.734  20.359  0.00  0.00    +0.082 C 
BRANCH  17  21
ATOM      5  N   UNL     1      18.029   7.287  21.801  0.00  0.00    -0.342 N 
ATOM      6  N   UNL     1      17.961   6.188  19.870  0.00  0.00    -0.232 NA
ATOM     21  C   UNL     1      17.341   7.050  20.644  0.00  0.00    +0.109 A 
ATOM     23  C   UNL     1      19.169   6.526  21.773  0.00  0.00    +0.067 A 
ATOM     24  C   UNL     1      19.104   5.849  20.558  0.00  0.00    +0.089 A 
ATOM     25  C   UNL     1      20.220   6.376  22.678  0.00  0.00    +0.042 A 
ATOM     26  C   UNL     1      20.140   4.968  20.209  0.00  0.00    +0.030 A 
ATOM     28  C   UNL     1      21.243   5.495  22.315  0.00  0.00    +0.061 A 
ATOM     29  C   UNL     1      21.206   4.801  21.103  0.00  0.00    +0.017 A 
ATOM     36  H   UNL     1      17.748   7.911  22.547  0.00  0.00    +0.167 HD
BRANCH  28  31
ATOM      3  O   UNL     1      22.691   6.088  24.114  0.00  0.00    -0.245 OA
ATOM     31  C   UNL     1      22.366   5.297  23.219  0.00  0.00    +0.339 C 
BRANCH  31   2
ATOM      2  O   UNL     1      23.021   4.125  22.958  0.00  0.00    -0.464 OA
ATOM     34  C   UNL     1      23.879   3.620  23.987  0.00  0.00    +0.280 C 
ENDBRANCH  31   2
ENDBRANCH  28  31
ENDBRANCH  17  21
ENDBRANCH  12  17
TORSDOF 8
ENDMDL
MODEL 3
REMARK VINA RESULT:      -6.9     11.757     17.063
REMARK  Name = 71693171
REMARK  12 active torsions:
REMARK  status: ('A' for Active; 'I' for Inactive)
REMARK    1  A    between atoms: O_2  and  C_31
REMARK    2  A    between atoms: O_2  and  C_34
REMARK    3  A    between atoms: N_4  and  C_16
REMARK    4  A    between atoms: C_9  and  C_13
REMARK    5  A    between atoms: C_10  and  C_16
REMARK    6  A    between atoms: C_12  and  C_17
REMARK    7  A    between atoms: C_13  and  C_18
REMARK    8  A    between atoms: C_13  and  C_19
REMARK    9  A    between atoms: C_14  and  C_20
REMARK   10  A    between atoms: C_17  and  C_21
REMARK   11  A    between atoms: C_22  and  C_27
REMARK   12  A    between atoms: C_28  and  C_31
REMARK                            x       y       z     vdW  Elec       q    Type
REMARK                         _______ _______ _______ _____ _____    ______ ____
ROOT
ATOM      9  C   UNL     1       9.186   8.246   5.255  0.00  0.00    +0.000 C 
ATOM     10  C   UNL     1       8.840   8.905   6.613  0.00  0.00    +0.032 C 
ATOM     11  C   UNL     1       8.633   6.814   5.197  0.00  0.00    +0.012 C 
ATOM     12  C   UNL     1       9.190   5.927   6.326  0.00  0.00    +0.022 C 
ATOM     14  C   UNL     1       9.129   6.623   7.670  0.00  0.00    -0.073 C 
ATOM     15  C   UNL     1       8.958   7.953   7.779  0.00  0.00    -0.022 C 
ATOM     20  C   UNL     1       9.222   5.749   8.890  0.00  0.00    +0.039 C 
ENDROOT
BRANCH   9  13
ATOM     13  C   UNL     1       8.646   9.059   4.074  0.00  0.00    -0.013 C 
ATOM     18  C   UNL     1       7.206   9.486   4.336  0.00  0.00    +0.007 C 
ATOM     19  C   UNL     1       8.744   8.252   2.783  0.00  0.00    +0.007 C 
ENDBRANCH   9  13
BRANCH  10  16
ATOM     16  C   UNL     1       9.715  10.137   6.869  0.00  0.00    +0.112 C 
BRANCH  16   4
ATOM      1  O   UNL     1      11.673  10.920   8.818  0.00  0.00    -0.268 OA
ATOM      4  N   UNL     1       9.459  10.681   8.165  0.00  0.00    -0.309 N 
ATOM     22  C   UNL     1      10.474  11.037   9.054  0.00  0.00    +0.264 C 
ATOM     35  H   UNL     1       8.495  10.853   8.437  0.00  0.00    +0.149 HD
BRANCH  22  27
ATOM      7  N   UNL     1      11.015  11.817  11.271  0.00  0.00    -0.247 NA
ATOM      8  N   UNL     1       8.307  12.257  11.854  0.00  0.00    -0.259 NA
ATOM     27  C   UNL     1      10.042  11.564  10.373  0.00  0.00    +0.143 A 
ATOM     30  C   UNL     1       8.712  11.781  10.660  0.00  0.00    +0.143 A 
ATOM     32  C   UNL     1      10.610  12.293  12.464  0.00  0.00    +0.131 A 
ATOM     33  C   UNL     1       9.281  12.509  12.751  0.00  0.00    +0.130 A 
ENDBRANCH  22  27
ENDBRANCH  16   4
ENDBRANCH  10  16
BRANCH  12  17
ATOM     17  C   UNL     1      10.618   5.466   6.011  0.00  0.00    +0.082 C 
BRANCH  17  21
ATOM      5  N   UNL     1      10.251   4.592   3.696  0.00  0.00    -0.342 N 
ATOM      6  N   UNL     1      11.704   6.265   3.884  0.00  0.00    -0.232 NA
ATOM     21  C   UNL     1      10.882   5.470   4.533  0.00  0.00    +0.109 A 
ATOM     23  C   UNL     1      10.694   4.838   2.422  0.00  0.00    +0.067 A 
ATOM     24  C   UNL     1      11.599   5.885   2.565  0.00  0.00    +0.089 A 
ATOM     25  C   UNL     1      10.389   4.251   1.193  0.00  0.00    +0.042 A 
ATOM     26  C   UNL     1      12.249   6.389   1.426  0.00  0.00    +0.030 A 
ATOM     28  C   UNL     1      11.045   4.765   0.070  0.00  0.00    +0.061 A 
ATOM     29  C   UNL     1      11.959   5.815   0.182  0.00  0.00    +0.017 A 
ATOM     36  H   UNL     1       9.576   3.888   3.966  0.00  0.00    +0.167 HD
BRANCH  28  31
ATOM      3  O   UNL     1       9.737   4.403  -1.890  0.00  0.00    -0.245 OA
ATOM     31  C   UNL     1      10.769   4.193  -1.239  0.00  0.00    +0.339 C 
BRANCH  31   2
ATOM      2  O   UNL     1      11.793   3.393  -1.664  0.00  0.00    -0.464 OA
ATOM     34  C   UNL     1      11.442   2.280  -2.494  0.00  0.00    +0.280 C 
ENDBRANCH  31   2
ENDBRANCH  28  31
ENDBRANCH  17  21
ENDBRANCH  12  17
TORSDOF 8
ENDMDL
MODEL 4
REMARK VINA RESULT:      -6.9     27.461     31.158
REMARK  Name = 71693171
REMARK  12 active torsions:
REMARK  status: ('A' for Active; 'I' for Inactive)
REMARK    1  A    between atoms: O_2  and  C_31
REMARK    2  A    between atoms: O_2  and  C_34
REMARK    3  A    between atoms: N_4  and  C_16
REMARK    4  A    between atoms: C_9  and  C_13
REMARK    5  A    between atoms: C_10  and  C_16
REMARK    6  A    between atoms: C_12  and  C_17
REMARK    7  A    between atoms: C_13  and  C_18
REMARK    8  A    between atoms: C_13  and  C_19
REMARK    9  A    between atoms: C_14  and  C_20
REMARK   10  A    between atoms: C_17  and  C_21
REMARK   11  A    between atoms: C_22  and  C_27
REMARK   12  A    between atoms: C_28  and  C_31
REMARK                            x       y       z     vdW  Elec       q    Type
REMARK                         _______ _______ _______ _____ _____    ______ ____
ROOT
ATOM      9  C   UNL     1      -3.230 -12.153  12.471  0.00  0.00    +0.000 C 
ATOM     10  C   UNL     1      -2.081 -11.115  12.472  0.00  0.00    +0.032 C 
ATOM     11  C   UNL     1      -3.718 -12.412  11.037  0.00  0.00    +0.012 C 
ATOM     12  C   UNL     1      -4.221 -11.127  10.352  0.00  0.00    +0.022 C 
ATOM     14  C   UNL     1      -3.256  -9.974  10.541  0.00  0.00    -0.073 C 
ATOM     15  C   UNL     1      -2.297  -9.993  11.485  0.00  0.00    -0.022 C 
ATOM     20  C   UNL     1      -3.388  -8.818   9.590  0.00  0.00    +0.039 C 
ENDROOT
BRANCH   9  13
ATOM     13  C   UNL     1      -2.804 -13.475  13.120  0.00  0.00    -0.013 C 
ATOM     18  C   UNL     1      -2.604 -14.549  12.057  0.00  0.00    +0.007 C 
ATOM     19  C   UNL     1      -3.837 -13.919  14.150  0.00  0.00    +0.007 C 
ENDBRANCH   9  13
BRANCH  10  16
ATOM     16  C   UNL     1      -1.865 -10.530  13.872  0.00  0.00    +0.112 C 
BRANCH  16   4
ATOM      1  O   UNL     1      -2.409 -10.990  16.653  0.00  0.00    -0.268 OA
ATOM      4  N   UNL     1      -3.114 -10.340  14.540  0.00  0.00    -0.309 N 
ATOM     22  C   UNL     1      -3.292 -10.588  15.901  0.00  0.00    +0.264 C 
ATOM     35  H   UNL     1      -3.897  -9.970  14.009  0.00  0.00    +0.149 HD
BRANCH  22  27
ATOM      7  N   UNL     1      -4.856 -10.687  17.734  0.00  0.00    -0.247 NA
ATOM      8  N   UNL     1      -6.913  -9.658  16.127  0.00  0.00    -0.259 NA
ATOM     27  C   UNL     1      -4.658 -10.367  16.440  0.00  0.00    +0.143 A 
ATOM     30  C   UNL     1      -5.668  -9.862  15.651  0.00  0.00    +0.143 A 
ATOM     32  C   UNL     1      -6.100 -10.483  18.210  0.00  0.00    +0.131 A 
ATOM     33  C   UNL     1      -7.110  -9.979  17.422  0.00  0.00    +0.130 A 
ENDBRANCH  22  27
ENDBRANCH  16   4
ENDBRANCH  10  16
BRANCH  12  17
ATOM     17  C   UNL     1      -5.624 -10.754  10.841  0.00  0.00    +0.082 C 
BRANCH  17  21
ATOM      5  N   UNL     1      -6.399 -10.226   8.522  0.00  0.00    -0.342 N 
ATOM      6  N   UNL     1      -6.965  -8.758  10.092  0.00  0.00    -0.232 NA
ATOM     21  C   UNL     1      -6.340  -9.887   9.845  0.00  0.00    +0.109 A 
ATOM     23  C   UNL     1      -7.111  -9.250   7.872  0.00  0.00    +0.067 A 
ATOM     24  C   UNL     1      -7.453  -8.346   8.873  0.00  0.00    +0.089 A 
ATOM     25  C   UNL     1      -7.473  -9.086   6.535  0.00  0.00    +0.042 A 
ATOM     26  C   UNL     1      -8.200  -7.204   8.539  0.00  0.00    +0.030 A 
ATOM     28  C   UNL     1      -8.217  -7.945   6.220  0.00  0.00    +0.061 A 
ATOM     29  C   UNL     1      -8.576  -7.019   7.202  0.00  0.00    +0.017 A 
ATOM     36  H   UNL     1      -5.992 -11.049   8.096  0.00  0.00    +0.167 HD
BRANCH  28  31
ATOM      3  O   UNL     1      -9.668  -7.144   4.505  0.00  0.00    -0.245 OA
ATOM     31  C   UNL     1      -8.625  -7.719   4.841  0.00  0.00    +0.339 C 
BRANCH  31   2
ATOM      2  O   UNL     1      -7.710  -8.222   3.958  0.00  0.00    -0.464 OA
ATOM     34  C   UNL     1      -7.863  -7.848   2.585  0.00  0.00    +0.280 C 
ENDBRANCH  31   2
ENDBRANCH  28  31
ENDBRANCH  17  21
ENDBRANCH  12  17
TORSDOF 8
ENDMDL
MODEL 5
REMARK VINA RESULT:      -6.8     28.108     30.773
REMARK  Name = 71693171
REMARK  12 active torsions:
REMARK  status: ('A' for Active; 'I' for Inactive)
REMARK    1  A    between atoms: O_2  and  C_31
REMARK    2  A    between atoms: O_2  and  C_34
REMARK    3  A    between atoms: N_4  and  C_16
REMARK    4  A    between atoms: C_9  and  C_13
REMARK    5  A    between atoms: C_10  and  C_16
REMARK    6  A    between atoms: C_12  and  C_17
REMARK    7  A    between atoms: C_13  and  C_18
REMARK    8  A    between atoms: C_13  and  C_19
REMARK    9  A    between atoms: C_14  and  C_20
REMARK   10  A    between atoms: C_17  and  C_21
REMARK   11  A    between atoms: C_22  and  C_27
REMARK   12  A    between atoms: C_28  and  C_31
REMARK                            x       y       z     vdW  Elec       q    Type
REMARK                         _______ _______ _______ _____ _____    ______ ____
ROOT
ATOM      9  C   UNL     1      -6.548  -9.459   9.588  0.00  0.00    +0.000 C 
ATOM     10  C   UNL     1      -5.502  -9.104   8.503  0.00  0.00    +0.032 C 
ATOM     11  C   UNL     1      -6.144  -8.854  10.941  0.00  0.00    +0.012 C 
ATOM     12  C   UNL     1      -4.765  -9.350  11.414  0.00  0.00    +0.022 C 
ATOM     14  C   UNL     1      -3.733  -9.281  10.306  0.00  0.00    -0.073 C 
ATOM     15  C   UNL     1      -4.081  -9.157   9.012  0.00  0.00    -0.022 C 
ATOM     20  C   UNL     1      -2.289  -9.311  10.724  0.00  0.00    +0.039 C 
ENDROOT
BRANCH   9  13
ATOM     13  C   UNL     1      -7.952  -8.979   9.203  0.00  0.00    -0.013 C 
ATOM     18  C   UNL     1      -7.917  -7.513   8.787  0.00  0.00    +0.007 C 
ATOM     19  C   UNL     1      -8.922  -9.190  10.362  0.00  0.00    +0.007 C 
ENDBRANCH   9  13
BRANCH  10  16
ATOM     16  C   UNL     1      -5.640 -10.017   7.280  0.00  0.00    +0.112 C 
BRANCH  16   4
ATOM      1  O   UNL     1      -7.992 -10.836   5.851  0.00  0.00    -0.268 OA
ATOM      4  N   UNL     1      -6.265  -9.325   6.198  0.00  0.00    -0.309 N 
ATOM     22  C   UNL     1      -7.411  -9.795   5.556  0.00  0.00    +0.264 C 
ATOM     35  H   UNL     1      -5.881  -8.431   5.907  0.00  0.00    +0.149 HD
BRANCH  22  27
ATOM      7  N   UNL     1      -7.654  -9.416   3.187  0.00  0.00    -0.247 NA
ATOM      8  N   UNL     1      -9.102  -7.057   3.641  0.00  0.00    -0.259 NA
ATOM     27  C   UNL     1      -7.923  -8.972   4.431  0.00  0.00    +0.143 A 
ATOM     30  C   UNL     1      -8.634  -7.814   4.653  0.00  0.00    +0.143 A 
ATOM     32  C   UNL     1      -8.122  -8.660   2.175  0.00  0.00    +0.131 A 
ATOM     33  C   UNL     1      -8.833  -7.502   2.397  0.00  0.00    +0.130 A 
ENDBRANCH  22  27
ENDBRANCH  16   4
ENDBRANCH  10  16
BRANCH  12  17
ATOM     17  C   UNL     1      -4.856 -10.767  11.991  0.00  0.00    +0.082 C 
BRANCH  17  21
ATOM      5  N   UNL     1      -6.119 -10.678  14.148  0.00  0.00    -0.342 N 
ATOM      6  N   UNL     1      -3.905 -10.783  14.323  0.00  0.00    -0.232 NA
ATOM     21  C   UNL     1      -4.922 -10.745  13.491  0.00  0.00    +0.109 A 
ATOM     23  C   UNL     1      -5.857 -10.674  15.494  0.00  0.00    +0.067 A 
ATOM     24  C   UNL     1      -4.470 -10.740  15.578  0.00  0.00    +0.089 A 
ATOM     25  C   UNL     1      -6.691 -10.619  16.612  0.00  0.00    +0.042 A 
ATOM     26  C   UNL     1      -3.859 -10.753  16.843  0.00  0.00    +0.030 A 
ATOM     28  C   UNL     1      -6.067 -10.633  17.863  0.00  0.00    +0.061 A 
ATOM     29  C   UNL     1      -4.677 -10.699  17.979  0.00  0.00    +0.017 A 
ATOM     36  H   UNL     1      -7.035 -10.639  13.720  0.00  0.00    +0.167 HD
BRANCH  28  31
ATOM      3  O   UNL     1      -6.431 -10.570  20.219  0.00  0.00    -0.245 OA
ATOM     31  C   UNL     1      -6.884 -10.578  19.067  0.00  0.00    +0.339 C 
BRANCH  31   2
ATOM      2  O   UNL     1      -8.217 -10.535  18.767  0.00  0.00    -0.464 OA
ATOM     34  C   UNL     1      -9.073 -11.420  19.498  0.00  0.00    +0.280 C 
ENDBRANCH  31   2
ENDBRANCH  28  31
ENDBRANCH  17  21
ENDBRANCH  12  17
TORSDOF 8
ENDMDL
MODEL 6
REMARK VINA RESULT:      -6.8     13.347     17.269
REMARK  Name = 71693171
REMARK  12 active torsions:
REMARK  status: ('A' for Active; 'I' for Inactive)
REMARK    1  A    between atoms: O_2  and  C_31
REMARK    2  A    between atoms: O_2  and  C_34
REMARK    3  A    between atoms: N_4  and  C_16
REMARK    4  A    between atoms: C_9  and  C_13
REMARK    5  A    between atoms: C_10  and  C_16
REMARK    6  A    between atoms: C_12  and  C_17
REMARK    7  A    between atoms: C_13  and  C_18
REMARK    8  A    between atoms: C_13  and  C_19
REMARK    9  A    between atoms: C_14  and  C_20
REMARK   10  A    between atoms: C_17  and  C_21
REMARK   11  A    between atoms: C_22  and  C_27
REMARK   12  A    between atoms: C_28  and  C_31
REMARK                            x       y       z     vdW  Elec       q    Type
REMARK                         _______ _______ _______ _____ _____    ______ ____
ROOT
ATOM      9  C   UNL     1       9.114   8.140   5.147  0.00  0.00    +0.000 C 
ATOM     10  C   UNL     1       8.795   8.835   6.494  0.00  0.00    +0.032 C 
ATOM     11  C   UNL     1       8.547   6.713   5.132  0.00  0.00    +0.012 C 
ATOM     12  C   UNL     1       9.115   5.848   6.273  0.00  0.00    +0.022 C 
ATOM     14  C   UNL     1       9.080   6.576   7.601  0.00  0.00    -0.073 C 
ATOM     15  C   UNL     1       8.922   7.911   7.681  0.00  0.00    -0.022 C 
ATOM     20  C   UNL     1       9.184   5.731   8.840  0.00  0.00    +0.039 C 
ENDROOT
BRANCH   9  13
ATOM     13  C   UNL     1       8.563   8.930   3.955  0.00  0.00    -0.013 C 
ATOM     18  C   UNL     1       7.134   9.383   4.232  0.00  0.00    +0.007 C 
ATOM     19  C   UNL     1       8.627   8.088   2.684  0.00  0.00    +0.007 C 
ENDBRANCH   9  13
BRANCH  10  16
ATOM     16  C   UNL     1       9.684  10.065   6.707  0.00  0.00    +0.112 C 
BRANCH  16   4
ATOM      1  O   UNL     1      11.931  10.517   8.437  0.00  0.00    -0.268 OA
ATOM      4  N   UNL     1      11.052   9.756   6.428  0.00  0.00    -0.309 N 
ATOM     22  C   UNL     1      12.086  10.010   7.330  0.00  0.00    +0.264 C 
ATOM     35  H   UNL     1      11.277   9.296   5.551  0.00  0.00    +0.149 HD
BRANCH  22  27
ATOM      7  N   UNL     1      13.714   8.343   6.705  0.00  0.00    -0.247 NA
ATOM      8  N   UNL     1      15.659  10.312   6.250  0.00  0.00    -0.259 NA
ATOM     27  C   UNL     1      13.456   9.655   6.880  0.00  0.00    +0.143 A 
ATOM     30  C   UNL     1      14.412  10.621   6.656  0.00  0.00    +0.143 A 
ATOM     32  C   UNL     1      14.961   8.034   6.299  0.00  0.00    +0.131 A 
ATOM     33  C   UNL     1      15.916   9.001   6.075  0.00  0.00    +0.130 A 
ENDBRANCH  22  27
ENDBRANCH  16   4
ENDBRANCH  10  16
BRANCH  12  17
ATOM     17  C   UNL     1      10.533   5.367   5.948  0.00  0.00    +0.082 C 
BRANCH  17  21
ATOM      5  N   UNL     1      10.167   4.636   3.584  0.00  0.00    -0.342 N 
ATOM      6  N   UNL     1      11.668   6.248   3.880  0.00  0.00    -0.232 NA
ATOM     21  C   UNL     1      10.815   5.445   4.475  0.00  0.00    +0.109 A 
ATOM     23  C   UNL     1      10.632   4.938   2.330  0.00  0.00    +0.067 A 
ATOM     24  C   UNL     1      11.568   5.947   2.541  0.00  0.00    +0.089 A 
ATOM     25  C   UNL     1      10.324   4.431   1.068  0.00  0.00    +0.042 A 
ATOM     26  C   UNL     1      12.246   6.493   1.439  0.00  0.00    +0.030 A 
ATOM     28  C   UNL     1      11.009   4.986  -0.018  0.00  0.00    +0.061 A 
ATOM     29  C   UNL     1      11.953   5.999   0.162  0.00  0.00    +0.017 A 
ATOM     36  H   UNL     1       9.468   3.939   3.808  0.00  0.00    +0.167 HD
BRANCH  28  31
ATOM      3  O   UNL     1       9.601   4.444  -1.865  0.00  0.00    -0.245 OA
ATOM     31  C   UNL     1      10.730   4.497  -1.360  0.00  0.00    +0.339 C 
BRANCH  31   2
ATOM      2  O   UNL     1      11.874   4.103  -1.998  0.00  0.00    -0.464 OA
ATOM     34  C   UNL     1      12.334   2.772  -1.737  0.00  0.00    +0.280 C 
ENDBRANCH  31   2
ENDBRANCH  28  31
ENDBRANCH  17  21
ENDBRANCH  12  17
TORSDOF 8
ENDMDL
MODEL 7
REMARK VINA RESULT:      -6.8     13.334     18.039
REMARK  Name = 71693171
REMARK  12 active torsions:
REMARK  status: ('A' for Active; 'I' for Inactive)
REMARK    1  A    between atoms: O_2  and  C_31
REMARK    2  A    between atoms: O_2  and  C_34
REMARK    3  A    between atoms: N_4  and  C_16
REMARK    4  A    between atoms: C_9  and  C_13
REMARK    5  A    between atoms: C_10  and  C_16
REMARK    6  A    between atoms: C_12  and  C_17
REMARK    7  A    between atoms: C_13  and  C_18
REMARK    8  A    between atoms: C_13  and  C_19
REMARK    9  A    between atoms: C_14  and  C_20
REMARK   10  A    between atoms: C_17  and  C_21
REMARK   11  A    between atoms: C_22  and  C_27
REMARK   12  A    between atoms: C_28  and  C_31
REMARK                            x       y       z     vdW  Elec       q    Type
REMARK                         _______ _______ _______ _____ _____    ______ ____
ROOT
ATOM      9  C   UNL     1       8.726   8.478   5.237  0.00  0.00    +0.000 C 
ATOM     10  C   UNL     1       8.435   7.705   6.547  0.00  0.00    +0.032 C 
ATOM     11  C   UNL     1       8.501   7.571   4.017  0.00  0.00    +0.012 C 
ATOM     12  C   UNL     1       9.393   6.316   4.051  0.00  0.00    +0.022 C 
ATOM     14  C   UNL     1       9.367   5.644   5.409  0.00  0.00    -0.073 C 
ATOM     15  C   UNL     1       8.922   6.276   6.511  0.00  0.00    -0.022 C 
ATOM     20  C   UNL     1       9.821   4.211   5.464  0.00  0.00    +0.039 C 
ENDROOT
BRANCH   9  13
ATOM     13  C   UNL     1       7.861   9.736   5.114  0.00  0.00    -0.013 C 
ATOM     18  C   UNL     1       6.881   9.597   3.954  0.00  0.00    +0.007 C 
ATOM     19  C   UNL     1       8.739  10.971   4.936  0.00  0.00    +0.007 C 
ENDBRANCH   9  13
BRANCH  10  16
ATOM     16  C   UNL     1       9.043   8.420   7.758  0.00  0.00    +0.112 C 
BRANCH  16   4
ATOM      1  O   UNL     1      10.377  10.675   8.933  0.00  0.00    -0.268 OA
ATOM      4  N   UNL     1      10.366   8.875   7.468  0.00  0.00    -0.309 N 
ATOM     22  C   UNL     1      10.940   9.985   8.088  0.00  0.00    +0.264 C 
ATOM     35  H   UNL     1      10.928   8.344   6.810  0.00  0.00    +0.149 HD
BRANCH  22  27
ATOM      7  N   UNL     1      12.745  11.581   7.978  0.00  0.00    -0.247 NA
ATOM      8  N   UNL     1      14.355   9.770   6.565  0.00  0.00    -0.259 NA
ATOM     27  C   UNL     1      12.315  10.344   7.657  0.00  0.00    +0.143 A 
ATOM     30  C   UNL     1      13.106   9.456   6.964  0.00  0.00    +0.143 A 
ATOM     32  C   UNL     1      13.993  11.896   7.580  0.00  0.00    +0.131 A 
ATOM     33  C   UNL     1      14.784  11.007   6.886  0.00  0.00    +0.130 A 
ENDBRANCH  22  27
ENDBRANCH  16   4
ENDBRANCH  10  16
BRANCH  12  17
ATOM     17  C   UNL     1      10.829   6.648   3.631  0.00  0.00    +0.082 C 
BRANCH  17  21
ATOM      5  N   UNL     1      10.464   5.530   1.423  0.00  0.00    -0.342 N 
ATOM      6  N   UNL     1      12.447   5.189   2.368  0.00  0.00    -0.232 NA
ATOM     21  C   UNL     1      11.281   5.783   2.489  0.00  0.00    +0.109 A 
ATOM     23  C   UNL     1      11.149   4.719   0.555  0.00  0.00    +0.067 A 
ATOM     24  C   UNL     1      12.383   4.520   1.166  0.00  0.00    +0.089 A 
ATOM     25  C   UNL     1      10.804   4.160  -0.676  0.00  0.00    +0.042 A 
ATOM     26  C   UNL     1      13.342   3.718   0.527  0.00  0.00    +0.030 A 
ATOM     28  C   UNL     1      11.771   3.364  -1.298  0.00  0.00    +0.061 A 
ATOM     29  C   UNL     1      13.018   3.146  -0.709  0.00  0.00    +0.017 A 
ATOM     36  H   UNL     1       9.522   5.879   1.295  0.00  0.00    +0.167 HD
BRANCH  28  31
ATOM      3  O   UNL     1      12.287   2.621  -3.504  0.00  0.00    -0.245 OA
ATOM     31  C   UNL     1      11.469   2.752  -2.584  0.00  0.00    +0.339 C 
BRANCH  31   2
ATOM      2  O   UNL     1      10.168   2.339  -2.651  0.00  0.00    -0.464 OA
ATOM     34  C   UNL     1       9.506   2.488  -3.911  0.00  0.00    +0.280 C 
ENDBRANCH  31   2
ENDBRANCH  28  31
ENDBRANCH  17  21
ENDBRANCH  12  17
TORSDOF 8
ENDMDL
MODEL 8
REMARK VINA RESULT:      -6.7     27.329     30.932
REMARK  Name = 71693171
REMARK  12 active torsions:
REMARK  status: ('A' for Active; 'I' for Inactive)
REMARK    1  A    between atoms: O_2  and  C_31
REMARK    2  A    between atoms: O_2  and  C_34
REMARK    3  A    between atoms: N_4  and  C_16
REMARK    4  A    between atoms: C_9  and  C_13
REMARK    5  A    between atoms: C_10  and  C_16
REMARK    6  A    between atoms: C_12  and  C_17
REMARK    7  A    between atoms: C_13  and  C_18
REMARK    8  A    between atoms: C_13  and  C_19
REMARK    9  A    between atoms: C_14  and  C_20
REMARK   10  A    between atoms: C_17  and  C_21
REMARK   11  A    between atoms: C_22  and  C_27
REMARK   12  A    between atoms: C_28  and  C_31
REMARK                            x       y       z     vdW  Elec       q    Type
REMARK                         _______ _______ _______ _____ _____    ______ ____
ROOT
ATOM      9  C   UNL     1      -3.286 -12.121  13.859  0.00  0.00    +0.000 C 
ATOM     10  C   UNL     1      -1.976 -11.368  14.200  0.00  0.00    +0.032 C 
ATOM     11  C   UNL     1      -3.350 -12.434  12.357  0.00  0.00    +0.012 C 
ATOM     12  C   UNL     1      -3.279 -11.162  11.491  0.00  0.00    +0.022 C 
ATOM     14  C   UNL     1      -2.169 -10.235  11.944  0.00  0.00    -0.073 C 
ATOM     15  C   UNL     1      -1.589 -10.351  13.152  0.00  0.00    -0.022 C 
ATOM     20  C   UNL     1      -1.708  -9.199  10.956  0.00  0.00    +0.039 C 
ENDROOT
BRANCH   9  13
ATOM     13  C   UNL     1      -3.424 -13.416  14.666  0.00  0.00    -0.013 C 
ATOM     18  C   UNL     1      -2.714 -14.563  13.955  0.00  0.00    +0.007 C 
ATOM     19  C   UNL     1      -4.896 -13.748  14.891  0.00  0.00    +0.007 C 
ENDBRANCH   9  13
BRANCH  10  16
ATOM     16  C   UNL     1      -2.071 -10.682  15.566  0.00  0.00    +0.112 C 
BRANCH  16   4
ATOM      1  O   UNL     1      -3.519 -11.430  17.930  0.00  0.00    -0.268 OA
ATOM      4  N   UNL     1      -3.427 -10.354  15.876  0.00  0.00    -0.309 N 
ATOM     22  C   UNL     1      -4.057 -10.759  17.053  0.00  0.00    +0.264 C 
ATOM     35  H   UNL     1      -3.944  -9.766  15.229  0.00  0.00    +0.149 HD
BRANCH  22  27
ATOM      7  N   UNL     1      -6.027  -9.661  16.200  0.00  0.00    -0.247 NA
ATOM      8  N   UNL     1      -7.481 -10.324  18.505  0.00  0.00    -0.259 NA
ATOM     27  C   UNL     1      -5.477 -10.358  17.214  0.00  0.00    +0.143 A 
ATOM     30  C   UNL     1      -6.192 -10.684  18.346  0.00  0.00    +0.143 A 
ATOM     32  C   UNL     1      -7.316  -9.302  16.358  0.00  0.00    +0.131 A 
ATOM     33  C   UNL     1      -8.030  -9.627  17.490  0.00  0.00    +0.130 A 
ENDBRANCH  22  27
ENDBRANCH  16   4
ENDBRANCH  10  16
BRANCH  12  17
ATOM     17  C   UNL     1      -4.628 -10.433  11.472  0.00  0.00    +0.082 C 
BRANCH  17  21
ATOM      5  N   UNL     1      -6.115  -9.326   9.792  0.00  0.00    -0.342 N 
ATOM      6  N   UNL     1      -4.669 -10.808   8.981  0.00  0.00    -0.232 NA
ATOM     21  C   UNL     1      -5.112 -10.214  10.067  0.00  0.00    +0.109 A 
ATOM     23  C   UNL     1      -6.332  -9.348   8.438  0.00  0.00    +0.067 A 
ATOM     24  C   UNL     1      -5.418 -10.279   7.955  0.00  0.00    +0.089 A 
ATOM     25  C   UNL     1      -7.223  -8.652   7.620  0.00  0.00    +0.042 A 
ATOM     26  C   UNL     1      -5.376 -10.547   6.576  0.00  0.00    +0.030 A 
ATOM     28  C   UNL     1      -7.168  -8.931   6.251  0.00  0.00    +0.061 A 
ATOM     29  C   UNL     1      -6.262  -9.861   5.736  0.00  0.00    +0.017 A 
ATOM     36  H   UNL     1      -6.608  -8.754  10.465  0.00  0.00    +0.167 HD
BRANCH  28  31
ATOM      3  O   UNL     1      -8.652  -7.176   5.614  0.00  0.00    -0.245 OA
ATOM     31  C   UNL     1      -8.073  -8.237   5.346  0.00  0.00    +0.339 C 
BRANCH  31   2
ATOM      2  O   UNL     1      -8.206  -8.904   4.160  0.00  0.00    -0.464 OA
ATOM     34  C   UNL     1      -7.998  -8.145   2.964  0.00  0.00    +0.280 C 
ENDBRANCH  31   2
ENDBRANCH  28  31
ENDBRANCH  17  21
ENDBRANCH  12  17
TORSDOF 8
ENDMDL
MODEL 9
REMARK VINA RESULT:      -6.6     28.294     30.777
REMARK  Name = 71693171
REMARK  12 active torsions:
REMARK  status: ('A' for Active; 'I' for Inactive)
REMARK    1  A    between atoms: O_2  and  C_31
REMARK    2  A    between atoms: O_2  and  C_34
REMARK    3  A    between atoms: N_4  and  C_16
REMARK    4  A    between atoms: C_9  and  C_13
REMARK    5  A    between atoms: C_10  and  C_16
REMARK    6  A    between atoms: C_12  and  C_17
REMARK    7  A    between atoms: C_13  and  C_18
REMARK    8  A    between atoms: C_13  and  C_19
REMARK    9  A    between atoms: C_14  and  C_20
REMARK   10  A    between atoms: C_17  and  C_21
REMARK   11  A    between atoms: C_22  and  C_27
REMARK   12  A    between atoms: C_28  and  C_31
REMARK                            x       y       z     vdW  Elec       q    Type
REMARK                         _______ _______ _______ _____ _____    ______ ____
ROOT
ATOM      9  C   UNL     1      -7.496 -11.712  17.175  0.00  0.00    +0.000 C 
ATOM     10  C   UNL     1      -7.605 -12.065  18.679  0.00  0.00    +0.032 C 
ATOM     11  C   UNL     1      -6.259 -12.379  16.556  0.00  0.00    +0.012 C 
ATOM     12  C   UNL     1      -4.954 -11.950  17.253  0.00  0.00    +0.022 C 
ATOM     14  C   UNL     1      -5.075 -12.015  18.762  0.00  0.00    -0.073 C 
ATOM     15  C   UNL     1      -6.268 -12.080  19.381  0.00  0.00    -0.022 C 
ATOM     20  C   UNL     1      -3.791 -12.052  19.543  0.00  0.00    +0.039 C 
ENDROOT
BRANCH   9  13
ATOM     13  C   UNL     1      -8.752 -12.127  16.401  0.00  0.00    -0.013 C 
ATOM     18  C   UNL     1      -8.989 -13.627  16.538  0.00  0.00    +0.007 C 
ATOM     19  C   UNL     1      -8.626 -11.732  14.932  0.00  0.00    +0.007 C 
ENDBRANCH   9  13
BRANCH  10  16
ATOM     16  C   UNL     1      -8.552 -11.104  19.406  0.00  0.00    +0.112 C 
BRANCH  16   4
ATOM      1  O   UNL     1     -11.259 -10.165  19.207  0.00  0.00    -0.268 OA
ATOM      4  N   UNL     1      -9.045 -10.104  18.511  0.00  0.00    -0.309 N 
ATOM     22  C   UNL     1     -10.382  -9.705  18.481  0.00  0.00    +0.264 C 
ATOM     35  H   UNL     1      -8.387  -9.635  17.897  0.00  0.00    +0.149 HD
BRANCH  22  27
ATOM      7  N   UNL     1     -12.046  -8.567  17.158  0.00  0.00    -0.247 NA
ATOM      8  N   UNL     1     -10.095  -6.931  15.982  0.00  0.00    -0.259 NA
ATOM     27  C   UNL     1     -10.740  -8.673  17.475  0.00  0.00    +0.143 A 
ATOM     30  C   UNL     1      -9.783  -7.870  16.898  0.00  0.00    +0.143 A 
ATOM     32  C   UNL     1     -12.359  -7.629  16.243  0.00  0.00    +0.131 A 
ATOM     33  C   UNL     1     -11.401  -6.826  15.665  0.00  0.00    +0.130 A 
ENDBRANCH  22  27
ENDBRANCH  16   4
ENDBRANCH  10  16
BRANCH  12  17
ATOM     17  C   UNL     1      -4.519 -10.552  16.798  0.00  0.00    +0.082 C 
BRANCH  17  21
ATOM      5  N   UNL     1      -4.938 -10.090  14.375  0.00  0.00    -0.342 N 
ATOM      6  N   UNL     1      -2.953 -10.964  14.869  0.00  0.00    -0.232 NA
ATOM     21  C   UNL     1      -4.102 -10.550  15.355  0.00  0.00    +0.109 A 
ATOM     23  C   UNL     1      -4.283 -10.215  13.176  0.00  0.00    +0.067 A 
ATOM     24  C   UNL     1      -3.048 -10.762  13.511  0.00  0.00    +0.089 A 
ATOM     25  C   UNL     1      -4.655  -9.905  11.868  0.00  0.00    +0.042 A 
ATOM     26  C   UNL     1      -2.116 -11.023  12.492  0.00  0.00    +0.030 A 
ATOM     28  C   UNL     1      -3.716 -10.171  10.867  0.00  0.00    +0.061 A 
ATOM     29  C   UNL     1      -2.468 -10.720  11.171  0.00  0.00    +0.017 A 
ATOM     36  H   UNL     1      -5.871  -9.723  14.508  0.00  0.00    +0.167 HD
BRANCH  28  31
ATOM      3  O   UNL     1      -4.113  -8.726   9.012  0.00  0.00    -0.245 OA
ATOM     31  C   UNL     1      -4.047  -9.870   9.482  0.00  0.00    +0.339 C 
BRANCH  31   2
ATOM      2  O   UNL     1      -4.275 -11.009   8.761  0.00  0.00    -0.464 OA
ATOM     34  C   UNL     1      -5.047 -10.872   7.563  0.00  0.00    +0.280 C 
ENDBRANCH  31   2
ENDBRANCH  28  31
ENDBRANCH  17  21
ENDBRANCH  12  17
TORSDOF 8
ENDMDL
MODEL 10
REMARK VINA RESULT:      -6.5     28.086     30.831
REMARK  Name = 71693171
REMARK  12 active torsions:
REMARK  status: ('A' for Active; 'I' for Inactive)
REMARK    1  A    between atoms: O_2  and  C_31
REMARK    2  A    between atoms: O_2  and  C_34
REMARK    3  A    between atoms: N_4  and  C_16
REMARK    4  A    between atoms: C_9  and  C_13
REMARK    5  A    between atoms: C_10  and  C_16
REMARK    6  A    between atoms: C_12  and  C_17
REMARK    7  A    between atoms: C_13  and  C_18
REMARK    8  A    between atoms: C_13  and  C_19
REMARK    9  A    between atoms: C_14  and  C_20
REMARK   10  A    between atoms: C_17  and  C_21
REMARK   11  A    between atoms: C_22  and  C_27
REMARK   12  A    between atoms: C_28  and  C_31
REMARK                            x       y       z     vdW  Elec       q    Type
REMARK                         _______ _______ _______ _____ _____    ______ ____
ROOT
ATOM      9  C   UNL     1      -6.529  -9.567   9.584  0.00  0.00    +0.000 C 
ATOM     10  C   UNL     1      -5.482  -9.187   8.508  0.00  0.00    +0.032 C 
ATOM     11  C   UNL     1      -6.158  -8.942  10.938  0.00  0.00    +0.012 C 
ATOM     12  C   UNL     1      -4.769  -9.395  11.427  0.00  0.00    +0.022 C 
ATOM     14  C   UNL     1      -3.728  -9.303  10.330  0.00  0.00    -0.073 C 
ATOM     15  C   UNL     1      -4.066  -9.196   9.032  0.00  0.00    -0.022 C 
ATOM     20  C   UNL     1      -2.288  -9.288  10.763  0.00  0.00    +0.039 C 
ENDROOT
BRANCH   9  13
ATOM     13  C   UNL     1      -7.942  -9.130   9.182  0.00  0.00    -0.013 C 
ATOM     18  C   UNL     1      -7.936  -7.680   8.709  0.00  0.00    +0.007 C 
ATOM     19  C   UNL     1      -8.908  -9.315  10.348  0.00  0.00    +0.007 C 
ENDBRANCH   9  13
BRANCH  10  16
ATOM     16  C   UNL     1      -5.581 -10.111   7.289  0.00  0.00    +0.112 C 
BRANCH  16   4
ATOM      1  O   UNL     1      -3.930 -11.873   5.735  0.00  0.00    -0.268 OA
ATOM      4  N   UNL     1      -5.198 -11.445   7.632  0.00  0.00    -0.309 N 
ATOM     22  C   UNL     1      -4.388 -12.235   6.815  0.00  0.00    +0.264 C 
ATOM     35  H   UNL     1      -5.495 -11.821   8.527  0.00  0.00    +0.149 HD
BRANCH  22  27
ATOM      7  N   UNL     1      -3.621 -14.482   6.393  0.00  0.00    -0.247 NA
ATOM      8  N   UNL     1      -4.068 -15.212   9.064  0.00  0.00    -0.259 NA
ATOM     27  C   UNL     1      -4.102 -13.609   7.300  0.00  0.00    +0.143 A 
ATOM     30  C   UNL     1      -4.321 -13.968   8.612  0.00  0.00    +0.143 A 
ATOM     32  C   UNL     1      -3.367 -15.726   6.845  0.00  0.00    +0.131 A 
ATOM     33  C   UNL     1      -3.586 -16.085   8.156  0.00  0.00    +0.130 A 
ENDBRANCH  22  27
ENDBRANCH  16   4
ENDBRANCH  10  16
BRANCH  12  17
ATOM     17  C   UNL     1      -4.825 -10.810  12.012  0.00  0.00    +0.082 C 
BRANCH  17  21
ATOM      5  N   UNL     1      -6.087 -10.704  14.170  0.00  0.00    -0.342 N 
ATOM      6  N   UNL     1      -3.873 -10.824  14.344  0.00  0.00    -0.232 NA
ATOM     21  C   UNL     1      -4.890 -10.782  13.513  0.00  0.00    +0.109 A 
ATOM     23  C   UNL     1      -5.824 -10.696  15.516  0.00  0.00    +0.067 A 
ATOM     24  C   UNL     1      -4.436 -10.772  15.599  0.00  0.00    +0.089 A 
ATOM     25  C   UNL     1      -6.656 -10.631  16.634  0.00  0.00    +0.042 A 
ATOM     26  C   UNL     1      -3.825 -10.784  16.864  0.00  0.00    +0.030 A 
ATOM     28  C   UNL     1      -6.031 -10.645  17.885  0.00  0.00    +0.061 A 
ATOM     29  C   UNL     1      -4.641 -10.719  18.000  0.00  0.00    +0.017 A 
ATOM     36  H   UNL     1      -7.002 -10.661  13.742  0.00  0.00    +0.167 HD
BRANCH  28  31
ATOM      3  O   UNL     1      -6.395 -10.584  20.241  0.00  0.00    -0.245 OA
ATOM     31  C   UNL     1      -6.847 -10.579  19.089  0.00  0.00    +0.339 C 
BRANCH  31   2
ATOM      2  O   UNL     1      -8.179 -10.510  18.789  0.00  0.00    -0.464 OA
ATOM     34  C   UNL     1      -9.056 -11.354  19.542  0.00  0.00    +0.280 C 
ENDBRANCH  31   2
ENDBRANCH  28  31
ENDBRANCH  17  21
ENDBRANCH  12  17
TORSDOF 8
ENDMDL
