MODEL 1
REMARK VINA RESULT:      -7.4      0.000      0.000
REMARK  Name = 40724405
REMARK  4 active torsions:
REMARK  status: ('A' for Active; 'I' for Inactive)
REMARK    1  A    between atoms: N_4  and  C_14
REMARK    2  A    between atoms: N_7  and  C_21
REMARK    3  A    between atoms: N_8  and  C_26
REMARK    4  A    between atoms: C_25  and  C_33
REMARK                            x       y       z     vdW  Elec       q    Type
REMARK                         _______ _______ _______ _____ _____    ______ ____
ROOT
ATOM      1  O   UNL     1      15.440   8.607  -0.413  0.00  0.00    -0.268 OA
ATOM      4  N   UNL     1      12.711   4.398  -0.481  0.00  0.00    -0.298 NA
ATOM      5  N   UNL     1      14.758   6.601   0.589  0.00  0.00    -0.310 N 
ATOM      9  C   UNL     1      15.217   4.318  -0.481  0.00  0.00    +0.024 C 
ATOM     10  C   UNL     1      14.016   4.446   1.648  0.00  0.00    +0.052 C 
ATOM     11  C   UNL     1      15.222   3.817   0.954  0.00  0.00    +0.017 C 
ATOM     12  C   UNL     1      13.904   3.911  -1.183  0.00  0.00    +0.090 C 
ATOM     13  C   UNL     1      12.720   3.997   0.933  0.00  0.00    +0.094 C 
ATOM     15  C   UNL     1      15.435   5.833  -0.465  0.00  0.00    +0.130 C 
ATOM     16  C   UNL     1      14.111   5.970   1.665  0.00  0.00    +0.047 A 
ATOM     21  C   UNL     1      13.575   6.718   2.657  0.00  0.00    +0.055 A 
ATOM     22  C   UNL     1      14.873   8.001   0.498  0.00  0.00    +0.252 A 
ATOM     23  C   UNL     1      13.669   8.157   2.612  0.00  0.00    +0.030 A 
ATOM     24  C   UNL     1      14.268   8.788   1.600  0.00  0.00    +0.072 A 
ENDROOT
BRANCH   4  14
ATOM      2  O   UNL     1       9.970   2.512  -5.652  0.00  0.00    -0.276 OA
ATOM      6  N   UNL     1       9.953   3.527  -3.562  0.00  0.00    -0.302 N 
ATOM     14  C   UNL     1      11.491   3.947  -1.145  0.00  0.00    +0.060 C 
ATOM     17  C   UNL     1      11.813   2.802  -2.116  0.00  0.00    +0.038 C 
ATOM     18  C   UNL     1      10.836   5.116  -1.894  0.00  0.00    +0.038 C 
ATOM     19  C   UNL     1      10.567   2.379  -2.891  0.00  0.00    +0.109 C 
ATOM     20  C   UNL     1       9.609   4.646  -2.675  0.00  0.00    +0.109 C 
ATOM     25  C   UNL     1       9.705   3.479  -4.933  0.00  0.00    +0.212 C 
ATOM     33  C   UNL     1       9.073   4.701  -5.550  0.00  0.00    +0.109 C 
ENDBRANCH   4  14
BRANCH  21   7
ATOM      3  O   UNL     1      10.756   6.277   2.839  0.00  0.00    -0.253 OA
ATOM      7  N   UNL     1      12.904   6.193   3.728  0.00  0.00    -0.268 N 
ATOM      8  N   UNL     1      11.126   5.453   4.975  0.00  0.00    -0.296 N 
ATOM     29  C   UNL     1      11.526   6.003   3.758  0.00  0.00    +0.304 C 
ATOM     34  H   UNL     1      13.390   6.135   4.617  0.00  0.00    +0.156 HD
ATOM     35  H   UNL     1      11.848   5.189   5.639  0.00  0.00    +0.151 HD
BRANCH   8  26
ATOM     26  C   UNL     1       9.747   5.149   5.284  0.00  0.00    +0.074 C 
ATOM     27  C   UNL     1       9.651   4.097   6.394  0.00  0.00    +0.022 C 
ATOM     28  C   UNL     1       8.972   6.419   5.654  0.00  0.00    +0.022 C 
ATOM     30  C   UNL     1      10.049   4.650   7.762  0.00  0.00    +0.002 C 
ATOM     31  C   UNL     1       9.371   6.969   7.024  0.00  0.00    +0.002 C 
ATOM     32  C   UNL     1       9.256   5.906   8.112  0.00  0.00    +0.000 C 
ENDBRANCH   8  26
ENDBRANCH  21   7
TORSDOF 3
ENDMDL
MODEL 2
REMARK VINA RESULT:      -7.2      3.096      8.906
REMARK  Name = 40724405
REMARK  4 active torsions:
REMARK  status: ('A' for Active; 'I' for Inactive)
REMARK    1  A    between atoms: N_4  and  C_14
REMARK    2  A    between atoms: N_7  and  C_21
REMARK    3  A    between atoms: N_8  and  C_26
REMARK    4  A    between atoms: C_25  and  C_33
REMARK                            x       y       z     vdW  Elec       q    Type
REMARK                         _______ _______ _______ _____ _____    ______ ____
ROOT
ATOM      1  O   UNL     1       7.086   9.875   4.946  0.00  0.00    -0.268 OA
ATOM      4  N   UNL     1      11.331   7.679   6.467  0.00  0.00    -0.298 NA
ATOM      5  N   UNL     1       8.463   7.986   5.101  0.00  0.00    -0.310 N 
ATOM      9  C   UNL     1       9.105   6.946   7.354  0.00  0.00    +0.024 C 
ATOM     10  C   UNL     1       9.954   5.970   5.277  0.00  0.00    +0.052 C 
ATOM     11  C   UNL     1       9.190   5.653   6.560  0.00  0.00    +0.017 C 
ATOM     12  C   UNL     1      10.520   7.471   7.671  0.00  0.00    +0.090 C 
ATOM     13  C   UNL     1      11.374   6.469   5.633  0.00  0.00    +0.094 C 
ATOM     15  C   UNL     1       8.266   7.949   6.556  0.00  0.00    +0.130 C 
ATOM     16  C   UNL     1       9.223   7.011   4.431  0.00  0.00    +0.047 A 
ATOM     21  C   UNL     1       9.307   7.036   3.081  0.00  0.00    +0.055 A 
ATOM     22  C   UNL     1       7.777   9.005   4.414  0.00  0.00    +0.252 A 
ATOM     23  C   UNL     1       8.618   8.059   2.330  0.00  0.00    +0.030 A 
ATOM     24  C   UNL     1       7.896   9.004   2.935  0.00  0.00    +0.072 A 
ENDROOT
BRANCH   4  14
ATOM      2  O   UNL     1      16.440  10.664   4.794  0.00  0.00    -0.276 OA
ATOM      6  N   UNL     1      15.305   9.047   6.015  0.00  0.00    -0.302 N 
ATOM     14  C   UNL     1      12.679   8.123   6.813  0.00  0.00    +0.060 C 
ATOM     17  C   UNL     1      12.910   9.552   6.305  0.00  0.00    +0.038 C 
ATOM     18  C   UNL     1      13.719   7.167   6.213  0.00  0.00    +0.038 C 
ATOM     19  C   UNL     1      14.345  10.002   6.573  0.00  0.00    +0.109 C 
ATOM     20  C   UNL     1      15.140   7.664   6.482  0.00  0.00    +0.109 C 
ATOM     25  C   UNL     1      16.300   9.490   5.144  0.00  0.00    +0.212 C 
ATOM     33  C   UNL     1      17.247   8.445   4.611  0.00  0.00    +0.109 C 
ENDBRANCH   4  14
BRANCH  21   7
ATOM      3  O   UNL     1      12.018   7.374   2.234  0.00  0.00    -0.253 OA
ATOM      7  N   UNL     1      10.044   6.147   2.348  0.00  0.00    -0.268 N 
ATOM      8  N   UNL     1      11.853   5.291   1.227  0.00  0.00    -0.296 N 
ATOM     29  C   UNL     1      11.363   6.367   1.963  0.00  0.00    +0.304 C 
ATOM     34  H   UNL     1       9.555   5.390   1.880  0.00  0.00    +0.156 HD
ATOM     35  H   UNL     1      11.261   4.472   1.126  0.00  0.00    +0.151 HD
BRANCH   8  26
ATOM     26  C   UNL     1      13.199   5.248   0.699  0.00  0.00    +0.074 C 
ATOM     27  C   UNL     1      13.680   3.803   0.533  0.00  0.00    +0.022 C 
ATOM     28  C   UNL     1      13.296   6.021  -0.622  0.00  0.00    +0.022 C 
ATOM     30  C   UNL     1      12.985   3.082  -0.622  0.00  0.00    +0.002 C 
ATOM     31  C   UNL     1      12.601   5.297  -1.776  0.00  0.00    +0.002 C 
ATOM     32  C   UNL     1      13.105   3.865  -1.927  0.00  0.00    +0.000 C 
ENDBRANCH   8  26
ENDBRANCH  21   7
TORSDOF 3
ENDMDL
MODEL 3
REMARK VINA RESULT:      -7.1     24.526     28.975
REMARK  Name = 40724405
REMARK  4 active torsions:
REMARK  status: ('A' for Active; 'I' for Inactive)
REMARK    1  A    between atoms: N_4  and  C_14
REMARK    2  A    between atoms: N_7  and  C_21
REMARK    3  A    between atoms: N_8  and  C_26
REMARK    4  A    between atoms: C_25  and  C_33
REMARK                            x       y       z     vdW  Elec       q    Type
REMARK                         _______ _______ _______ _____ _____    ______ ____
ROOT
ATOM      1  O   UNL     1      -4.980 -15.528  17.096  0.00  0.00    -0.268 OA
ATOM      4  N   UNL     1      -7.007 -10.943  17.257  0.00  0.00    -0.298 NA
ATOM      5  N   UNL     1      -4.820 -13.214  16.764  0.00  0.00    -0.310 N 
ATOM      9  C   UNL     1      -5.042 -11.541  18.693  0.00  0.00    +0.024 C 
ATOM     10  C   UNL     1      -4.666 -10.729  16.415  0.00  0.00    +0.052 C 
ATOM     11  C   UNL     1      -4.129 -10.673  17.844  0.00  0.00    +0.017 C 
ATOM     12  C   UNL     1      -6.491 -11.015  18.628  0.00  0.00    +0.090 C 
ATOM     13  C   UNL     1      -6.108 -10.172  16.385  0.00  0.00    +0.094 C 
ATOM     15  C   UNL     1      -4.916 -12.990  18.214  0.00  0.00    +0.130 C 
ATOM     16  C   UNL     1      -4.635 -12.153  15.861  0.00  0.00    +0.047 A 
ATOM     21  C   UNL     1      -4.467 -12.414  14.545  0.00  0.00    +0.055 A 
ATOM     22  C   UNL     1      -4.837 -14.559  16.349  0.00  0.00    +0.252 A 
ATOM     23  C   UNL     1      -4.473 -13.776  14.069  0.00  0.00    +0.030 A 
ATOM     24  C   UNL     1      -4.654 -14.806  14.898  0.00  0.00    +0.072 A 
ENDROOT
BRANCH   4  14
ATOM      2  O   UNL     1     -11.374  -7.945  14.134  0.00  0.00    -0.276 OA
ATOM      6  N   UNL     1     -10.317  -8.582  16.102  0.00  0.00    -0.302 N 
ATOM     14  C   UNL     1      -8.359 -10.389  17.234  0.00  0.00    +0.060 C 
ATOM     17  C   UNL     1      -9.018 -10.664  15.876  0.00  0.00    +0.038 C 
ATOM     18  C   UNL     1      -8.315  -8.881  17.513  0.00  0.00    +0.038 C 
ATOM     19  C   UNL     1     -10.397 -10.012  15.797  0.00  0.00    +0.109 C 
ATOM     20  C   UNL     1      -9.709  -8.262  17.400  0.00  0.00    +0.109 C 
ATOM     25  C   UNL     1     -10.835  -7.650  15.203  0.00  0.00    +0.212 C 
ATOM     33  C   UNL     1     -10.712  -6.197  15.589  0.00  0.00    +0.109 C 
ENDBRANCH   4  14
BRANCH  21   7
ATOM      3  O   UNL     1      -6.539 -11.243  12.960  0.00  0.00    -0.253 OA
ATOM      7  N   UNL     1      -4.309 -11.445  13.591  0.00  0.00    -0.268 N 
ATOM      8  N   UNL     1      -4.897  -9.948  11.956  0.00  0.00    -0.296 N 
ATOM     29  C   UNL     1      -5.359 -10.913  12.848  0.00  0.00    +0.304 C 
ATOM     34  H   UNL     1      -3.371 -11.252  13.254  0.00  0.00    +0.156 HD
ATOM     35  H   UNL     1      -3.916  -9.690  11.997  0.00  0.00    +0.151 HD
BRANCH   8  26
ATOM     26  C   UNL     1      -5.772  -9.228  11.057  0.00  0.00    +0.074 C 
ATOM     27  C   UNL     1      -4.995  -8.176  10.259  0.00  0.00    +0.022 C 
ATOM     28  C   UNL     1      -6.518 -10.191  10.126  0.00  0.00    +0.022 C 
ATOM     30  C   UNL     1      -4.082  -8.797   9.202  0.00  0.00    +0.002 C 
ATOM     31  C   UNL     1      -5.603 -10.810   9.068  0.00  0.00    +0.002 C 
ATOM     32  C   UNL     1      -4.850  -9.742   8.282  0.00  0.00    +0.000 C 
ENDBRANCH   8  26
ENDBRANCH  21   7
TORSDOF 3
ENDMDL
MODEL 4
REMARK VINA RESULT:      -7.0     25.293     29.454
REMARK  Name = 40724405
REMARK  4 active torsions:
REMARK  status: ('A' for Active; 'I' for Inactive)
REMARK    1  A    between atoms: N_4  and  C_14
REMARK    2  A    between atoms: N_7  and  C_21
REMARK    3  A    between atoms: N_8  and  C_26
REMARK    4  A    between atoms: C_25  and  C_33
REMARK                            x       y       z     vdW  Elec       q    Type
REMARK                         _______ _______ _______ _____ _____    ______ ____
ROOT
ATOM      1  O   UNL     1      -6.336 -11.792  20.627  0.00  0.00    -0.268 OA
ATOM      4  N   UNL     1      -8.741 -11.773  16.225  0.00  0.00    -0.298 NA
ATOM      5  N   UNL     1      -6.775 -10.807  18.547  0.00  0.00    -0.310 N 
ATOM      9  C   UNL     1      -9.105  -9.952  17.908  0.00  0.00    +0.024 C 
ATOM     10  C   UNL     1      -7.260  -9.765  16.311  0.00  0.00    +0.052 C 
ATOM     11  C   UNL     1      -8.339  -8.967  17.040  0.00  0.00    +0.017 C 
ATOM     12  C   UNL     1      -9.734 -11.057  17.034  0.00  0.00    +0.090 C 
ATOM     13  C   UNL     1      -7.927 -10.845  15.428  0.00  0.00    +0.094 C 
ATOM     15  C   UNL     1      -8.151 -10.507  18.969  0.00  0.00    +0.130 C 
ATOM     16  C   UNL     1      -6.283 -10.411  17.291  0.00  0.00    +0.047 A 
ATOM     21  C   UNL     1      -4.985 -10.634  16.980  0.00  0.00    +0.055 A 
ATOM     22  C   UNL     1      -5.962 -11.437  19.508  0.00  0.00    +0.252 A 
ATOM     23  C   UNL     1      -4.110 -11.273  17.932  0.00  0.00    +0.030 A 
ATOM     24  C   UNL     1      -4.547 -11.670  19.129  0.00  0.00    +0.072 A 
ENDROOT
BRANCH   4  14
ATOM      2  O   UNL     1      -9.756 -13.928  10.556  0.00  0.00    -0.276 OA
ATOM      6  N   UNL     1     -10.354 -13.612  12.778  0.00  0.00    -0.302 N 
ATOM     14  C   UNL     1      -9.382 -12.772  15.373  0.00  0.00    +0.060 C 
ATOM     17  C   UNL     1      -8.424 -13.204  14.255  0.00  0.00    +0.038 C 
ATOM     18  C   UNL     1     -10.678 -12.203  14.778  0.00  0.00    +0.038 C 
ATOM     19  C   UNL     1      -9.107 -14.177  13.297  0.00  0.00    +0.109 C 
ATOM     20  C   UNL     1     -11.317 -13.197  13.808  0.00  0.00    +0.109 C 
ATOM     25  C   UNL     1     -10.565 -13.539  11.402  0.00  0.00    +0.212 C 
ATOM     33  C   UNL     1     -11.873 -12.942  10.948  0.00  0.00    +0.109 C 
ENDBRANCH   4  14
BRANCH  21   7
ATOM      3  O   UNL     1      -4.739 -12.353  14.707  0.00  0.00    -0.253 OA
ATOM      7  N   UNL     1      -4.426 -10.309  15.774  0.00  0.00    -0.268 N 
ATOM      8  N   UNL     1      -3.718 -10.583  13.609  0.00  0.00    -0.296 N 
ATOM     29  C   UNL     1      -4.333 -11.191  14.701  0.00  0.00    +0.304 C 
ATOM     34  H   UNL     1      -3.864  -9.465  15.718  0.00  0.00    +0.156 HD
ATOM     35  H   UNL     1      -3.492  -9.595  13.678  0.00  0.00    +0.151 HD
BRANCH   8  26
ATOM     26  C   UNL     1      -3.490 -11.266  12.355  0.00  0.00    +0.074 C 
ATOM     27  C   UNL     1      -4.567 -10.905  11.327  0.00  0.00    +0.022 C 
ATOM     28  C   UNL     1      -2.085 -10.972  11.815  0.00  0.00    +0.022 C 
ATOM     30  C   UNL     1      -4.425  -9.474  10.808  0.00  0.00    +0.002 C 
ATOM     31  C   UNL     1      -1.947  -9.541  11.295  0.00  0.00    +0.002 C 
ATOM     32  C   UNL     1      -3.023  -9.210  10.266  0.00  0.00    +0.000 C 
ENDBRANCH   8  26
ENDBRANCH  21   7
TORSDOF 3
ENDMDL
MODEL 5
REMARK VINA RESULT:      -6.9     24.832     27.764
REMARK  Name = 40724405
REMARK  4 active torsions:
REMARK  status: ('A' for Active; 'I' for Inactive)
REMARK    1  A    between atoms: N_4  and  C_14
REMARK    2  A    between atoms: N_7  and  C_21
REMARK    3  A    between atoms: N_8  and  C_26
REMARK    4  A    between atoms: C_25  and  C_33
REMARK                            x       y       z     vdW  Elec       q    Type
REMARK                         _______ _______ _______ _____ _____    ______ ____
ROOT
ATOM      1  O   UNL     1      -1.978 -15.280  12.876  0.00  0.00    -0.268 OA
ATOM      4  N   UNL     1      -4.437 -11.185  14.408  0.00  0.00    -0.298 NA
ATOM      5  N   UNL     1      -2.592 -13.038  12.579  0.00  0.00    -0.310 N 
ATOM      9  C   UNL     1      -1.936 -11.211  14.252  0.00  0.00    +0.024 C 
ATOM     10  C   UNL     1      -3.260 -10.634  12.276  0.00  0.00    +0.052 C 
ATOM     11  C   UNL     1      -1.980 -10.297  13.039  0.00  0.00    +0.017 C 
ATOM     12  C   UNL     1      -3.179 -10.985  15.136  0.00  0.00    +0.090 C 
ATOM     13  C   UNL     1      -4.484 -10.372  13.184  0.00  0.00    +0.094 C 
ATOM     15  C   UNL     1      -1.811 -12.657  13.764  0.00  0.00    +0.130 C 
ATOM     16  C   UNL     1      -3.259 -12.083  11.792  0.00  0.00    +0.047 A 
ATOM     21  C   UNL     1      -3.894 -12.470  10.663  0.00  0.00    +0.055 A 
ATOM     22  C   UNL     1      -2.558 -14.402  12.234  0.00  0.00    +0.252 A 
ATOM     23  C   UNL     1      -3.886 -13.857  10.264  0.00  0.00    +0.030 A 
ATOM     24  C   UNL     1      -3.270 -14.790  10.992  0.00  0.00    +0.072 A 
ENDROOT
BRANCH   4  14
ATOM      2  O   UNL     1      -6.636 -10.299  20.082  0.00  0.00    -0.276 OA
ATOM      6  N   UNL     1      -6.857 -10.962  17.866  0.00  0.00    -0.302 N 
ATOM     14  C   UNL     1      -5.588 -10.909  15.264  0.00  0.00    +0.060 C 
ATOM     17  C   UNL     1      -5.196  -9.922  16.371  0.00  0.00    +0.038 C 
ATOM     18  C   UNL     1      -6.117 -12.215  15.873  0.00  0.00    +0.038 C 
ATOM     19  C   UNL     1      -6.360  -9.692  17.334  0.00  0.00    +0.109 C 
ATOM     20  C   UNL     1      -7.263 -11.940  16.848  0.00  0.00    +0.109 C 
ATOM     25  C   UNL     1      -6.950 -11.149  19.245  0.00  0.00    +0.212 C 
ATOM     33  C   UNL     1      -7.469 -12.485  19.714  0.00  0.00    +0.109 C 
ENDBRANCH   4  14
BRANCH  21   7
ATOM      3  O   UNL     1      -6.720 -12.030  10.696  0.00  0.00    -0.253 OA
ATOM      7  N   UNL     1      -4.592 -11.617   9.852  0.00  0.00    -0.268 N 
ATOM      8  N   UNL     1      -6.400 -10.515   8.969  0.00  0.00    -0.296 N 
ATOM     29  C   UNL     1      -5.971 -11.445   9.914  0.00  0.00    +0.304 C 
ATOM     34  H   UNL     1      -4.125 -11.248   9.028  0.00  0.00    +0.156 HD
ATOM     35  H   UNL     1      -5.694 -10.028   8.425  0.00  0.00    +0.151 HD
BRANCH   8  26
ATOM     26  C   UNL     1      -7.788 -10.140   8.810  0.00  0.00    +0.074 C 
ATOM     27  C   UNL     1      -8.074  -8.792   9.479  0.00  0.00    +0.022 C 
ATOM     28  C   UNL     1      -8.186 -10.121   7.330  0.00  0.00    +0.022 C 
ATOM     30  C   UNL     1      -7.457  -7.617   8.719  0.00  0.00    +0.002 C 
ATOM     31  C   UNL     1      -7.569  -8.945   6.572  0.00  0.00    +0.002 C 
ATOM     32  C   UNL     1      -7.878  -7.615   7.252  0.00  0.00    +0.000 C 
ENDBRANCH   8  26
ENDBRANCH  21   7
TORSDOF 3
ENDMDL
MODEL 6
REMARK VINA RESULT:      -6.8     24.112     28.315
REMARK  Name = 40724405
REMARK  4 active torsions:
REMARK  status: ('A' for Active; 'I' for Inactive)
REMARK    1  A    between atoms: N_4  and  C_14
REMARK    2  A    between atoms: N_7  and  C_21
REMARK    3  A    between atoms: N_8  and  C_26
REMARK    4  A    between atoms: C_25  and  C_33
REMARK                            x       y       z     vdW  Elec       q    Type
REMARK                         _______ _______ _______ _____ _____    ______ ____
ROOT
ATOM      1  O   UNL     1      19.646  -5.140  21.192  0.00  0.00    -0.268 OA
ATOM      4  N   UNL     1      18.564  -2.181  25.095  0.00  0.00    -0.298 NA
ATOM      5  N   UNL     1      18.143  -4.380  22.820  0.00  0.00    -0.310 N 
ATOM      9  C   UNL     1      17.351  -1.944  22.914  0.00  0.00    +0.024 C 
ATOM     10  C   UNL     1      16.544  -3.551  24.574  0.00  0.00    +0.052 C 
ATOM     11  C   UNL     1      16.092  -2.536  23.526  0.00  0.00    +0.017 C 
ATOM     12  C   UNL     1      18.206  -1.266  24.005  0.00  0.00    +0.090 C 
ATOM     13  C   UNL     1      17.375  -2.832  25.661  0.00  0.00    +0.094 C 
ATOM     15  C   UNL     1      18.102  -3.058  22.180  0.00  0.00    +0.130 C 
ATOM     16  C   UNL     1      17.356  -4.682  23.946  0.00  0.00    +0.047 A 
ATOM     21  C   UNL     1      17.362  -5.937  24.450  0.00  0.00    +0.055 A 
ATOM     22  C   UNL     1      18.949  -5.344  22.187  0.00  0.00    +0.252 A 
ATOM     23  C   UNL     1      18.169  -6.963  23.835  0.00  0.00    +0.030 A 
ATOM     24  C   UNL     1      18.934  -6.708  22.772  0.00  0.00    +0.072 A 
ENDROOT
BRANCH   4  14
ATOM      2  O   UNL     1      23.896  -1.483  28.078  0.00  0.00    -0.276 OA
ATOM      6  N   UNL     1      21.579  -1.376  27.946  0.00  0.00    -0.302 N 
ATOM     14  C   UNL     1      19.325  -1.487  26.131  0.00  0.00    +0.060 C 
ATOM     17  C   UNL     1      20.746  -1.192  25.633  0.00  0.00    +0.038 C 
ATOM     18  C   UNL     1      19.371  -2.338  27.408  0.00  0.00    +0.038 C 
ATOM     19  C   UNL     1      21.589  -0.552  26.735  0.00  0.00    +0.109 C 
ATOM     20  C   UNL     1      20.242  -1.676  28.476  0.00  0.00    +0.109 C 
ATOM     25  C   UNL     1      22.784  -1.777  28.522  0.00  0.00    +0.212 C 
ATOM     33  C   UNL     1      22.689  -2.626  29.765  0.00  0.00    +0.109 C 
ENDBRANCH   4  14
BRANCH  21   7
ATOM      3  O   UNL     1      18.303  -5.936  27.151  0.00  0.00    -0.253 OA
ATOM      7  N   UNL     1      16.651  -6.315  25.557  0.00  0.00    -0.268 N 
ATOM      8  N   UNL     1      16.215  -6.732  27.770  0.00  0.00    -0.296 N 
ATOM     29  C   UNL     1      17.165  -6.294  26.850  0.00  0.00    +0.304 C 
ATOM     34  H   UNL     1      15.789  -6.833  25.419  0.00  0.00    +0.156 HD
ATOM     35  H   UNL     1      15.278  -6.929  27.431  0.00  0.00    +0.151 HD
BRANCH   8  26
ATOM     26  C   UNL     1      16.475  -6.813  29.190  0.00  0.00    +0.074 C 
ATOM     27  C   UNL     1      15.692  -5.742  29.956  0.00  0.00    +0.022 C 
ATOM     28  C   UNL     1      16.168  -8.216  29.728  0.00  0.00    +0.022 C 
ATOM     30  C   UNL     1      14.193  -6.036  30.007  0.00  0.00    +0.002 C 
ATOM     31  C   UNL     1      14.667  -8.507  29.779  0.00  0.00    +0.002 C 
ATOM     32  C   UNL     1      13.913  -7.433  30.555  0.00  0.00    +0.000 C 
ENDBRANCH   8  26
ENDBRANCH  21   7
TORSDOF 3
ENDMDL
MODEL 7
REMARK VINA RESULT:      -6.7      4.581      7.649
REMARK  Name = 40724405
REMARK  4 active torsions:
REMARK  status: ('A' for Active; 'I' for Inactive)
REMARK    1  A    between atoms: N_4  and  C_14
REMARK    2  A    between atoms: N_7  and  C_21
REMARK    3  A    between atoms: N_8  and  C_26
REMARK    4  A    between atoms: C_25  and  C_33
REMARK                            x       y       z     vdW  Elec       q    Type
REMARK                         _______ _______ _______ _____ _____    ______ ____
ROOT
ATOM      1  O   UNL     1      11.164   9.922   8.074  0.00  0.00    -0.268 OA
ATOM      4  N   UNL     1      10.402   6.899   4.144  0.00  0.00    -0.298 NA
ATOM      5  N   UNL     1       9.717   8.746   6.655  0.00  0.00    -0.310 N 
ATOM      9  C   UNL     1       9.772   6.191   6.464  0.00  0.00    +0.024 C 
ATOM     10  C   UNL     1       8.180   7.478   5.123  0.00  0.00    +0.052 C 
ATOM     11  C   UNL     1       8.296   6.336   6.131  0.00  0.00    +0.017 C 
ATOM     12  C   UNL     1      10.580   5.882   5.187  0.00  0.00    +0.090 C 
ATOM     13  C   UNL     1       8.980   7.122   3.849  0.00  0.00    +0.094 C 
ATOM     15  C   UNL     1      10.237   7.470   7.165  0.00  0.00    +0.130 C 
ATOM     16  C   UNL     1       8.676   8.797   5.711  0.00  0.00    +0.047 A 
ATOM     21  C   UNL     1       8.171   9.994   5.334  0.00  0.00    +0.055 A 
ATOM     22  C   UNL     1      10.263   9.907   7.233  0.00  0.00    +0.252 A 
ATOM     23  C   UNL     1       8.695  11.214   5.900  0.00  0.00    +0.030 A 
ATOM     24  C   UNL     1       9.688  11.201   6.792  0.00  0.00    +0.072 A 
ENDROOT
BRANCH   4  14
ATOM      2  O   UNL     1      13.181   2.542   0.812  0.00  0.00    -0.276 OA
ATOM      6  N   UNL     1      12.894   4.743   1.497  0.00  0.00    -0.302 N 
ATOM     14  C   UNL     1      11.139   6.543   2.934  0.00  0.00    +0.060 C 
ATOM     17  C   UNL     1      10.643   5.195   2.393  0.00  0.00    +0.038 C 
ATOM     18  C   UNL     1      12.643   6.479   3.232  0.00  0.00    +0.038 C 
ATOM     19  C   UNL     1      11.464   4.757   1.182  0.00  0.00    +0.109 C 
ATOM     20  C   UNL     1      13.426   6.015   2.004  0.00  0.00    +0.109 C 
ATOM     25  C   UNL     1      13.643   3.589   1.272  0.00  0.00    +0.212 C 
ATOM     33  C   UNL     1      15.108   3.653   1.625  0.00  0.00    +0.109 C 
ENDBRANCH   4  14
BRANCH  21   7
ATOM      3  O   UNL     1       8.526  10.599   2.562  0.00  0.00    -0.253 OA
ATOM      7  N   UNL     1       7.179  10.142   4.403  0.00  0.00    -0.268 N 
ATOM      8  N   UNL     1       6.217  10.528   2.357  0.00  0.00    -0.296 N 
ATOM     29  C   UNL     1       7.414  10.438   3.063  0.00  0.00    +0.304 C 
ATOM     34  H   UNL     1       6.225  10.252   4.732  0.00  0.00    +0.156 HD
ATOM     35  H   UNL     1       5.356  10.300   2.845  0.00  0.00    +0.151 HD
BRANCH   8  26
ATOM     26  C   UNL     1       6.161  10.826   0.942  0.00  0.00    +0.074 C 
ATOM     27  C   UNL     1       5.849   9.566   0.127  0.00  0.00    +0.022 C 
ATOM     28  C   UNL     1       5.146  11.939   0.654  0.00  0.00    +0.022 C 
ATOM     30  C   UNL     1       4.402   9.102   0.295  0.00  0.00    +0.002 C 
ATOM     31  C   UNL     1       3.700  11.471   0.821  0.00  0.00    +0.002 C 
ATOM     32  C   UNL     1       3.413  10.223  -0.008  0.00  0.00    +0.000 C 
ENDBRANCH   8  26
ENDBRANCH  21   7
TORSDOF 3
ENDMDL
MODEL 8
REMARK VINA RESULT:      -6.7      4.513      7.589
REMARK  Name = 40724405
REMARK  4 active torsions:
REMARK  status: ('A' for Active; 'I' for Inactive)
REMARK    1  A    between atoms: N_4  and  C_14
REMARK    2  A    between atoms: N_7  and  C_21
REMARK    3  A    between atoms: N_8  and  C_26
REMARK    4  A    between atoms: C_25  and  C_33
REMARK                            x       y       z     vdW  Elec       q    Type
REMARK                         _______ _______ _______ _____ _____    ______ ____
ROOT
ATOM      1  O   UNL     1      10.380   9.522   8.308  0.00  0.00    -0.268 OA
ATOM      4  N   UNL     1      10.663   6.483   4.327  0.00  0.00    -0.298 NA
ATOM      5  N   UNL     1       9.375   8.457   6.480  0.00  0.00    -0.310 N 
ATOM      9  C   UNL     1       9.228   5.904   6.299  0.00  0.00    +0.024 C 
ATOM     10  C   UNL     1       8.313   7.305   4.513  0.00  0.00    +0.052 C 
ATOM     11  C   UNL     1       7.970   6.186   5.494  0.00  0.00    +0.017 C 
ATOM     12  C   UNL     1      10.379   5.482   5.362  0.00  0.00    +0.090 C 
ATOM     13  C   UNL     1       9.451   6.838   3.576  0.00  0.00    +0.094 C 
ATOM     15  C   UNL     1       9.563   7.150   7.125  0.00  0.00    +0.130 C 
ATOM     16  C   UNL     1       8.718   8.584   5.243  0.00  0.00    +0.047 A 
ATOM     21  C   UNL     1       8.492   9.815   4.728  0.00  0.00    +0.055 A 
ATOM     22  C   UNL     1       9.814   9.573   7.215  0.00  0.00    +0.252 A 
ATOM     23  C   UNL     1       8.920  10.992   5.445  0.00  0.00    +0.030 A 
ATOM     24  C   UNL     1       9.554  10.905   6.616  0.00  0.00    +0.072 A 
ENDROOT
BRANCH   4  14
ATOM      2  O   UNL     1      12.671   5.760  -1.440  0.00  0.00    -0.276 OA
ATOM      6  N   UNL     1      12.591   5.165   0.805  0.00  0.00    -0.302 N 
ATOM     14  C   UNL     1      11.719   6.022   3.429  0.00  0.00    +0.060 C 
ATOM     17  C   UNL     1      11.902   7.018   2.276  0.00  0.00    +0.038 C 
ATOM     18  C   UNL     1      11.376   4.629   2.884  0.00  0.00    +0.038 C 
ATOM     19  C   UNL     1      12.936   6.508   1.274  0.00  0.00    +0.109 C 
ATOM     20  C   UNL     1      12.421   4.166   1.868  0.00  0.00    +0.109 C 
ATOM     25  C   UNL     1      12.488   4.912  -0.563  0.00  0.00    +0.212 C 
ATOM     33  C   UNL     1      12.127   3.504  -0.965  0.00  0.00    +0.109 C 
ENDBRANCH   4  14
BRANCH  21   7
ATOM      3  O   UNL     1       5.710  10.313   4.292  0.00  0.00    -0.253 OA
ATOM      7  N   UNL     1       7.887  10.035   3.520  0.00  0.00    -0.268 N 
ATOM      8  N   UNL     1       6.197  10.460   2.029  0.00  0.00    -0.296 N 
ATOM     29  C   UNL     1       6.524  10.271   3.370  0.00  0.00    +0.304 C 
ATOM     34  H   UNL     1       8.405   9.808   2.676  0.00  0.00    +0.156 HD
ATOM     35  H   UNL     1       6.954  10.486   1.352  0.00  0.00    +0.151 HD
BRANCH   8  26
ATOM     26  C   UNL     1       4.848  10.724   1.580  0.00  0.00    +0.074 C 
ATOM     27  C   UNL     1       4.812  11.917   0.618  0.00  0.00    +0.022 C 
ATOM     28  C   UNL     1       4.226   9.477   0.940  0.00  0.00    +0.022 C 
ATOM     30  C   UNL     1       5.421  11.589  -0.746  0.00  0.00    +0.002 C 
ATOM     31  C   UNL     1       4.835   9.153  -0.424  0.00  0.00    +0.002 C 
ATOM     32  C   UNL     1       4.777  10.352  -1.365  0.00  0.00    +0.000 C 
ENDBRANCH   8  26
ENDBRANCH  21   7
TORSDOF 3
ENDMDL
MODEL 9
REMARK VINA RESULT:      -6.6     27.169     30.337
REMARK  Name = 40724405
REMARK  4 active torsions:
REMARK  status: ('A' for Active; 'I' for Inactive)
REMARK    1  A    between atoms: N_4  and  C_14
REMARK    2  A    between atoms: N_7  and  C_21
REMARK    3  A    between atoms: N_8  and  C_26
REMARK    4  A    between atoms: C_25  and  C_33
REMARK                            x       y       z     vdW  Elec       q    Type
REMARK                         _______ _______ _______ _____ _____    ______ ____
ROOT
ATOM      1  O   UNL     1      -3.883 -12.809  12.658  0.00  0.00    -0.268 OA
ATOM      4  N   UNL     1      -6.025 -12.273  17.162  0.00  0.00    -0.298 NA
ATOM      5  N   UNL     1      -4.752 -11.446  14.354  0.00  0.00    -0.310 N 
ATOM      9  C   UNL     1      -3.731 -11.373  16.704  0.00  0.00    +0.024 C 
ATOM     10  C   UNL     1      -5.689 -10.000  16.185  0.00  0.00    +0.052 C 
ATOM     11  C   UNL     1      -4.261  -9.949  16.725  0.00  0.00    +0.017 C 
ATOM     12  C   UNL     1      -4.617 -12.286  17.576  0.00  0.00    +0.090 C 
ATOM     13  C   UNL     1      -6.552 -10.902  17.097  0.00  0.00    +0.094 C 
ATOM     15  C   UNL     1      -3.653 -11.839  15.247  0.00  0.00    +0.130 C 
ATOM     16  C   UNL     1      -5.726 -10.510  14.745  0.00  0.00    +0.047 A 
ATOM     21  C   UNL     1      -6.669 -10.115  13.861  0.00  0.00    +0.055 A 
ATOM     22  C   UNL     1      -4.719 -11.998  13.060  0.00  0.00    +0.252 A 
ATOM     23  C   UNL     1      -6.676 -10.649  12.520  0.00  0.00    +0.030 A 
ATOM     24  C   UNL     1      -5.773 -11.545  12.119  0.00  0.00    +0.072 A 
ENDROOT
BRANCH   4  14
ATOM      2  O   UNL     1     -11.621 -14.170  18.863  0.00  0.00    -0.276 OA
ATOM      6  N   UNL     1      -9.382 -13.716  19.286  0.00  0.00    -0.302 N 
ATOM     14  C   UNL     1      -6.838 -13.105  18.045  0.00  0.00    +0.060 C 
ATOM     17  C   UNL     1      -7.985 -13.747  17.255  0.00  0.00    +0.038 C 
ATOM     18  C   UNL     1      -7.391 -12.261  19.202  0.00  0.00    +0.038 C 
ATOM     19  C   UNL     1      -8.904 -14.546  18.178  0.00  0.00    +0.109 C 
ATOM     20  C   UNL     1      -8.323 -13.089  20.087  0.00  0.00    +0.109 C 
ATOM     25  C   UNL     1     -10.751 -13.604  19.529  0.00  0.00    +0.212 C 
ATOM     33  C   UNL     1     -11.163 -12.729  20.686  0.00  0.00    +0.109 C 
ENDBRANCH   4  14
BRANCH  21   7
ATOM      3  O   UNL     1      -9.256 -10.771  14.890  0.00  0.00    -0.253 OA
ATOM      7  N   UNL     1      -7.671  -9.231  14.160  0.00  0.00    -0.268 N 
ATOM      8  N   UNL     1      -9.726  -8.499  14.868  0.00  0.00    -0.296 N 
ATOM     29  C   UNL     1      -8.913  -9.611  14.659  0.00  0.00    +0.304 C 
ATOM     34  H   UNL     1      -7.593  -8.281  13.810  0.00  0.00    +0.156 HD
ATOM     35  H   UNL     1      -9.323  -7.579  14.723  0.00  0.00    +0.151 HD
BRANCH   8  26
ATOM     26  C   UNL     1     -11.074  -8.598  15.383  0.00  0.00    +0.074 C 
ATOM     27  C   UNL     1     -11.258  -7.711  16.618  0.00  0.00    +0.022 C 
ATOM     28  C   UNL     1     -12.104  -8.260  14.298  0.00  0.00    +0.022 C 
ATOM     30  C   UNL     1     -11.281  -6.222  16.273  0.00  0.00    +0.002 C 
ATOM     31  C   UNL     1     -12.125  -6.769  13.956  0.00  0.00    +0.002 C 
ATOM     32  C   UNL     1     -12.320  -5.909  15.200  0.00  0.00    +0.000 C 
ENDBRANCH   8  26
ENDBRANCH  21   7
TORSDOF 3
ENDMDL
MODEL 10
REMARK VINA RESULT:      -6.6     12.103     16.753
REMARK  Name = 40724405
REMARK  4 active torsions:
REMARK  status: ('A' for Active; 'I' for Inactive)
REMARK    1  A    between atoms: N_4  and  C_14
REMARK    2  A    between atoms: N_7  and  C_21
REMARK    3  A    between atoms: N_8  and  C_26
REMARK    4  A    between atoms: C_25  and  C_33
REMARK                            x       y       z     vdW  Elec       q    Type
REMARK                         _______ _______ _______ _____ _____    ______ ____
ROOT
ATOM      1  O   UNL     1      -5.848  10.434   2.850  0.00  0.00    -0.268 OA
ATOM      4  N   UNL     1      -1.974  11.234   5.934  0.00  0.00    -0.298 NA
ATOM      5  N   UNL     1      -3.749   9.820   3.690  0.00  0.00    -0.310 N 
ATOM      9  C   UNL     1      -3.395   9.181   6.146  0.00  0.00    +0.024 C 
ATOM     10  C   UNL     1      -1.497   9.177   4.602  0.00  0.00    +0.052 C 
ATOM     11  C   UNL     1      -2.269   8.318   5.601  0.00  0.00    +0.017 C 
ATOM     12  C   UNL     1      -2.821  10.439   6.830  0.00  0.00    +0.090 C 
ATOM     13  C   UNL     1      -0.916  10.413   5.327  0.00  0.00    +0.094 C 
ATOM     15  C   UNL     1      -4.349   9.515   4.996  0.00  0.00    +0.130 C 
ATOM     16  C   UNL     1      -2.382   9.612   3.436  0.00  0.00    +0.047 A 
ATOM     21  C   UNL     1      -1.890   9.827   2.194  0.00  0.00    +0.055 A 
ATOM     22  C   UNL     1      -4.641  10.250   2.689  0.00  0.00    +0.252 A 
ATOM     23  C   UNL     1      -2.765  10.265   1.133  0.00  0.00    +0.030 A 
ATOM     24  C   UNL     1      -4.065  10.480   1.342  0.00  0.00    +0.072 A 
ENDROOT
BRANCH   4  14
ATOM      2  O   UNL     1       1.556  13.352  10.502  0.00  0.00    -0.276 OA
ATOM      6  N   UNL     1      -0.202  13.547   8.996  0.00  0.00    -0.302 N 
ATOM     14  C   UNL     1      -1.407  12.385   6.633  0.00  0.00    +0.060 C 
ATOM     17  C   UNL     1       0.052  12.102   7.015  0.00  0.00    +0.038 C 
ATOM     18  C   UNL     1      -2.236  12.701   7.885  0.00  0.00    +0.038 C 
ATOM     19  C   UNL     1       0.636  13.255   7.831  0.00  0.00    +0.109 C 
ATOM     20  C   UNL     1      -1.607  13.842   8.685  0.00  0.00    +0.109 C 
ATOM     25  C   UNL     1       0.364  13.568  10.270  0.00  0.00    +0.212 C 
ATOM     33  C   UNL     1      -0.565  13.875  11.418  0.00  0.00    +0.109 C 
ENDBRANCH   4  14
BRANCH  21   7
ATOM      3  O   UNL     1      -0.048  11.928   1.585  0.00  0.00    -0.253 OA
ATOM      7  N   UNL     1      -0.571   9.678   1.862  0.00  0.00    -0.268 N 
ATOM      8  N   UNL     1       1.560  10.287   1.271  0.00  0.00    -0.296 N 
ATOM     29  C   UNL     1       0.279  10.742   1.574  0.00  0.00    +0.304 C 
ATOM     34  H   UNL     1      -0.243   8.752   1.605  0.00  0.00    +0.156 HD
ATOM     35  H   UNL     1       1.749   9.294   1.368  0.00  0.00    +0.151 HD
BRANCH   8  26
ATOM     26  C   UNL     1       2.650  11.176   0.932  0.00  0.00    +0.074 C 
ATOM     27  C   UNL     1       3.669  11.257   2.073  0.00  0.00    +0.022 C 
ATOM     28  C   UNL     1       3.319  10.752  -0.380  0.00  0.00    +0.022 C 
ATOM     30  C   UNL     1       4.490   9.976   2.219  0.00  0.00    +0.002 C 
ATOM     31  C   UNL     1       4.140   9.470  -0.232  0.00  0.00    +0.002 C 
ATOM     32  C   UNL     1       5.154   9.581   0.903  0.00  0.00    +0.000 C 
ENDBRANCH   8  26
ENDBRANCH  21   7
TORSDOF 3
ENDMDL
